CHEMBL3732947
     RDKit          3D

  0  0  0  0  0  0  0  0  0  0999 V3000
M  V30 BEGIN CTAB
M  V30 COUNTS 63 68 0 0 0
M  V30 BEGIN ATOM
M  V30 1 C 0.493463 -2.126737 2.519533 0
M  V30 2 C 0.904584 -0.815136 2.605743 0
M  V30 3 C 0.062046 0.245151 2.537366 0
M  V30 4 C 0.508156 1.627503 2.668004 0
M  V30 5 N 1.862740 1.766655 2.818750 0
M  V30 6 C 2.317635 3.018237 2.973867 0
M  V30 7 N 3.675222 3.351044 3.121779 0
M  V30 8 C 4.534274 2.159853 3.023135 0 CFG=2
M  V30 9 C 5.971817 2.532524 3.210778 0
M  V30 10 C 6.607319 2.328988 1.882021 0
M  V30 11 N 5.742350 1.506999 1.099940 0
M  V30 12 C 4.438332 1.570999 1.664217 0
M  V30 13 C 1.445311 4.084990 2.976799 0
M  V30 14 S 1.640004 5.851339 3.144164 0
M  V30 15 C -0.212160 6.224606 2.983561 0
M  V30 16 C -0.797830 4.974276 2.818226 0
M  V30 17 C 0.079231 3.929710 2.822697 0
M  V30 18 N -0.346407 2.644205 2.667660 0
M  V30 19 C -1.287953 0.049479 2.371102 0
M  V30 20 C -1.715966 -1.256318 2.283543 0
M  V30 21 N -3.001237 -1.849068 2.102317 0
M  V30 22 C -3.271732 -2.386889 0.815044 0
M  V30 23 C -2.409640 -2.120089 -0.250847 0
M  V30 24 C -2.697126 -2.705701 -1.479798 0
M  V30 25 C -3.791011 -3.527664 -1.666728 0
M  V30 26 N -3.892434 -4.021595 -2.995002 0
M  V30 27 C -3.497274 -3.432347 -4.232585 0
M  V30 28 C -2.558237 -4.319690 -5.015011 0
M  V30 29 C -2.171392 -5.550223 -4.217415 0
M  V30 30 C -3.374837 -6.306987 -3.692086 0
M  V30 31 C -4.453207 -5.366069 -3.189255 0
M  V30 32 C -4.649214 -3.797533 -0.623943 0
M  V30 33 C -4.367418 -3.217691 0.595229 0
M  V30 34 N -0.836720 -2.262241 2.358770 0
M  V30 35 H 1.241501 -2.905489 2.580951 0
M  V30 36 H 1.968495 -0.624106 2.736143 0
M  V30 37 H 4.043098 4.305629 3.281409 0
M  V30 38 H 4.256398 1.423096 3.830916 0
M  V30 39 H 6.467776 1.928571 4.010753 0
M  V30 40 H 6.061220 3.636272 3.464739 0
M  V30 41 H 7.557306 1.746215 2.049138 0
M  V30 42 H 6.907829 3.283113 1.404610 0
M  V30 43 H 5.754985 1.860443 0.095530 0
M  V30 44 H 4.019860 0.539576 1.640794 0
M  V30 45 H 3.848578 2.277877 1.029206 0
M  V30 46 H -0.708274 7.243302 3.014664 0
M  V30 47 H -1.865592 4.995817 2.706023 0
M  V30 48 H -2.091131 0.752343 2.296201 0
M  V30 49 H -3.769226 -1.923270 2.831998 0
M  V30 50 H -1.564164 -1.482615 -0.075822 0
M  V30 51 H -1.981332 -2.444431 -2.240020 0
M  V30 52 H -3.076046 -2.429019 -4.158746 0
M  V30 53 H -4.442736 -3.311433 -4.841631 0
M  V30 54 H -3.020917 -4.585272 -5.975975 0
M  V30 55 H -1.613558 -3.757009 -5.224935 0
M  V30 56 H -1.626692 -6.232436 -4.898241 0
M  V30 57 H -1.483496 -5.282056 -3.396797 0
M  V30 58 H -3.006960 -6.888674 -2.825478 0
M  V30 59 H -3.807326 -6.997831 -4.422904 0
M  V30 60 H -5.264490 -5.267618 -3.929670 0
M  V30 61 H -4.903926 -5.746866 -2.247090 0
M  V30 62 H -5.485305 -4.437984 -0.834758 0
M  V30 63 H -5.022027 -3.413290 1.417710 0
M  V30 END ATOM
M  V30 BEGIN BOND
M  V30 1 2 1 2
M  V30 2 1 2 3
M  V30 3 1 3 4
M  V30 4 2 4 5
M  V30 5 1 5 6
M  V30 6 1 6 7
M  V30 7 1 7 8
M  V30 8 1 8 9
M  V30 9 1 9 10
M  V30 10 1 10 11
M  V30 11 1 11 12
M  V30 12 2 6 13
M  V30 13 1 13 14
M  V30 14 1 14 15
M  V30 15 2 15 16
M  V30 16 1 16 17
M  V30 17 2 17 18
M  V30 18 2 3 19
M  V30 19 1 19 20
M  V30 20 1 20 21
M  V30 21 1 21 22
M  V30 22 2 22 23
M  V30 23 1 23 24
M  V30 24 2 24 25
M  V30 25 1 25 26
M  V30 26 1 26 27
M  V30 27 1 27 28
M  V30 28 1 28 29
M  V30 29 1 29 30
M  V30 30 1 30 31
M  V30 31 1 25 32
M  V30 32 2 32 33
M  V30 33 2 20 34
M  V30 34 1 34 1
M  V30 35 1 18 4
M  V30 36 1 33 22
M  V30 37 1 12 8
M  V30 38 1 17 13
M  V30 39 1 31 26
M  V30 40 1 1 35
M  V30 41 1 2 36
M  V30 42 1 7 37
M  V30 43 1 8 38 CFG=1
M  V30 44 1 9 39
M  V30 45 1 9 40
M  V30 46 1 10 41
M  V30 47 1 10 42
M  V30 48 1 11 43
M  V30 49 1 12 44
M  V30 50 1 12 45
M  V30 51 1 15 46
M  V30 52 1 16 47
M  V30 53 1 19 48
M  V30 54 1 21 49
M  V30 55 1 23 50
M  V30 56 1 24 51
M  V30 57 1 27 52
M  V30 58 1 27 53
M  V30 59 1 28 54
M  V30 60 1 28 55
M  V30 61 1 29 56
M  V30 62 1 29 57
M  V30 63 1 30 58
M  V30 64 1 30 59
M  V30 65 1 31 60
M  V30 66 1 31 61
M  V30 67 1 32 62
M  V30 68 1 33 63
M  V30 END BOND
M  V30 END CTAB
M  END
>  <Dataset>  (1) 
ChEMBL_Kinases

>  <Ligand_Instance>  (1) 
nan

>  <PDB_ID>  (1) 
nan

>  <Standardized_SMILES>  (1) 
c1cc(-c2nc(N[C@@H]3CCNC3)c3sccc3n2)cc(Nc2ccc(N3CCCCC3)cc2)n1

>  <Name>  (1) 
nan

>  <Pocket>  (1) 
nan

>  <ATP_Site>  (1) 
nan

>  <Peripheral>  (1) 
nan

>  <Num_H_Atoms_ProtBoundConf>  (1) 
nan

>  <Num_Resolved_Atoms>  (1) 
nan

>  <Num_Not_Resolved_Atoms>  (1) 
nan

$$$$
CHEMBL575311
     RDKit          3D

  0  0  0  0  0  0  0  0  0  0999 V3000
M  V30 BEGIN CTAB
M  V30 COUNTS 61 65 0 0 0
M  V30 BEGIN ATOM
M  V30 1 C 1.023138 -3.052373 5.564944 0
M  V30 2 C 1.081583 -2.901148 4.094299 0
M  V30 3 C 2.206069 -2.475934 3.384840 0
M  V30 4 C 2.183488 -2.348468 1.998030 0
M  V30 5 O 3.285113 -1.926864 1.272315 0
M  V30 6 C 3.347330 -0.718190 0.602997 0
M  V30 7 C 4.165576 0.119218 1.390198 0
M  V30 8 C 4.460054 1.442805 1.034606 0
M  V30 9 N 3.964252 1.989601 -0.103769 0
M  V30 10 C 3.167791 1.243199 -0.914807 0
M  V30 11 N 2.442903 1.523236 -2.132391 0
M  V30 12 C 1.025002 1.484833 -1.842093 0
M  V30 13 C 0.549924 1.500047 -0.518040 0
M  V30 14 C -0.786937 1.413715 -0.177583 0
M  V30 15 C -1.727424 1.307508 -1.163123 0
M  V30 16 N -3.095513 1.206137 -0.819065 0
M  V30 17 C -3.662188 1.393472 0.491266 0
M  V30 18 C -4.315840 0.093842 0.991223 0
M  V30 19 O -5.371281 -0.148237 0.122205 0
M  V30 20 C -4.998765 -0.291236 -1.191529 0
M  V30 21 C -4.195137 0.881408 -1.706552 0
M  V30 22 C -1.288793 1.292469 -2.465729 0
M  V30 23 C 0.037440 1.377926 -2.800320 0
M  V30 24 C 2.917961 -0.047702 -0.509650 0
M  V30 25 C 0.961682 -2.685707 1.463626 0
M  V30 26 C 0.731760 -2.682357 0.027451 0
M  V30 27 C 1.785915 -3.361827 -0.611115 0
M  V30 28 C 1.804059 -3.472725 -1.989438 0
M  V30 29 C 0.757205 -2.895614 -2.675653 0
M  V30 30 C -0.276945 -2.229193 -2.057319 0
M  V30 31 N -0.254601 -2.145075 -0.712988 0
M  V30 32 N -0.136508 -3.095492 2.113986 0
M  V30 33 C -0.106245 -3.217875 3.479397 0
M  V30 34 C -1.326130 -3.678519 4.202916 0
M  V30 35 H 0.517259 -4.027096 5.806586 0
M  V30 36 H 2.030440 -3.116682 5.971267 0
M  V30 37 H 0.402654 -2.246366 6.019655 0
M  V30 38 H 3.108203 -2.242106 3.943072 0
M  V30 39 H 4.677855 -0.081743 2.346472 0
M  V30 40 H 5.063323 2.146439 1.560455 0
M  V30 41 H 2.682722 1.735605 -3.123493 0
M  V30 42 H 1.253679 1.585125 0.311021 0
M  V30 43 H -1.010880 1.437171 0.892823 0
M  V30 44 H -2.953434 1.752967 1.248203 0
M  V30 45 H -4.526186 2.119948 0.465966 0
M  V30 46 H -3.610925 -0.731512 1.080101 0
M  V30 47 H -4.745972 0.316552 1.992308 0
M  V30 48 H -5.941205 -0.308810 -1.787016 0
M  V30 49 H -4.446075 -1.232855 -1.393223 0
M  V30 50 H -3.757913 0.621647 -2.697608 0
M  V30 51 H -4.791827 1.801373 -1.864935 0
M  V30 52 H -1.937436 1.216331 -3.309199 0
M  V30 53 H 0.435728 1.368015 -3.803064 0
M  V30 54 H 2.323431 -0.698765 -1.090421 0
M  V30 55 H 2.638026 -3.839705 -0.140094 0
M  V30 56 H 2.583983 -3.979025 -2.523849 0
M  V30 57 H 0.701984 -2.941440 -3.766661 0
M  V30 58 H -1.134439 -1.745147 -2.494187 0
M  V30 59 H -2.197297 -3.387872 3.547554 0
M  V30 60 H -1.336139 -4.806667 4.191189 0
M  V30 61 H -1.413310 -3.270880 5.209375 0
M  V30 END ATOM
M  V30 BEGIN BOND
M  V30 1 1 1 2
M  V30 2 2 2 3
M  V30 3 1 3 4
M  V30 4 1 4 5
M  V30 5 1 5 6
M  V30 6 2 6 7
M  V30 7 1 7 8
M  V30 8 2 8 9
M  V30 9 1 9 10
M  V30 10 1 10 11
M  V30 11 1 11 12
M  V30 12 2 12 13
M  V30 13 1 13 14
M  V30 14 2 14 15
M  V30 15 1 15 16
M  V30 16 1 16 17
M  V30 17 1 17 18
M  V30 18 1 18 19
M  V30 19 1 19 20
M  V30 20 1 20 21
M  V30 21 1 15 22
M  V30 22 2 22 23
M  V30 23 2 10 24
M  V30 24 2 4 25
M  V30 25 1 25 26
M  V30 26 2 26 27
M  V30 27 1 27 28
M  V30 28 2 28 29
M  V30 29 1 29 30
M  V30 30 2 30 31
M  V30 31 1 25 32
M  V30 32 2 32 33
M  V30 33 1 33 34
M  V30 34 1 33 2
M  V30 35 1 24 6
M  V30 36 1 31 26
M  V30 37 1 23 12
M  V30 38 1 21 16
M  V30 39 1 1 35
M  V30 40 1 1 36
M  V30 41 1 1 37
M  V30 42 1 3 38
M  V30 43 1 7 39
M  V30 44 1 8 40
M  V30 45 1 11 41
M  V30 46 1 13 42
M  V30 47 1 14 43
M  V30 48 1 17 44
M  V30 49 1 17 45
M  V30 50 1 18 46
M  V30 51 1 18 47
M  V30 52 1 20 48
M  V30 53 1 20 49
M  V30 54 1 21 50
M  V30 55 1 21 51
M  V30 56 1 22 52
M  V30 57 1 23 53
M  V30 58 1 24 54
M  V30 59 1 27 55
M  V30 60 1 28 56
M  V30 61 1 29 57
M  V30 62 1 30 58
M  V30 63 1 34 59
M  V30 64 1 34 60
M  V30 65 1 34 61
M  V30 END BOND
M  V30 END CTAB
M  END
>  <Dataset>  (2) 
ChEMBL_Kinases

>  <Ligand_Instance>  (2) 
nan

>  <PDB_ID>  (2) 
nan

>  <Standardized_SMILES>  (2) 
Cc1cc(Oc2ccnc(Nc3ccc(N4CCOCC4)cc3)c2)c(-c2ccccn2)nc1C

>  <Name>  (2) 
nan

>  <Pocket>  (2) 
nan

>  <ATP_Site>  (2) 
nan

>  <Peripheral>  (2) 
nan

>  <Num_H_Atoms_ProtBoundConf>  (2) 
nan

>  <Num_Resolved_Atoms>  (2) 
nan

>  <Num_Not_Resolved_Atoms>  (2) 
nan

$$$$
CHEMBL518824
     RDKit          3D

  0  0  0  0  0  0  0  0  0  0999 V3000
M  V30 BEGIN CTAB
M  V30 COUNTS 40 43 0 0 0
M  V30 BEGIN ATOM
M  V30 1 N -0.108088 -8.231776 2.942857 0
M  V30 2 C -0.105657 -6.813049 2.864921 0
M  V30 3 N 0.122640 -6.280272 1.651970 0
M  V30 4 C 0.144359 -4.928299 1.475735 0
M  V30 5 N 0.344308 -4.152794 0.398553 0
M  V30 6 C 0.248916 -2.883343 0.835487 0
M  V30 7 C 0.411070 -1.744692 -0.062859 0
M  V30 8 C 0.670142 -1.960018 -1.403919 0
M  V30 9 C 0.833826 -0.910537 -2.306287 0
M  V30 10 N 0.727036 0.329200 -1.806990 0
M  V30 11 C 0.477618 0.618749 -0.519622 0
M  V30 12 C 0.378691 2.001986 -0.067149 0
M  V30 13 C 0.529565 2.997729 -0.901077 0
M  V30 14 C 0.446519 4.405690 -0.532491 0
M  V30 15 C 0.197743 4.849778 0.748201 0
M  V30 16 C 0.119393 6.183456 1.095703 0
M  V30 17 C 0.294849 7.152197 0.132484 0
M  V30 18 C 0.544252 6.722131 -1.152096 0
M  V30 19 C 0.619926 5.386375 -1.485499 0
M  V30 20 C 0.318306 -0.431867 0.360011 0
M  V30 21 C -0.011058 -2.822329 2.185828 0
M  V30 22 C -0.081873 -4.151687 2.616867 0
M  V30 23 C -0.316633 -4.682773 3.863465 0
M  V30 24 O -0.511971 -3.918243 4.844364 0
M  V30 25 N -0.321792 -6.035969 3.953499 0
M  V30 26 H -0.788140 -8.851314 3.463730 0
M  V30 27 H 0.594997 -8.867529 2.472879 0
M  V30 28 H 0.526570 -4.541990 -0.531628 0
M  V30 29 H 0.762955 -2.949803 -1.841487 0
M  V30 30 H 1.036098 -1.103347 -3.352507 0
M  V30 31 H 0.179637 2.195241 0.963245 0
M  V30 32 H 0.727683 2.734483 -1.923345 0
M  V30 33 H 0.051850 4.135522 1.544624 0
M  V30 34 H -0.081693 6.488179 2.133594 0
M  V30 35 H 0.225288 8.176504 0.448391 0
M  V30 36 H 0.684677 7.476665 -1.922361 0
M  V30 37 H 0.820610 5.150727 -2.524099 0
M  V30 38 H 0.116096 -0.223804 1.404879 0
M  V30 39 H -0.128943 -1.902174 2.756183 0
M  V30 40 H -0.496291 -6.465449 4.881773 0
M  V30 END ATOM
M  V30 BEGIN BOND
M  V30 1 1 1 2
M  V30 2 2 2 3
M  V30 3 1 3 4
M  V30 4 1 4 5
M  V30 5 1 5 6
M  V30 6 1 6 7
M  V30 7 2 7 8
M  V30 8 1 8 9
M  V30 9 2 9 10
M  V30 10 1 10 11
M  V30 11 1 11 12
M  V30 12 2 12 13
M  V30 13 1 13 14
M  V30 14 2 14 15
M  V30 15 1 15 16
M  V30 16 2 16 17
M  V30 17 1 17 18
M  V30 18 2 18 19
M  V30 19 2 11 20
M  V30 20 2 6 21
M  V30 21 1 21 22
M  V30 22 1 22 23
M  V30 23 2 23 24
M  V30 24 1 23 25
M  V30 25 1 25 2
M  V30 26 2 22 4
M  V30 27 1 20 7
M  V30 28 1 19 14
M  V30 29 1 1 26
M  V30 30 1 1 27
M  V30 31 1 5 28
M  V30 32 1 8 29
M  V30 33 1 9 30
M  V30 34 1 12 31
M  V30 35 1 13 32
M  V30 36 1 15 33
M  V30 37 1 16 34
M  V30 38 1 17 35
M  V30 39 1 18 36
M  V30 40 1 19 37
M  V30 41 1 20 38
M  V30 42 1 21 39
M  V30 43 1 25 40
M  V30 END BOND
M  V30 END CTAB
M  END
>  <Dataset>  (3) 
ChEMBL_Kinases

>  <Ligand_Instance>  (3) 
nan

>  <PDB_ID>  (3) 
nan

>  <Standardized_SMILES>  (3) 
Nc1nc2[nH]c(-c3ccnc(/C=C/c4ccccc4)c3)cc2c(=O)[nH]1

>  <Name>  (3) 
nan

>  <Pocket>  (3) 
nan

>  <ATP_Site>  (3) 
nan

>  <Peripheral>  (3) 
nan

>  <Num_H_Atoms_ProtBoundConf>  (3) 
nan

>  <Num_Resolved_Atoms>  (3) 
nan

>  <Num_Not_Resolved_Atoms>  (3) 
nan

$$$$
CHEMBL518903
     RDKit          3D

  0  0  0  0  0  0  0  0  0  0999 V3000
M  V30 BEGIN CTAB
M  V30 COUNTS 57 62 0 0 0
M  V30 BEGIN ATOM
M  V30 1 O 5.226030 1.879803 2.952446 0
M  V30 2 C 4.504126 1.220829 2.161940 0
M  V30 3 N 4.789040 0.103048 1.322786 0
M  V30 4 C 3.620938 -0.271471 0.621407 0
M  V30 5 O 3.736675 -1.235352 -0.146510 0
M  V30 6 C 2.528042 0.594672 0.982545 0
M  V30 7 C 3.078610 1.462524 1.890585 0
M  V30 8 C 2.261760 2.451982 2.445092 0
M  V30 9 C 2.711653 3.439228 3.420742 0
M  V30 10 C 2.548873 2.957247 4.724602 0
M  V30 11 C 2.912632 3.732148 5.810483 0
M  V30 12 C 3.437136 4.981953 5.605866 0
M  V30 13 C 3.594943 5.449500 4.333952 0
M  V30 14 C 3.240756 4.699566 3.231388 0
M  V30 15 Cl 3.376138 5.149126 1.549204 0
M  V30 16 C 0.930180 2.556105 2.088755 0
M  V30 17 C 0.430046 1.660726 1.174249 0
M  V30 18 N -0.832208 1.558537 0.669484 0
M  V30 19 C -0.766211 0.499334 -0.191648 0
M  V30 20 C -1.825476 0.023427 -0.935401 0
M  V30 21 C -1.651196 -1.057639 -1.772660 0
M  V30 22 C -2.751496 -1.661225 -2.611885 0
M  V30 23 C -3.256031 -2.921804 -1.916373 0
M  V30 24 C -4.342680 -3.621433 -2.659825 0
M  V30 25 C -4.814342 -4.862348 -1.899775 0
M  V30 26 N -3.740975 -5.798143 -1.681148 0
M  V30 27 C -3.225842 -6.846401 -2.340553 0
M  V30 28 C -2.169034 -7.368531 -1.621342 0
M  V30 29 C -2.023117 -6.610449 -0.465447 0
M  V30 30 C -3.009181 -5.654506 -0.540333 0
M  V30 31 C -0.393068 -1.636539 -1.836941 0
M  V30 32 O -0.211928 -2.731384 -2.684172 0
M  V30 33 C 0.629276 -1.126800 -1.077698 0
M  V30 34 C 0.488849 -0.065715 -0.245511 0
M  V30 35 C 1.223404 0.683487 0.622575 0
M  V30 36 H 5.777147 -0.279747 1.330563 0
M  V30 37 H 2.144874 1.985517 5.010021 0
M  V30 38 H 2.808953 3.410376 6.844630 0
M  V30 39 H 3.730742 5.610122 6.443893 0
M  V30 40 H 3.998880 6.418376 4.097428 0
M  V30 41 H 0.277252 3.303257 2.496320 0
M  V30 42 H -1.636577 2.158021 0.901337 0
M  V30 43 H -2.812882 0.460245 -0.900194 0
M  V30 44 H -3.602054 -0.951534 -2.629684 0
M  V30 45 H -2.443421 -1.854189 -3.640783 0
M  V30 46 H -3.567113 -2.681585 -0.876879 0
M  V30 47 H -2.368863 -3.598056 -1.852942 0
M  V30 48 H -5.219669 -2.965408 -2.834380 0
M  V30 49 H -3.976070 -3.900774 -3.672555 0
M  V30 50 H -5.315645 -4.539814 -0.972338 0
M  V30 51 H -5.592532 -5.398506 -2.487361 0
M  V30 52 H -3.680987 -7.117028 -3.281579 0
M  V30 53 H -1.590163 -8.233679 -1.965467 0
M  V30 54 H -1.267363 -6.798416 0.285659 0
M  V30 55 H -3.065703 -4.939041 0.295727 0
M  V30 56 H -0.336255 -2.620253 -3.699206 0
M  V30 57 H 1.543141 -1.615137 -1.182000 0
M  V30 END ATOM
M  V30 BEGIN BOND
M  V30 1 2 1 2
M  V30 2 1 2 3
M  V30 3 1 3 4
M  V30 4 2 4 5
M  V30 5 1 4 6
M  V30 6 2 6 7
M  V30 7 1 7 8
M  V30 8 1 8 9
M  V30 9 2 9 10
M  V30 10 1 10 11
M  V30 11 2 11 12
M  V30 12 1 12 13
M  V30 13 2 13 14
M  V30 14 1 14 15
M  V30 15 2 8 16
M  V30 16 1 16 17
M  V30 17 1 17 18
M  V30 18 1 18 19
M  V30 19 2 19 20
M  V30 20 1 20 21
M  V30 21 1 21 22
M  V30 22 1 22 23
M  V30 23 1 23 24
M  V30 24 1 24 25
M  V30 25 1 25 26
M  V30 26 1 26 27
M  V30 27 2 27 28
M  V30 28 1 28 29
M  V30 29 2 29 30
M  V30 30 2 21 31
M  V30 31 1 31 32
M  V30 32 1 31 33
M  V30 33 2 33 34
M  V30 34 1 34 35
M  V30 35 1 7 2
M  V30 36 1 14 9
M  V30 37 2 35 17
M  V30 38 1 35 6
M  V30 39 1 34 19
M  V30 40 1 30 26
M  V30 41 1 3 36
M  V30 42 1 10 37
M  V30 43 1 11 38
M  V30 44 1 12 39
M  V30 45 1 13 40
M  V30 46 1 16 41
M  V30 47 1 18 42
M  V30 48 1 20 43
M  V30 49 1 22 44
M  V30 50 1 22 45
M  V30 51 1 23 46
M  V30 52 1 23 47
M  V30 53 1 24 48
M  V30 54 1 24 49
M  V30 55 1 25 50
M  V30 56 1 25 51
M  V30 57 1 27 52
M  V30 58 1 28 53
M  V30 59 1 29 54
M  V30 60 1 30 55
M  V30 61 1 32 56
M  V30 62 1 33 57
M  V30 END BOND
M  V30 END CTAB
M  END
>  <Dataset>  (4) 
ChEMBL_Kinases

>  <Ligand_Instance>  (4) 
nan

>  <PDB_ID>  (4) 
nan

>  <Standardized_SMILES>  (4) 
O=C1NC(=O)c2c1c(-c1ccccc1Cl)cc1[nH]c3cc(CCCCn4cccc4)c(O)cc3c21

>  <Name>  (4) 
nan

>  <Pocket>  (4) 
nan

>  <ATP_Site>  (4) 
nan

>  <Peripheral>  (4) 
nan

>  <Num_H_Atoms_ProtBoundConf>  (4) 
nan

>  <Num_Resolved_Atoms>  (4) 
nan

>  <Num_Not_Resolved_Atoms>  (4) 
nan

$$$$
CHEMBL518921
     RDKit          3D

  0  0  0  0  0  0  0  0  0  0999 V3000
M  V30 BEGIN CTAB
M  V30 COUNTS 65 68 0 0 0
M  V30 BEGIN ATOM
M  V30 1 C 6.103523 0.869360 1.749376 0
M  V30 2 C 5.358958 0.974911 0.446423 0
M  V30 3 C 4.189921 0.002567 0.466653 0
M  V30 4 C 3.476717 0.130683 -0.834879 0
M  V30 5 O 3.375041 -0.869719 -1.547687 0
M  V30 6 O 3.051105 1.376032 -1.007532 0
M  V30 7 C 2.347328 1.963926 -2.032976 0
M  V30 8 C 0.985919 1.537303 -2.403914 0
M  V30 9 C 0.822347 0.110649 -2.850343 0
M  V30 10 O 1.559237 -0.254930 -3.944424 0
M  V30 11 C -0.036096 1.742579 -1.309729 0
M  V30 12 C -1.279728 1.706315 -2.130202 0
M  V30 13 C -2.473395 1.135975 -2.155101 0
M  V30 14 C -2.823261 0.207774 -1.084643 0
M  V30 15 C -2.575481 0.232406 0.243605 0
M  V30 16 C -3.015715 -0.800278 1.038071 0
M  V30 17 C -3.712266 -1.900061 0.594274 0
M  V30 18 C -4.177403 -2.993589 1.433021 0
M  V30 19 C -4.252753 -4.269588 0.862047 0
M  V30 20 C -4.678346 -5.374774 1.559436 0
M  V30 21 C -5.052086 -5.260766 2.870000 0
M  V30 22 C -5.500407 -6.495637 3.565725 0
M  V30 23 F -6.048948 -7.352040 2.632625 0
M  V30 24 F -4.444817 -7.047201 4.246114 0
M  V30 25 F -6.529976 -6.124889 4.418075 0
M  V30 26 C -4.985899 -4.006363 3.456318 0
M  V30 27 C -4.557424 -2.892922 2.754013 0
M  V30 28 C -3.970484 -1.933942 -0.760003 0
M  V30 29 C -3.531185 -0.893747 -1.587108 0
M  V30 30 C -0.871073 2.611705 -3.229263 0
M  V30 31 O -1.553299 3.465161 -3.904364 0
M  V30 32 O 0.514138 2.411761 -3.484238 0
M  V30 33 C 3.360333 0.360596 1.633116 0
M  V30 34 C 3.116556 -0.539479 2.652738 0
M  V30 35 C 2.346376 -0.185467 3.744522 0
M  V30 36 C 1.780900 1.080597 3.875284 0
M  V30 37 C 2.037171 1.956835 2.849351 0
M  V30 38 C 2.806386 1.597752 1.762727 0
M  V30 39 H 5.641387 0.137771 2.450796 0
M  V30 40 H 6.209321 1.867247 2.188430 0
M  V30 41 H 7.142327 0.521695 1.491499 0
M  V30 42 H 4.917891 1.977038 0.367090 0
M  V30 43 H 6.010695 0.817964 -0.429905 0
M  V30 44 H 4.607420 -1.022266 0.584494 0
M  V30 45 H 2.324372 3.077493 -1.766782 0
M  V30 46 H 3.001980 2.021563 -2.988164 0
M  V30 47 H -0.307224 0.051964 -3.121517 0
M  V30 48 H 0.859042 -0.544278 -1.970554 0
M  V30 49 H 1.148692 0.086166 -4.776189 0
M  V30 50 H 0.057524 0.956225 -0.569756 0
M  V30 51 H 0.030426 2.761543 -0.876697 0
M  V30 52 H -3.195891 1.355456 -2.956973 0
M  V30 53 H -2.033918 1.097300 0.571817 0
M  V30 54 H -2.804762 -0.756515 2.097530 0
M  V30 55 H -3.970484 -4.457515 -0.179595 0
M  V30 56 H -4.719514 -6.359528 1.066976 0
M  V30 57 H -5.287227 -3.941319 4.498972 0
M  V30 58 H -4.505832 -1.921021 3.205915 0
M  V30 59 H -4.523329 -2.782284 -1.172297 0
M  V30 60 H -3.801605 -1.042304 -2.643909 0
M  V30 61 H 3.514481 -1.547467 2.639864 0
M  V30 62 H 2.172218 -0.903190 4.525190 0
M  V30 63 H 1.180202 1.336326 4.734908 0
M  V30 64 H 1.580804 2.934943 2.985454 0
M  V30 65 H 2.908027 2.389693 1.061086 0
M  V30 END ATOM
M  V30 BEGIN BOND
M  V30 1 1 1 2
M  V30 2 1 2 3
M  V30 3 1 3 4
M  V30 4 2 4 5
M  V30 5 1 4 6
M  V30 6 1 6 7
M  V30 7 1 7 8
M  V30 8 1 8 9
M  V30 9 1 9 10
M  V30 10 1 8 11
M  V30 11 1 11 12
M  V30 12 2 12 13
M  V30 13 1 13 14
M  V30 14 2 14 15
M  V30 15 1 15 16
M  V30 16 2 16 17
M  V30 17 1 17 18
M  V30 18 2 18 19
M  V30 19 1 19 20
M  V30 20 2 20 21
M  V30 21 1 21 22
M  V30 22 1 22 23
M  V30 23 1 22 24
M  V30 24 1 22 25
M  V30 25 1 21 26
M  V30 26 2 26 27
M  V30 27 1 17 28
M  V30 28 2 28 29
M  V30 29 1 12 30
M  V30 30 2 30 31
M  V30 31 1 30 32
M  V30 32 1 3 33
M  V30 33 2 33 34
M  V30 34 1 34 35
M  V30 35 2 35 36
M  V30 36 1 36 37
M  V30 37 2 37 38
M  V30 38 1 32 8
M  V30 39 1 38 33
M  V30 40 1 29 14
M  V30 41 1 27 18
M  V30 42 1 1 39
M  V30 43 1 1 40
M  V30 44 1 1 41
M  V30 45 1 2 42
M  V30 46 1 2 43
M  V30 47 1 3 44
M  V30 48 1 7 45
M  V30 49 1 7 46
M  V30 50 1 9 47
M  V30 51 1 9 48
M  V30 52 1 10 49
M  V30 53 1 11 50
M  V30 54 1 11 51
M  V30 55 1 13 52
M  V30 56 1 15 53
M  V30 57 1 16 54
M  V30 58 1 19 55
M  V30 59 1 20 56
M  V30 60 1 26 57
M  V30 61 1 27 58
M  V30 62 1 28 59
M  V30 63 1 29 60
M  V30 64 1 34 61
M  V30 65 1 35 62
M  V30 66 1 36 63
M  V30 67 1 37 64
M  V30 68 1 38 65
M  V30 END BOND
M  V30 END CTAB
M  END
>  <Dataset>  (5) 
ChEMBL_Kinases

>  <Ligand_Instance>  (5) 
nan

>  <PDB_ID>  (5) 
nan

>  <Standardized_SMILES>  (5) 
CCC(C(=O)OCC1(CO)C/C(=C\c2ccc(-c3ccc(C(F)(F)F)cc3)cc2)C(=O)O1)c1ccccc1

>  <Name>  (5) 
nan

>  <Pocket>  (5) 
nan

>  <ATP_Site>  (5) 
nan

>  <Peripheral>  (5) 
nan

>  <Num_H_Atoms_ProtBoundConf>  (5) 
nan

>  <Num_Resolved_Atoms>  (5) 
nan

>  <Num_Not_Resolved_Atoms>  (5) 
nan

$$$$
CHEMBL3703153
     RDKit          3D

  0  0  0  0  0  0  0  0  0  0999 V3000
M  V30 BEGIN CTAB
M  V30 COUNTS 67 73 0 0 0
M  V30 BEGIN ATOM
M  V30 1 N 4.653717 2.206548 2.390724 0
M  V30 2 C 3.867240 1.046886 2.820176 0
M  V30 3 C 3.116335 0.364980 1.748545 0
M  V30 4 C 2.143160 1.266102 1.405284 0
M  V30 5 C 1.205677 0.879926 0.447315 0
M  V30 6 C 1.268258 -0.391787 -0.137406 0
M  V30 7 C 0.229981 -0.800119 -1.072691 0
M  V30 8 N -0.896156 -0.950145 -0.279525 0
M  V30 9 C -1.914073 -1.320333 -1.154188 0
M  V30 10 N -3.225071 -1.556396 -0.989903 0
M  V30 11 C -4.006913 -1.854112 -2.095314 0
M  V30 12 O -5.193943 -1.979837 -1.531735 0
M  V30 13 C -5.892394 -2.015920 -0.415382 0
M  V30 14 C -5.831118 -1.042032 0.732249 0
M  V30 15 N -4.634980 -0.895020 1.448973 0
M  V30 16 C -3.390934 -0.263302 1.795257 0
M  V30 17 O -3.261950 0.843085 1.181567 0
M  V30 18 C -2.494944 -0.932377 2.748610 0
M  V30 19 C -1.282379 -0.457173 3.137970 0
M  V30 20 C -0.668637 -1.330004 4.000853 0
M  V30 21 C -1.221546 -2.513872 4.403964 0
M  V30 22 C -2.483506 -2.873217 3.919780 0
M  V30 23 C -3.219868 -2.053826 3.020658 0
M  V30 24 C -4.504444 -2.101863 2.289844 0
M  V30 25 O -5.090972 -3.169538 2.630286 0
M  V30 26 C -3.381053 -1.909565 -3.402933 0
M  V30 27 C -2.011165 -1.661537 -3.553939 0
M  V30 28 N -1.383377 -1.363691 -2.294148 0
M  V30 29 C -0.079496 -1.067608 -2.374914 0
M  V30 30 C 0.979071 -0.954228 -3.367717 0
M  V30 31 C 1.336205 0.414223 -3.469367 0
M  V30 32 C 2.338129 0.792130 -4.382587 0
M  V30 33 C 2.895458 -0.214587 -5.110961 0
M  V30 34 C 2.584696 -1.541824 -5.047252 0
M  V30 35 C 1.591273 -1.943247 -4.147077 0
M  V30 36 C 2.278925 -1.136165 0.309130 0
M  V30 37 C 3.332498 -0.959133 1.255386 0
M  V30 38 C 4.720667 0.143804 3.698127 0
M  V30 39 C 3.533367 0.036253 4.684713 0
M  V30 40 C 3.075614 1.384562 4.081563 0
M  V30 41 H 5.124995 1.855230 1.490432 0
M  V30 42 H 5.379554 2.425655 3.144410 0
M  V30 43 H 1.940778 2.275747 1.737503 0
M  V30 44 H 0.376925 1.477311 0.074457 0
M  V30 45 H -6.994899 -1.684240 -0.831385 0
M  V30 46 H -6.238710 -3.023446 -0.019450 0
M  V30 47 H -6.180302 0.005856 0.383074 0
M  V30 48 H -6.695327 -1.305604 1.413739 0
M  V30 49 H -0.887976 0.481750 2.789304 0
M  V30 50 H 0.329425 -1.096529 4.408300 0
M  V30 51 H -0.739382 -3.227178 5.093995 0
M  V30 52 H -2.877555 -3.821072 4.241777 0
M  V30 53 H -4.327798 -2.144790 -3.775215 0
M  V30 54 H -1.733952 -1.736662 -4.566536 0
M  V30 55 H 0.950506 1.253650 -2.925134 0
M  V30 56 H 2.625558 1.822644 -4.481102 0
M  V30 57 H 3.671234 -0.011850 -5.841039 0
M  V30 58 H 2.919910 -2.430627 -5.530852 0
M  V30 59 H 1.079637 -2.827341 -3.798607 0
M  V30 60 H 2.423865 -2.162829 -0.100117 0
M  V30 61 H 4.118729 -1.523830 1.606521 0
M  V30 62 H 4.930171 -0.807607 3.233727 0
M  V30 63 H 5.579950 0.616867 4.222740 0
M  V30 64 H 2.800854 -0.745879 4.423325 0
M  V30 65 H 3.861605 0.063604 5.708553 0
M  V30 66 H 3.512743 2.211343 4.671890 0
M  V30 67 H 1.978870 1.433572 4.006528 0
M  V30 END ATOM
M  V30 BEGIN BOND
M  V30 1 1 1 2
M  V30 2 1 2 3
M  V30 3 2 3 4
M  V30 4 1 4 5
M  V30 5 2 5 6
M  V30 6 1 6 7
M  V30 7 1 7 8
M  V30 8 2 8 9
M  V30 9 1 9 10
M  V30 10 2 10 11
M  V30 11 1 11 12
M  V30 12 1 12 13
M  V30 13 1 13 14
M  V30 14 1 14 15
M  V30 15 1 15 16
M  V30 16 2 16 17
M  V30 17 1 16 18
M  V30 18 2 18 19
M  V30 19 1 19 20
M  V30 20 2 20 21
M  V30 21 1 21 22
M  V30 22 2 22 23
M  V30 23 1 23 24
M  V30 24 2 24 25
M  V30 25 1 11 26
M  V30 26 2 26 27
M  V30 27 1 27 28
M  V30 28 1 28 29
M  V30 29 1 29 30
M  V30 30 2 30 31
M  V30 31 1 31 32
M  V30 32 2 32 33
M  V30 33 1 33 34
M  V30 34 2 34 35
M  V30 35 1 6 36
M  V30 36 2 36 37
M  V30 37 1 2 38
M  V30 38 1 38 39
M  V30 39 1 39 40
M  V30 40 1 40 2
M  V30 41 1 37 3
M  V30 42 2 29 7
M  V30 43 1 35 30
M  V30 44 1 28 9
M  V30 45 1 24 15
M  V30 46 1 23 18
M  V30 47 1 1 41
M  V30 48 1 1 42
M  V30 49 1 4 43
M  V30 50 1 5 44
M  V30 51 1 13 45
M  V30 52 1 13 46
M  V30 53 1 14 47
M  V30 54 1 14 48
M  V30 55 1 19 49
M  V30 56 1 20 50
M  V30 57 1 21 51
M  V30 58 1 22 52
M  V30 59 1 26 53
M  V30 60 1 27 54
M  V30 61 1 31 55
M  V30 62 1 32 56
M  V30 63 1 33 57
M  V30 64 1 34 58
M  V30 65 1 35 59
M  V30 66 1 36 60
M  V30 67 1 37 61
M  V30 68 1 38 62
M  V30 69 1 38 63
M  V30 70 1 39 64
M  V30 71 1 39 65
M  V30 72 1 40 66
M  V30 73 1 40 67
M  V30 END BOND
M  V30 END CTAB
M  END
>  <Dataset>  (6) 
ChEMBL_Kinases

>  <Ligand_Instance>  (6) 
nan

>  <PDB_ID>  (6) 
nan

>  <Standardized_SMILES>  (6) 
NC1(c2ccc(-c3nc4nc(OCCN5C(=O)c6ccccc6C5=O)ccn4c3-c3ccccc3)cc2)CCC1

>  <Name>  (6) 
nan

>  <Pocket>  (6) 
nan

>  <ATP_Site>  (6) 
nan

>  <Peripheral>  (6) 
nan

>  <Num_H_Atoms_ProtBoundConf>  (6) 
nan

>  <Num_Resolved_Atoms>  (6) 
nan

>  <Num_Not_Resolved_Atoms>  (6) 
nan

$$$$
CHEMBL519008
     RDKit          3D

  0  0  0  0  0  0  0  0  0  0999 V3000
M  V30 BEGIN CTAB
M  V30 COUNTS 56 60 0 0 0
M  V30 BEGIN ATOM
M  V30 1 C 7.886266 -0.078911 3.753342 0
M  V30 2 O 7.608975 -0.490380 2.432522 0
M  V30 3 C 6.302917 -0.586677 1.977514 0
M  V30 4 C 6.051054 -0.989948 0.685285 0
M  V30 5 C 4.749999 -1.088148 0.224905 0
M  V30 6 C 3.653329 -0.799098 1.001011 0
M  V30 7 C 2.280495 -0.898481 0.529008 0
M  V30 8 N 1.363356 -0.596720 1.365584 0
M  V30 9 C -0.077595 -0.634557 1.061025 0
M  V30 10 C -0.617521 0.762904 1.238882 0
M  V30 11 C -1.347350 1.622429 0.447832 0
M  V30 12 C -1.698289 2.861946 0.927568 0
M  V30 13 C -1.350161 3.300332 2.187069 0
M  V30 14 F -1.782462 4.551246 2.490951 0
M  V30 15 C -0.618539 2.450464 2.991244 0
M  V30 16 C -0.257577 1.199263 2.523005 0
M  V30 17 C -0.269671 -1.166182 -0.284432 0
M  V30 18 C -1.667326 -1.427165 -0.719558 0
M  V30 19 O -2.014531 -1.893457 -1.836181 0
M  V30 20 N -2.863445 -1.197696 0.056036 0
M  V30 21 C -4.099641 -1.522318 -0.570328 0
M  V30 22 C -4.828365 -0.612584 -1.330401 0
M  V30 23 C -6.029957 -0.944513 -1.933447 0
M  V30 24 C -6.508022 -2.228035 -1.764681 0
M  V30 25 N -7.639172 -2.816814 -2.234317 0
M  V30 26 N -7.681536 -4.077820 -1.812164 0
M  V30 27 C -6.581327 -4.304728 -1.071583 0
M  V30 28 C -5.810217 -3.160560 -1.015069 0
M  V30 29 C -4.608382 -2.796701 -0.423208 0
M  V30 30 C 0.609483 -1.495971 -1.215651 0
M  V30 31 C 0.357837 -2.029083 -2.576235 0
M  V30 32 N 1.979593 -1.352151 -0.779049 0
M  V30 33 C 3.980046 -0.403549 2.277883 0
M  V30 34 C 5.250656 -0.287806 2.789609 0
M  V30 35 H 7.727603 1.011474 3.848722 0
M  V30 36 H 7.244663 -0.601726 4.486667 0
M  V30 37 H 8.954332 -0.316813 3.995893 0
M  V30 38 H 6.912716 -1.220712 0.064018 0
M  V30 39 H 4.629970 -1.410387 -0.798302 0
M  V30 40 H -0.536193 -1.239790 1.868176 0
M  V30 41 H -1.538405 1.151174 -0.502570 0
M  V30 42 H -2.275378 3.422344 0.178822 0
M  V30 43 H -0.382108 2.859614 3.962143 0
M  V30 44 H 0.317176 0.668126 3.296664 0
M  V30 45 H -2.713010 -0.809907 1.037075 0
M  V30 46 H -4.408724 0.387523 -1.433609 0
M  V30 47 H -6.592265 -0.231115 -2.523987 0
M  V30 48 H -8.395602 -2.408390 -2.833085 0
M  V30 49 H -6.287779 -5.218625 -0.571123 0
M  V30 50 H -4.073281 -3.533399 0.159279 0
M  V30 51 H -0.238784 -1.315100 -3.216236 0
M  V30 52 H 1.316788 -2.127192 -3.113463 0
M  V30 53 H -0.097015 -3.028484 -2.501915 0
M  V30 54 H 2.727066 -1.595326 -1.464873 0
M  V30 55 H 3.181383 -0.148906 2.981272 0
M  V30 56 H 5.427429 0.031220 3.809303 0
M  V30 END ATOM
M  V30 BEGIN BOND
M  V30 1 1 1 2
M  V30 2 1 2 3
M  V30 3 2 3 4
M  V30 4 1 4 5
M  V30 5 2 5 6
M  V30 6 1 6 7
M  V30 7 2 7 8
M  V30 8 1 8 9
M  V30 9 1 9 10
M  V30 10 2 10 11
M  V30 11 1 11 12
M  V30 12 2 12 13
M  V30 13 1 13 14
M  V30 14 1 13 15
M  V30 15 2 15 16
M  V30 16 1 9 17
M  V30 17 1 17 18
M  V30 18 2 18 19
M  V30 19 1 18 20
M  V30 20 1 20 21
M  V30 21 2 21 22
M  V30 22 1 22 23
M  V30 23 2 23 24
M  V30 24 1 24 25
M  V30 25 1 25 26
M  V30 26 2 26 27
M  V30 27 1 27 28
M  V30 28 2 28 29
M  V30 29 2 17 30
M  V30 30 1 30 31
M  V30 31 1 30 32
M  V30 32 1 6 33
M  V30 33 2 33 34
M  V30 34 1 34 3
M  V30 35 1 32 7
M  V30 36 1 16 10
M  V30 37 1 29 21
M  V30 38 1 28 24
M  V30 39 1 1 35
M  V30 40 1 1 36
M  V30 41 1 1 37
M  V30 42 1 4 38
M  V30 43 1 5 39
M  V30 44 1 9 40
M  V30 45 1 11 41
M  V30 46 1 12 42
M  V30 47 1 15 43
M  V30 48 1 16 44
M  V30 49 1 20 45
M  V30 50 1 22 46
M  V30 51 1 23 47
M  V30 52 1 25 48
M  V30 53 1 27 49
M  V30 54 1 29 50
M  V30 55 1 31 51
M  V30 56 1 31 52
M  V30 57 1 31 53
M  V30 58 1 32 54
M  V30 59 1 33 55
M  V30 60 1 34 56
M  V30 END BOND
M  V30 END CTAB
M  END
>  <Dataset>  (7) 
ChEMBL_Kinases

>  <Ligand_Instance>  (7) 
nan

>  <PDB_ID>  (7) 
nan

>  <Standardized_SMILES>  (7) 
COc1ccc(C2=NC(c3ccc(F)cc3)C(C(=O)Nc3ccc4[nH]ncc4c3)=C(C)N2)cc1

>  <Name>  (7) 
nan

>  <Pocket>  (7) 
nan

>  <ATP_Site>  (7) 
nan

>  <Peripheral>  (7) 
nan

>  <Num_H_Atoms_ProtBoundConf>  (7) 
nan

>  <Num_Resolved_Atoms>  (7) 
nan

>  <Num_Not_Resolved_Atoms>  (7) 
nan

$$$$
CHEMBL519113
     RDKit          3D

  0  0  0  0  0  0  0  0  0  0999 V3000
M  V30 BEGIN CTAB
M  V30 COUNTS 44 47 0 0 0
M  V30 BEGIN ATOM
M  V30 1 C -2.864082 -2.554603 2.716311 0
M  V30 2 C -2.633944 -2.157914 1.282684 0 CFG=1
M  V30 3 N -2.466102 -0.728447 1.112983 0
M  V30 4 C -2.231676 -0.021885 -0.112719 0
M  V30 5 C -1.237863 0.454510 -0.974409 0
M  V30 6 N 0.155418 0.257153 -0.693583 0
M  V30 7 C 0.770618 1.266271 0.059840 0
M  V30 8 C 0.051509 2.366589 0.488376 0
M  V30 9 C 0.672633 3.364216 1.236861 0
M  V30 10 N 1.977291 3.278532 1.556519 0
M  V30 11 C 2.708863 2.209691 1.149582 0
M  V30 12 C 4.118477 2.162807 1.521281 0
M  V30 13 C 4.983262 1.167356 1.194310 0
M  V30 14 C 6.241345 1.446499 1.710348 0
M  V30 15 C 6.048760 2.670251 2.358486 0
M  V30 16 O 4.800471 3.045431 2.220886 0
M  V30 17 C 2.100959 1.214019 0.405957 0
M  V30 18 C -2.281108 0.942617 -1.770311 0
M  V30 19 O -1.886590 1.546137 -2.825466 0
M  V30 20 C -3.233647 0.458529 -0.897129 0
M  V30 21 O -4.462275 0.630663 -1.141501 0
M  V30 22 C -1.499337 -2.953785 0.764509 0
M  V30 23 C -0.191436 -2.570711 1.039160 0
M  V30 24 C 0.918798 -3.266925 0.587456 0
M  V30 25 C 0.725249 -4.400238 -0.175067 0
M  V30 26 C -0.572093 -4.773628 -0.443078 0
M  V30 27 C -1.700354 -4.104527 -0.009797 0
M  V30 28 H -1.920873 -2.536932 3.290388 0
M  V30 29 H -3.661680 -1.944061 3.201021 0
M  V30 30 H -3.218367 -3.606463 2.719552 0
M  V30 31 H -3.541464 -2.444040 0.711729 0
M  V30 32 H -2.523229 -0.155360 1.982897 0
M  V30 33 H 0.700817 -0.574337 -1.016694 0
M  V30 34 H -1.012859 2.475610 0.250070 0
M  V30 35 H 0.062726 4.203869 1.546585 0
M  V30 36 H 4.801282 0.264301 0.624376 0
M  V30 37 H 7.145913 0.848772 1.622981 0
M  V30 38 H 6.857295 3.187389 2.884036 0
M  V30 39 H 2.684296 0.380343 0.092152 0
M  V30 40 H -0.071048 -1.680459 1.637725 0
M  V30 41 H 1.925254 -2.950960 0.812998 0
M  V30 42 H 1.562568 -4.980135 -0.552503 0
M  V30 43 H -0.703141 -5.671893 -1.047157 0
M  V30 44 H -2.702747 -4.435070 -0.245058 0
M  V30 END ATOM
M  V30 BEGIN BOND
M  V30 1 1 1 2
M  V30 2 1 2 3
M  V30 3 1 3 4
M  V30 4 2 4 5
M  V30 5 1 5 6
M  V30 6 1 6 7
M  V30 7 2 7 8
M  V30 8 1 8 9
M  V30 9 2 9 10
M  V30 10 1 10 11
M  V30 11 1 11 12
M  V30 12 2 12 13
M  V30 13 1 13 14
M  V30 14 2 14 15
M  V30 15 1 15 16
M  V30 16 2 11 17
M  V30 17 1 5 18
M  V30 18 2 18 19
M  V30 19 1 18 20
M  V30 20 2 20 21
M  V30 21 1 2 22
M  V30 22 2 22 23
M  V30 23 1 23 24
M  V30 24 2 24 25
M  V30 25 1 25 26
M  V30 26 2 26 27
M  V30 27 1 20 4
M  V30 28 1 27 22
M  V30 29 1 17 7
M  V30 30 1 16 12
M  V30 31 1 1 28
M  V30 32 1 1 29
M  V30 33 1 1 30
M  V30 34 1 2 31 CFG=3
M  V30 35 1 3 32
M  V30 36 1 6 33
M  V30 37 1 8 34
M  V30 38 1 9 35
M  V30 39 1 13 36
M  V30 40 1 14 37
M  V30 41 1 15 38
M  V30 42 1 17 39
M  V30 43 1 23 40
M  V30 44 1 24 41
M  V30 45 1 25 42
M  V30 46 1 26 43
M  V30 47 1 27 44
M  V30 END BOND
M  V30 END CTAB
M  END
>  <Dataset>  (8) 
ChEMBL_Kinases

>  <Ligand_Instance>  (8) 
nan

>  <PDB_ID>  (8) 
nan

>  <Standardized_SMILES>  (8) 
C[C@@H](Nc1c(Nc2ccnc(-c3ccco3)c2)c(=O)c1=O)c1ccccc1

>  <Name>  (8) 
nan

>  <Pocket>  (8) 
nan

>  <ATP_Site>  (8) 
nan

>  <Peripheral>  (8) 
nan

>  <Num_H_Atoms_ProtBoundConf>  (8) 
nan

>  <Num_Resolved_Atoms>  (8) 
nan

>  <Num_Not_Resolved_Atoms>  (8) 
nan

$$$$
CHEMBL3703159
     RDKit          3D

  0  0  0  0  0  0  0  0  0  0999 V3000
M  V30 BEGIN CTAB
M  V30 COUNTS 57 61 0 0 0
M  V30 BEGIN ATOM
M  V30 1 N 1.909487 -2.404656 7.048016 0
M  V30 2 C 2.547753 -2.480946 5.767872 0
M  V30 3 O 1.685779 -3.284793 5.343832 0
M  V30 4 C 3.735437 -1.607341 5.796805 0
M  V30 5 C 4.472057 -1.614581 4.486913 0
M  V30 6 C 3.553935 -1.132663 3.425492 0
M  V30 7 C 3.542029 0.247443 3.194435 0
M  V30 8 C 2.732031 0.816971 2.233250 0
M  V30 9 N 1.923476 0.026349 1.488630 0
M  V30 10 C 1.074769 0.394012 0.516365 0
M  V30 11 C 0.758661 1.704977 -0.031967 0
M  V30 12 C 1.018118 2.179538 -1.298489 0
M  V30 13 C 0.666533 3.443709 -1.718900 0
M  V30 14 C 0.025770 4.253768 -0.810132 0
M  V30 15 C -0.279352 3.881618 0.472606 0
M  V30 16 C 0.104574 2.594773 0.825881 0
M  V30 17 C 0.498319 -0.760077 0.078037 0
M  V30 18 C -0.494039 -1.061403 -0.945848 0
M  V30 19 C -1.677090 -1.567936 -0.393304 0
M  V30 20 C -2.766378 -1.927529 -1.189211 0
M  V30 21 C -2.701675 -1.789040 -2.569458 0
M  V30 22 C -3.754897 -2.118965 -3.532451 0
M  V30 23 N -3.737823 -1.217697 -4.668807 0
M  V30 24 C -3.664454 -3.559183 -4.024119 0
M  V30 25 C -4.752133 -3.905271 -3.022026 0
M  V30 26 C -5.102773 -2.431257 -2.976589 0
M  V30 27 C -1.525649 -1.288429 -3.083885 0
M  V30 28 C -0.437861 -0.927164 -2.317409 0
M  V30 29 N 1.024666 -1.787050 0.807354 0
M  V30 30 C 1.921715 -1.284973 1.694110 0
M  V30 31 C 2.716716 -1.894017 2.645538 0
M  V30 32 H 1.091300 -1.919685 7.446514 0
M  V30 33 H 1.462217 -2.362332 7.980705 0
M  V30 34 H 3.422189 -0.540058 5.977070 0
M  V30 35 H 4.403181 -1.953278 6.620835 0
M  V30 36 H 4.774754 -2.655623 4.208460 0
M  V30 37 H 5.343935 -0.953049 4.538851 0
M  V30 38 H 4.174125 0.896732 3.771492 0
M  V30 39 H 2.766333 1.885647 2.100762 0
M  V30 40 H 1.524822 1.489613 -1.950630 0
M  V30 41 H 0.903815 3.743375 -2.726473 0
M  V30 42 H -0.257611 5.253404 -1.127667 0
M  V30 43 H -0.776526 4.540753 1.143816 0
M  V30 44 H -0.131765 2.287677 1.840887 0
M  V30 45 H -1.858131 -1.724471 0.661780 0
M  V30 46 H -3.683337 -2.318345 -0.793728 0
M  V30 47 H -4.496479 -0.525250 -4.639907 0
M  V30 48 H -3.652878 -1.724535 -5.578498 0
M  V30 49 H -2.684671 -4.018866 -3.819111 0
M  V30 50 H -4.026465 -3.698972 -5.061840 0
M  V30 51 H -4.323533 -4.273786 -2.067815 0
M  V30 52 H -5.557331 -4.567593 -3.420210 0
M  V30 53 H -5.348387 -2.069732 -1.968023 0
M  V30 54 H -5.917099 -2.200984 -3.708948 0
M  V30 55 H -1.332991 -1.126186 -4.148297 0
M  V30 56 H 0.495205 -0.538000 -2.655440 0
M  V30 57 H 2.729643 -2.938399 2.823966 0
M  V30 END ATOM
M  V30 BEGIN BOND
M  V30 1 1 1 2
M  V30 2 2 2 3
M  V30 3 1 2 4
M  V30 4 1 4 5
M  V30 5 1 5 6
M  V30 6 1 6 7
M  V30 7 2 7 8
M  V30 8 1 8 9
M  V30 9 1 9 10
M  V30 10 1 10 11
M  V30 11 2 11 12
M  V30 12 1 12 13
M  V30 13 2 13 14
M  V30 14 1 14 15
M  V30 15 2 15 16
M  V30 16 2 10 17
M  V30 17 1 17 18
M  V30 18 2 18 19
M  V30 19 1 19 20
M  V30 20 2 20 21
M  V30 21 1 21 22
M  V30 22 1 22 23
M  V30 23 1 22 24
M  V30 24 1 24 25
M  V30 25 1 25 26
M  V30 26 1 21 27
M  V30 27 2 27 28
M  V30 28 1 17 29
M  V30 29 2 29 30
M  V30 30 1 30 31
M  V30 31 2 31 6
M  V30 32 1 30 9
M  V30 33 1 16 11
M  V30 34 1 28 18
M  V30 35 1 26 22
M  V30 36 1 1 32
M  V30 37 1 1 33
M  V30 38 1 4 34
M  V30 39 1 4 35
M  V30 40 1 5 36
M  V30 41 1 5 37
M  V30 42 1 7 38
M  V30 43 1 8 39
M  V30 44 1 12 40
M  V30 45 1 13 41
M  V30 46 1 14 42
M  V30 47 1 15 43
M  V30 48 1 16 44
M  V30 49 1 19 45
M  V30 50 1 20 46
M  V30 51 1 23 47
M  V30 52 1 23 48
M  V30 53 1 24 49
M  V30 54 1 24 50
M  V30 55 1 25 51
M  V30 56 1 25 52
M  V30 57 1 26 53
M  V30 58 1 26 54
M  V30 59 1 27 55
M  V30 60 1 28 56
M  V30 61 1 31 57
M  V30 END BOND
M  V30 END CTAB
M  END
>  <Dataset>  (9) 
ChEMBL_Kinases

>  <Ligand_Instance>  (9) 
nan

>  <PDB_ID>  (9) 
nan

>  <Standardized_SMILES>  (9) 
NC(=O)CCc1ccn2c(-c3ccccc3)c(-c3ccc(C4(N)CCC4)cc3)nc2c1

>  <Name>  (9) 
nan

>  <Pocket>  (9) 
nan

>  <ATP_Site>  (9) 
nan

>  <Peripheral>  (9) 
nan

>  <Num_H_Atoms_ProtBoundConf>  (9) 
nan

>  <Num_Resolved_Atoms>  (9) 
nan

>  <Num_Not_Resolved_Atoms>  (9) 
nan

$$$$
CHEMBL519238
     RDKit          3D

  0  0  0  0  0  0  0  0  0  0999 V3000
M  V30 BEGIN CTAB
M  V30 COUNTS 53 58 0 0 0
M  V30 BEGIN ATOM
M  V30 1 O 4.476322 1.056864 3.408033 0
M  V30 2 C 3.357420 0.544277 3.621980 0
M  V30 3 N 2.833517 0.115795 4.883854 0
M  V30 4 C 1.536740 -0.405470 4.673897 0
M  V30 5 O 0.938921 -0.823427 5.674817 0
M  V30 6 C 1.187551 -0.330107 3.284231 0
M  V30 7 C 2.284393 0.236571 2.687207 0
M  V30 8 C 2.305917 0.461309 1.322848 0
M  V30 9 C 3.342497 1.063552 0.499325 0
M  V30 10 C 3.735795 0.343634 -0.635514 0
M  V30 11 C 4.689604 0.743509 -1.547700 0
M  V30 12 C 5.295735 1.955449 -1.306069 0
M  V30 13 C 4.950118 2.701715 -0.211776 0
M  V30 14 C 3.994684 2.265943 0.671383 0
M  V30 15 C 1.186636 0.098046 0.563483 0
M  V30 16 C 0.087396 -0.471979 1.173267 0
M  V30 17 C 0.127922 -0.668755 2.534729 0
M  V30 18 C -1.062539 -1.235991 2.878430 0
M  V30 19 C -1.700802 -1.686653 3.994913 0
M  V30 20 C -2.962070 -2.234651 4.022791 0
M  V30 21 O -3.593179 -2.687153 5.170462 0
M  V30 22 C -3.675942 -2.356232 2.839371 0
M  V30 23 C -3.062642 -1.910635 1.686766 0
M  V30 24 C -1.787666 -1.368511 1.733798 0
M  V30 25 N -1.098483 -0.904899 0.675525 0
M  V30 26 C -1.506530 -0.859682 -0.730429 0
M  V30 27 C -1.126112 -2.100425 -1.488136 0
M  V30 28 C -1.602644 -1.926189 -2.921540 0
M  V30 29 N -3.041061 -1.746851 -2.934403 0
M  V30 30 C -3.913758 -2.790510 -3.031924 0
M  V30 31 C -5.217550 -2.355640 -3.022527 0
M  V30 32 N -5.130652 -1.018117 -2.916869 0
M  V30 33 C -3.839721 -0.640749 -2.863331 0
M  V30 34 H 3.418415 0.223774 5.764306 0
M  V30 35 H 3.261535 -0.628139 -0.844713 0
M  V30 36 H 4.930199 0.123800 -2.395662 0
M  V30 37 H 6.054968 2.332795 -1.981223 0
M  V30 38 H 5.403104 3.673310 0.025262 0
M  V30 39 H 3.700018 2.832321 1.527768 0
M  V30 40 H 1.103753 0.233801 -0.526673 0
M  V30 41 H -1.255199 -1.645755 4.958008 0
M  V30 42 H -3.734719 -2.026853 5.911470 0
M  V30 43 H -4.664914 -2.775430 2.794520 0
M  V30 44 H -3.625397 -2.009153 0.770943 0
M  V30 45 H -1.091124 0.057547 -1.148555 0
M  V30 46 H -2.612290 -0.770713 -0.730538 0
M  V30 47 H -0.075807 -2.368487 -1.421748 0
M  V30 48 H -1.704677 -2.959870 -1.091611 0
M  V30 49 H -1.090583 -1.069487 -3.412052 0
M  V30 50 H -1.354148 -2.806494 -3.547769 0
M  V30 51 H -3.662183 -3.846604 -3.109344 0
M  V30 52 H -6.118474 -2.950701 -3.085672 0
M  V30 53 H -3.306228 0.302317 -2.780009 0
M  V30 END ATOM
M  V30 BEGIN BOND
M  V30 1 2 1 2
M  V30 2 1 2 3
M  V30 3 1 3 4
M  V30 4 2 4 5
M  V30 5 1 4 6
M  V30 6 2 6 7
M  V30 7 1 7 8
M  V30 8 1 8 9
M  V30 9 2 9 10
M  V30 10 1 10 11
M  V30 11 2 11 12
M  V30 12 1 12 13
M  V30 13 2 13 14
M  V30 14 2 8 15
M  V30 15 1 15 16
M  V30 16 2 16 17
M  V30 17 1 17 18
M  V30 18 2 18 19
M  V30 19 1 19 20
M  V30 20 1 20 21
M  V30 21 2 20 22
M  V30 22 1 22 23
M  V30 23 2 23 24
M  V30 24 1 24 25
M  V30 25 1 25 26
M  V30 26 1 26 27
M  V30 27 1 27 28
M  V30 28 1 28 29
M  V30 29 1 29 30
M  V30 30 2 30 31
M  V30 31 1 31 32
M  V30 32 2 32 33
M  V30 33 1 7 2
M  V30 34 1 14 9
M  V30 35 1 25 16
M  V30 36 1 33 29
M  V30 37 1 17 6
M  V30 38 1 24 18
M  V30 39 1 3 34
M  V30 40 1 10 35
M  V30 41 1 11 36
M  V30 42 1 12 37
M  V30 43 1 13 38
M  V30 44 1 14 39
M  V30 45 1 15 40
M  V30 46 1 19 41
M  V30 47 1 21 42
M  V30 48 1 22 43
M  V30 49 1 23 44
M  V30 50 1 26 45
M  V30 51 1 26 46
M  V30 52 1 27 47
M  V30 53 1 27 48
M  V30 54 1 28 49
M  V30 55 1 28 50
M  V30 56 1 30 51
M  V30 57 1 31 52
M  V30 58 1 33 53
M  V30 END BOND
M  V30 END CTAB
M  END
>  <Dataset>  (10) 
ChEMBL_Kinases

>  <Ligand_Instance>  (10) 
nan

>  <PDB_ID>  (10) 
nan

>  <Standardized_SMILES>  (10) 
O=C1NC(=O)c2c1c(-c1ccccc1)cc1c2c2cc(O)ccc2n1CCCn1ccnc1

>  <Name>  (10) 
nan

>  <Pocket>  (10) 
nan

>  <ATP_Site>  (10) 
nan

>  <Peripheral>  (10) 
nan

>  <Num_H_Atoms_ProtBoundConf>  (10) 
nan

>  <Num_Resolved_Atoms>  (10) 
nan

>  <Num_Not_Resolved_Atoms>  (10) 
nan

$$$$
CHEMBL519294
     RDKit          3D

  0  0  0  0  0  0  0  0  0  0999 V3000
M  V30 BEGIN CTAB
M  V30 COUNTS 43 46 0 0 0
M  V30 BEGIN ATOM
M  V30 1 N 6.952509 -1.314533 2.483479 0
M  V30 2 C 6.094266 -1.820531 1.912778 0
M  V30 3 C 5.002311 -2.441668 1.180640 0
M  V30 4 C 4.600341 -3.746529 1.414448 0
M  V30 5 C 3.565053 -4.345786 0.731931 0
M  V30 6 C 2.899967 -3.609451 -0.228822 0
M  V30 7 C 3.301542 -2.303435 -0.463709 0
M  V30 8 C 2.535514 -1.577713 -1.509415 0
M  V30 9 C 1.393167 -0.869757 -0.830611 0
M  V30 10 N 1.355627 0.401177 -0.341529 0
M  V30 11 C 0.146397 0.654395 0.191534 0
M  V30 12 C -0.328474 1.878523 0.820135 0
M  V30 13 C -1.306929 2.773459 0.432647 0
M  V30 14 C -1.585488 3.874973 1.209850 0
M  V30 15 C -0.889320 4.107263 2.396007 0
M  V30 16 F -1.241233 5.217829 3.086494 0
M  V30 17 C 0.091013 3.222635 2.797489 0
M  V30 18 C 0.357875 2.124261 2.007933 0
M  V30 19 C -0.601931 -0.528412 0.020333 0
M  V30 20 C -2.005935 -0.727218 0.448041 0
M  V30 21 C -3.030053 -0.125416 -0.245431 0
M  V30 22 C -4.308200 -0.343441 0.213588 0
M  V30 23 N -4.579458 -1.115491 1.302931 0
M  V30 24 C -3.553452 -1.701916 1.975274 0
M  V30 25 N -3.674437 -2.537353 3.132806 0
M  V30 26 N -2.299063 -1.487445 1.524437 0
M  V30 27 N 0.178315 -1.450879 -0.607410 0
M  V30 28 C 4.347831 -1.704261 0.229032 0
M  V30 29 H 5.180805 -4.254966 2.188563 0
M  V30 30 H 3.372205 -5.353124 1.022343 0
M  V30 31 H 2.094504 -4.111104 -0.744483 0
M  V30 32 H 3.193259 -0.794497 -1.941912 0
M  V30 33 H 2.101359 -2.246676 -2.254851 0
M  V30 34 H -1.766128 2.491908 -0.489103 0
M  V30 35 H -2.359646 4.541434 0.864103 0
M  V30 36 H 0.612182 3.442934 3.732577 0
M  V30 37 H 1.153641 1.500650 2.434411 0
M  V30 38 H -2.891110 0.482520 -1.100112 0
M  V30 39 H -5.220539 0.076570 -0.243148 0
M  V30 40 H -4.452536 -2.218121 3.749727 0
M  V30 41 H -3.004464 -3.337581 3.233946 0
M  V30 42 H -0.099281 -2.424772 -0.870503 0
M  V30 43 H 4.642958 -0.677837 0.022353 0
M  V30 END ATOM
M  V30 BEGIN BOND
M  V30 1 3 1 2
M  V30 2 1 2 3
M  V30 3 2 3 4
M  V30 4 1 4 5
M  V30 5 2 5 6
M  V30 6 1 6 7
M  V30 7 1 7 8
M  V30 8 1 8 9
M  V30 9 2 9 10
M  V30 10 1 10 11
M  V30 11 1 11 12
M  V30 12 2 12 13
M  V30 13 1 13 14
M  V30 14 2 14 15
M  V30 15 1 15 16
M  V30 16 1 15 17
M  V30 17 2 17 18
M  V30 18 2 11 19
M  V30 19 1 19 20
M  V30 20 2 20 21
M  V30 21 1 21 22
M  V30 22 2 22 23
M  V30 23 1 23 24
M  V30 24 1 24 25
M  V30 25 2 24 26
M  V30 26 1 19 27
M  V30 27 2 7 28
M  V30 28 1 28 3
M  V30 29 1 27 9
M  V30 30 1 18 12
M  V30 31 1 26 20
M  V30 32 1 4 29
M  V30 33 1 5 30
M  V30 34 1 6 31
M  V30 35 1 8 32
M  V30 36 1 8 33
M  V30 37 1 13 34
M  V30 38 1 14 35
M  V30 39 1 17 36
M  V30 40 1 18 37
M  V30 41 1 21 38
M  V30 42 1 22 39
M  V30 43 1 25 40
M  V30 44 1 25 41
M  V30 45 1 27 42
M  V30 46 1 28 43
M  V30 END BOND
M  V30 END CTAB
M  END
>  <Dataset>  (11) 
ChEMBL_Kinases

>  <Ligand_Instance>  (11) 
nan

>  <PDB_ID>  (11) 
nan

>  <Standardized_SMILES>  (11) 
N#Cc1cccc(Cc2nc(-c3ccc(F)cc3)c(-c3ccnc(N)n3)[nH]2)c1

>  <Name>  (11) 
nan

>  <Pocket>  (11) 
nan

>  <ATP_Site>  (11) 
nan

>  <Peripheral>  (11) 
nan

>  <Num_H_Atoms_ProtBoundConf>  (11) 
nan

>  <Num_Resolved_Atoms>  (11) 
nan

>  <Num_Not_Resolved_Atoms>  (11) 
nan

$$$$
CHEMBL51931
     RDKit          3D

  0  0  0  0  0  0  0  0  0  0999 V3000
M  V30 BEGIN CTAB
M  V30 COUNTS 24 26 0 0 0
M  V30 BEGIN ATOM
M  V30 1 O 2.944593 -0.897043 3.198003 0
M  V30 2 C 2.059309 -0.837164 2.313514 0
M  V30 3 C 1.480507 -2.034699 1.719511 0
M  V30 4 O 1.904381 -3.134880 2.129379 0
M  V30 5 C 0.442066 -1.850085 0.683456 0
M  V30 6 C -0.080168 -3.002347 0.146593 0
M  V30 7 C -1.052278 -2.877046 -0.823884 0
M  V30 8 C -1.461549 -1.605046 -1.216966 0
M  V30 9 C -0.885633 -0.490299 -0.626902 0
M  V30 10 C 0.078819 -0.586908 0.336283 0
M  V30 11 C 0.651765 0.608198 0.924403 0
M  V30 12 C 0.227263 1.845575 0.515656 0
M  V30 13 C 0.766463 2.982347 1.069294 0
M  V30 14 C 1.745623 2.902205 2.047397 0
M  V30 15 C 2.161804 1.639641 2.447502 0
M  V30 16 C 1.616214 0.482893 1.887221 0
M  V30 17 H 0.221694 -3.998821 0.435772 0
M  V30 18 H -1.511800 -3.750716 -1.294493 0
M  V30 19 H -2.235755 -1.568929 -1.990682 0
M  V30 20 H -1.295095 0.417384 -1.024810 0
M  V30 21 H -0.521979 2.047939 -0.230978 0
M  V30 22 H 0.489172 3.986422 0.804784 0
M  V30 23 H 2.183145 3.785558 2.496141 0
M  V30 24 H 2.923577 1.527570 3.207819 0
M  V30 END ATOM
M  V30 BEGIN BOND
M  V30 1 2 1 2
M  V30 2 1 2 3
M  V30 3 2 3 4
M  V30 4 1 3 5
M  V30 5 2 5 6
M  V30 6 1 6 7
M  V30 7 2 7 8
M  V30 8 1 8 9
M  V30 9 2 9 10
M  V30 10 1 10 11
M  V30 11 2 11 12
M  V30 12 1 12 13
M  V30 13 2 13 14
M  V30 14 1 14 15
M  V30 15 2 15 16
M  V30 16 1 16 2
M  V30 17 1 10 5
M  V30 18 1 16 11
M  V30 19 1 6 17
M  V30 20 1 7 18
M  V30 21 1 8 19
M  V30 22 1 9 20
M  V30 23 1 12 21
M  V30 24 1 13 22
M  V30 25 1 14 23
M  V30 26 1 15 24
M  V30 END BOND
M  V30 END CTAB
M  END
>  <Dataset>  (12) 
ChEMBL_Kinases

>  <Ligand_Instance>  (12) 
nan

>  <PDB_ID>  (12) 
nan

>  <Standardized_SMILES>  (12) 
O=C1C(=O)c2ccccc2-c2ccccc21

>  <Name>  (12) 
9,10-PHENANTHRENEQUINONE

>  <Pocket>  (12) 
nan

>  <ATP_Site>  (12) 
nan

>  <Peripheral>  (12) 
nan

>  <Num_H_Atoms_ProtBoundConf>  (12) 
nan

>  <Num_Resolved_Atoms>  (12) 
nan

>  <Num_Not_Resolved_Atoms>  (12) 
nan

$$$$
CHEMBL3732944
     RDKit          3D

  0  0  0  0  0  0  0  0  0  0999 V3000
M  V30 BEGIN CTAB
M  V30 COUNTS 52 56 0 0 0
M  V30 BEGIN ATOM
M  V30 1 C 1.726970 -3.125004 6.006571 0
M  V30 2 C 1.282284 -2.543801 4.835393 0
M  V30 3 C 0.034610 -2.853398 4.328485 0
M  V30 4 C -0.298777 -2.175462 3.103533 0
M  V30 5 N 0.417313 -1.295204 2.388188 0
M  V30 6 C 0.015015 -0.714843 1.250388 0
M  V30 7 N 1.044450 0.172157 0.843895 0
M  V30 8 C 0.983702 1.616958 0.897072 0
M  V30 9 C 1.652017 2.347278 -0.197754 0
M  V30 10 C 2.707109 1.635324 -0.964721 0
M  V30 11 N 3.772263 1.063502 -0.227934 0
M  V30 12 C 3.483352 0.024131 0.683113 0
M  V30 13 C 2.168203 -0.625656 0.385816 0
M  V30 14 C -1.207518 -0.981071 0.697929 0
M  V30 15 C -1.719932 -0.458856 -0.449899 0
M  V30 16 C -3.017518 -0.938497 -0.754771 0
M  V30 17 S -3.439187 -2.078413 0.564307 0
M  V30 18 C -1.898919 -1.880454 1.460691 0
M  V30 19 N -1.503976 -2.451937 2.581396 0
M  V30 20 C -3.943234 -0.645838 -1.899941 0
M  V30 21 C -3.346779 -1.207447 -3.187403 0
M  V30 22 C -1.824550 -0.985492 -3.153195 0
M  V30 23 C -1.557264 0.432186 -2.748499 0
M  V30 24 C -1.021918 0.500792 -1.335374 0
M  V30 25 C -0.791181 -3.746780 4.979086 0
M  V30 26 C -0.299396 -4.292454 6.135250 0
M  V30 27 N 0.914406 -3.994275 6.632710 0
M  V30 28 H 2.705575 -2.889588 6.414787 0
M  V30 29 H 1.972765 -1.850142 4.367807 0
M  V30 30 H 1.517384 1.909052 1.854120 0
M  V30 31 H -0.067923 1.969664 1.048837 0
M  V30 32 H 0.887311 2.692136 -0.956781 0
M  V30 33 H 2.116404 3.305922 0.165494 0
M  V30 34 H 3.178986 2.422239 -1.634161 0
M  V30 35 H 2.328178 0.887973 -1.701843 0
M  V30 36 H 4.508272 1.732797 0.077596 0
M  V30 37 H 3.477325 0.328722 1.749817 0
M  V30 38 H 4.267473 -0.778811 0.546134 0
M  V30 39 H 2.214358 -1.632140 0.897421 0
M  V30 40 H 2.099864 -0.824384 -0.692336 0
M  V30 41 H -4.859051 -1.213669 -1.695796 0
M  V30 42 H -4.123227 0.426185 -1.950245 0
M  V30 43 H -3.785576 -0.683630 -4.043123 0
M  V30 44 H -3.513793 -2.289641 -3.189976 0
M  V30 45 H -1.423804 -1.742535 -2.473972 0
M  V30 46 H -1.445860 -1.215377 -4.164350 0
M  V30 47 H -2.441459 1.080696 -2.890460 0
M  V30 48 H -0.783610 0.851284 -3.441357 0
M  V30 49 H -1.189481 1.544259 -1.002327 0
M  V30 50 H 0.059164 0.235209 -1.389037 0
M  V30 51 H -1.758617 -3.962225 4.550801 0
M  V30 52 H -0.907862 -4.997987 6.682308 0
M  V30 END ATOM
M  V30 BEGIN BOND
M  V30 1 2 1 2
M  V30 2 1 2 3
M  V30 3 1 3 4
M  V30 4 2 4 5
M  V30 5 1 5 6
M  V30 6 1 6 7
M  V30 7 1 7 8
M  V30 8 1 8 9
M  V30 9 1 9 10
M  V30 10 1 10 11
M  V30 11 1 11 12
M  V30 12 1 12 13
M  V30 13 2 6 14
M  V30 14 1 14 15
M  V30 15 2 15 16
M  V30 16 1 16 17
M  V30 17 1 17 18
M  V30 18 2 18 19
M  V30 19 1 16 20
M  V30 20 1 20 21
M  V30 21 1 21 22
M  V30 22 1 22 23
M  V30 23 1 23 24
M  V30 24 2 3 25
M  V30 25 1 25 26
M  V30 26 2 26 27
M  V30 27 1 27 1
M  V30 28 1 19 4
M  V30 29 1 13 7
M  V30 30 1 18 14
M  V30 31 1 24 15
M  V30 32 1 1 28
M  V30 33 1 2 29
M  V30 34 1 8 30
M  V30 35 1 8 31
M  V30 36 1 9 32
M  V30 37 1 9 33
M  V30 38 1 10 34
M  V30 39 1 10 35
M  V30 40 1 11 36
M  V30 41 1 12 37
M  V30 42 1 12 38
M  V30 43 1 13 39
M  V30 44 1 13 40
M  V30 45 1 20 41
M  V30 46 1 20 42
M  V30 47 1 21 43
M  V30 48 1 21 44
M  V30 49 1 22 45
M  V30 50 1 22 46
M  V30 51 1 23 47
M  V30 52 1 23 48
M  V30 53 1 24 49
M  V30 54 1 24 50
M  V30 55 1 25 51
M  V30 56 1 26 52
M  V30 END BOND
M  V30 END CTAB
M  END
>  <Dataset>  (13) 
ChEMBL_Kinases

>  <Ligand_Instance>  (13) 
nan

>  <PDB_ID>  (13) 
nan

>  <Standardized_SMILES>  (13) 
c1cc(-c2nc(N3CCCNCC3)c3c4c(sc3n2)CCCCC4)ccn1

>  <Name>  (13) 
nan

>  <Pocket>  (13) 
nan

>  <ATP_Site>  (13) 
nan

>  <Peripheral>  (13) 
nan

>  <Num_H_Atoms_ProtBoundConf>  (13) 
nan

>  <Num_Resolved_Atoms>  (13) 
nan

>  <Num_Not_Resolved_Atoms>  (13) 
nan

$$$$
CHEMBL519360
     RDKit          3D

  0  0  0  0  0  0  0  0  0  0999 V3000
M  V30 BEGIN CTAB
M  V30 COUNTS 48 51 0 0 0
M  V30 BEGIN ATOM
M  V30 1 C -1.017569 -4.876356 0.904869 0
M  V30 2 C -2.138323 -3.934610 0.904940 0
M  V30 3 O -2.939024 -4.056434 1.867653 0
M  V30 4 N -2.340482 -2.941501 -0.092391 0
M  V30 5 C -1.515162 -2.668876 -1.262533 0
M  V30 6 C -1.534036 -1.227871 -1.649831 0
M  V30 7 C -1.803654 -0.272714 -0.515811 0
M  V30 8 O -0.637602 -0.171687 0.234348 0
M  V30 9 C 0.167320 0.918545 0.409566 0
M  V30 10 C 0.057940 2.199322 -0.094150 0
M  V30 11 C 0.988430 3.172347 0.204849 0
M  V30 12 C 0.790572 4.422546 -0.348064 0
M  V30 13 N 1.679868 5.414864 -0.083224 0
M  V30 14 C 2.754393 5.179088 0.718635 0
M  V30 15 C 2.976547 3.924118 1.289498 0
M  V30 16 C 2.080368 2.911171 1.026944 0
M  V30 17 C 2.192279 1.632574 1.531641 0
M  V30 18 C 1.261881 0.645321 1.237480 0
M  V30 19 C 1.578347 -0.644946 1.883806 0
M  V30 20 C 1.498310 -1.848489 1.178348 0
M  V30 21 C 1.789880 -3.062758 1.764636 0
M  V30 22 C 2.170271 -3.070707 3.087959 0
M  V30 23 C 2.257196 -1.896772 3.806929 0
M  V30 24 C 1.962014 -0.670900 3.212198 0
M  V30 25 C -3.027250 -0.623301 0.293938 0
M  V30 26 C -3.485876 -2.056757 0.001575 0
M  V30 27 H -1.445697 -5.912033 0.819369 0
M  V30 28 H -0.375946 -4.735135 0.024952 0
M  V30 29 H -0.482654 -4.862007 1.876173 0
M  V30 30 H -1.939102 -3.261429 -2.110529 0
M  V30 31 H -0.474803 -3.072836 -1.152206 0
M  V30 32 H -0.496820 -0.970760 -2.002276 0
M  V30 33 H -2.244703 -1.061740 -2.504086 0
M  V30 34 H -2.015948 0.710679 -0.987696 0
M  V30 35 H -0.810672 2.334099 -0.723578 0
M  V30 36 H -0.073785 4.623109 -0.996706 0
M  V30 37 H 3.482475 5.960529 0.945860 0
M  V30 38 H 3.816385 3.716242 1.924185 0
M  V30 39 H 3.058037 1.486281 2.163085 0
M  V30 40 H 1.193645 -1.802706 0.132504 0
M  V30 41 H 1.729564 -3.995079 1.224091 0
M  V30 42 H 2.396032 -4.045752 3.529723 0
M  V30 43 H 2.558744 -1.933282 4.845240 0
M  V30 44 H 2.037387 0.242085 3.798429 0
M  V30 45 H -2.878370 -0.500956 1.374429 0
M  V30 46 H -3.910532 0.010719 0.015248 0
M  V30 47 H -4.157430 -2.405156 0.788177 0
M  V30 48 H -3.988419 -2.087303 -1.003471 0
M  V30 END ATOM
M  V30 BEGIN BOND
M  V30 1 1 1 2
M  V30 2 2 2 3
M  V30 3 1 2 4
M  V30 4 1 4 5
M  V30 5 1 5 6
M  V30 6 1 6 7
M  V30 7 1 7 8
M  V30 8 1 8 9
M  V30 9 2 9 10
M  V30 10 1 10 11
M  V30 11 2 11 12
M  V30 12 1 12 13
M  V30 13 2 13 14
M  V30 14 1 14 15
M  V30 15 2 15 16
M  V30 16 1 16 17
M  V30 17 2 17 18
M  V30 18 1 18 19
M  V30 19 2 19 20
M  V30 20 1 20 21
M  V30 21 2 21 22
M  V30 22 1 22 23
M  V30 23 2 23 24
M  V30 24 1 7 25
M  V30 25 1 25 26
M  V30 26 1 26 4
M  V30 27 1 18 9
M  V30 28 1 24 19
M  V30 29 1 16 11
M  V30 30 1 1 27
M  V30 31 1 1 28
M  V30 32 1 1 29
M  V30 33 1 5 30
M  V30 34 1 5 31
M  V30 35 1 6 32
M  V30 36 1 6 33
M  V30 37 1 7 34
M  V30 38 1 10 35
M  V30 39 1 12 36
M  V30 40 1 14 37
M  V30 41 1 15 38
M  V30 42 1 17 39
M  V30 43 1 20 40
M  V30 44 1 21 41
M  V30 45 1 22 42
M  V30 46 1 23 43
M  V30 47 1 24 44
M  V30 48 1 25 45
M  V30 49 1 25 46
M  V30 50 1 26 47
M  V30 51 1 26 48
M  V30 END BOND
M  V30 END CTAB
M  END
>  <Dataset>  (14) 
ChEMBL_Kinases

>  <Ligand_Instance>  (14) 
nan

>  <PDB_ID>  (14) 
nan

>  <Standardized_SMILES>  (14) 
CC(=O)N1CCC(Oc2cc3cnccc3cc2-c2ccccc2)CC1

>  <Name>  (14) 
nan

>  <Pocket>  (14) 
nan

>  <ATP_Site>  (14) 
nan

>  <Peripheral>  (14) 
nan

>  <Num_H_Atoms_ProtBoundConf>  (14) 
nan

>  <Num_Resolved_Atoms>  (14) 
nan

>  <Num_Not_Resolved_Atoms>  (14) 
nan

$$$$
CHEMBL519398
     RDKit          3D

  0  0  0  0  0  0  0  0  0  0999 V3000
M  V30 BEGIN CTAB
M  V30 COUNTS 47 49 0 0 0
M  V30 BEGIN ATOM
M  V30 1 O 2.182557 -4.452202 4.135283 0
M  V30 2 C 1.964755 -3.382909 3.461648 0
M  V30 3 O 2.947664 -2.417425 3.294125 0
M  V30 4 C 2.323060 -1.320769 2.665951 0
M  V30 5 C 2.743576 -0.066086 3.408229 0
M  V30 6 O 4.135157 0.097746 3.362526 0
M  V30 7 C 2.682488 -1.211676 1.185078 0
M  V30 8 O 1.994824 -0.084975 0.702936 0
M  V30 9 C 2.009004 0.397417 -0.578799 0
M  V30 10 O 2.701207 -0.213960 -1.436466 0
M  V30 11 C 1.230762 1.588340 -0.900803 0
M  V30 12 C 0.492494 2.252268 0.054464 0
M  V30 13 C -0.263980 3.375953 -0.179657 0
M  V30 14 C -0.250653 3.833060 -1.480980 0
M  V30 15 N -1.022775 4.994737 -1.755484 0 CHG=1 VAL=4
M  V30 16 O -1.696446 5.599802 -0.899739 0
M  V30 17 O -1.040343 5.504005 -3.054517 0 CHG=-1 VAL=1
M  V30 18 C 0.447726 3.258086 -2.529826 0
M  V30 19 C 1.176514 2.127252 -2.171473 0
M  V30 20 C 0.825665 -1.509474 2.792472 0
M  V30 21 C 0.726733 -2.997502 2.785582 0
M  V30 22 C -0.164397 -3.860039 2.324681 0
M  V30 23 C -1.342091 -3.287666 1.678357 0
M  V30 24 C -1.697643 -3.995390 0.529418 0
M  V30 25 C -2.780663 -3.652452 -0.253274 0
M  V30 26 C -3.531975 -2.561695 0.131206 0
M  V30 27 N -4.655802 -2.175523 -0.651409 0 CHG=1 VAL=4
M  V30 28 O -4.987123 -2.785216 -1.669794 0
M  V30 29 O -5.391753 -1.081335 -0.247125 0 CHG=-1 VAL=1
M  V30 30 C -3.191391 -1.853769 1.264943 0
M  V30 31 C -2.103451 -2.199845 2.049856 0
M  V30 32 H 2.496821 -0.149978 4.486155 0
M  V30 33 H 2.311177 0.831960 2.925550 0
M  V30 34 H 4.463412 0.607394 4.150660 0
M  V30 35 H 2.337145 -2.157741 0.733442 0
M  V30 36 H 3.770026 -1.155010 1.084002 0
M  V30 37 H 0.490218 1.878661 1.087189 0
M  V30 38 H -0.826285 3.873195 0.571796 0
M  V30 39 H 0.447710 3.623125 -3.529456 0
M  V30 40 H 1.739088 1.647658 -2.972293 0
M  V30 41 H 0.405519 -1.061204 3.691309 0
M  V30 42 H 0.287173 -1.117015 1.910285 0
M  V30 43 H -0.019850 -4.925295 2.428087 0
M  V30 44 H -1.169076 -4.875742 0.135402 0
M  V30 45 H -3.077974 -4.180360 -1.143981 0
M  V30 46 H -3.764528 -0.983021 1.601529 0
M  V30 47 H -1.764191 -1.719657 2.944512 0
M  V30 END ATOM
M  V30 BEGIN BOND
M  V30 1 2 1 2
M  V30 2 1 2 3
M  V30 3 1 3 4
M  V30 4 1 4 5
M  V30 5 1 5 6
M  V30 6 1 4 7
M  V30 7 1 7 8
M  V30 8 1 8 9
M  V30 9 2 9 10
M  V30 10 1 9 11
M  V30 11 2 11 12
M  V30 12 1 12 13
M  V30 13 2 13 14
M  V30 14 1 14 15
M  V30 15 2 15 16
M  V30 16 1 15 17
M  V30 17 1 14 18
M  V30 18 2 18 19
M  V30 19 1 4 20
M  V30 20 1 20 21
M  V30 21 2 21 22
M  V30 22 1 22 23
M  V30 23 2 23 24
M  V30 24 1 24 25
M  V30 25 2 25 26
M  V30 26 1 26 27
M  V30 27 2 27 28
M  V30 28 1 27 29
M  V30 29 1 26 30
M  V30 30 2 30 31
M  V30 31 1 21 2
M  V30 32 1 31 23
M  V30 33 1 19 11
M  V30 34 1 5 32
M  V30 35 1 5 33
M  V30 36 1 6 34
M  V30 37 1 7 35
M  V30 38 1 7 36
M  V30 39 1 12 37
M  V30 40 1 13 38
M  V30 41 1 18 39
M  V30 42 1 19 40
M  V30 43 1 20 41
M  V30 44 1 20 42
M  V30 45 1 22 43
M  V30 46 1 24 44
M  V30 47 1 25 45
M  V30 48 1 30 46
M  V30 49 1 31 47
M  V30 END BOND
M  V30 END CTAB
M  END
>  <Dataset>  (15) 
ChEMBL_Kinases

>  <Ligand_Instance>  (15) 
nan

>  <PDB_ID>  (15) 
nan

>  <Standardized_SMILES>  (15) 
O=C1OC(CO)(COC(=O)c2ccc([N+](=O)[O-])cc2)C/C1=C\c1ccc([N+](=O)[O-])cc1

>  <Name>  (15) 
nan

>  <Pocket>  (15) 
nan

>  <ATP_Site>  (15) 
nan

>  <Peripheral>  (15) 
nan

>  <Num_H_Atoms_ProtBoundConf>  (15) 
nan

>  <Num_Resolved_Atoms>  (15) 
nan

>  <Num_Not_Resolved_Atoms>  (15) 
nan

$$$$
CHEMBL519620
     RDKit          3D

  0  0  0  0  0  0  0  0  0  0999 V3000
M  V30 BEGIN CTAB
M  V30 COUNTS 53 57 0 0 0
M  V30 BEGIN ATOM
M  V30 1 N 2.568923 -5.181585 -0.274378 0
M  V30 2 C 3.321541 -4.617173 0.795838 0
M  V30 3 O 3.728454 -5.395995 1.678574 0
M  V30 4 C 3.598739 -3.189491 0.847707 0
M  V30 5 C 4.330513 -2.669549 1.897744 0
M  V30 6 C 4.651973 -1.328706 2.046374 0
M  V30 7 C 4.213651 -0.445664 1.081799 0
M  V30 8 C 3.480498 -0.967964 0.030270 0
M  V30 9 C 3.049511 0.072905 -0.966011 0
M  V30 10 C 1.719509 0.555754 -0.490518 0
M  V30 11 N 1.506419 1.561645 0.382599 0
M  V30 12 C 0.161537 1.709705 0.568262 0
M  V30 13 C -0.612221 2.633080 1.393790 0
M  V30 14 C -0.420571 3.974680 1.100657 0
M  V30 15 C -1.089836 4.953440 1.803820 0
M  V30 16 C -1.947381 4.542704 2.798920 0
M  V30 17 F -2.615154 5.493719 3.502345 0
M  V30 18 C -2.178861 3.212734 3.136487 0
M  V30 19 C -1.479824 2.251455 2.398654 0
M  V30 20 C -0.478377 0.773872 -0.207651 0
M  V30 21 C -1.882358 0.443936 -0.428337 0
M  V30 22 C -2.825780 1.272827 -0.954852 0
M  V30 23 C -4.145793 0.836470 -1.118731 0
M  V30 24 N -4.456919 -0.423110 -0.742176 0
M  V30 25 C -3.531049 -1.241190 -0.223804 0
M  V30 26 N -3.847042 -2.583356 0.179719 0
M  V30 27 C -2.826034 -3.477079 0.747277 0
M  V30 28 C -3.205601 -4.858341 1.142759 0
M  V30 29 C -2.376675 -4.612408 -0.095660 0
M  V30 30 N -2.267485 -0.805646 -0.073337 0
M  V30 31 N 0.509137 0.085611 -0.841610 0
M  V30 32 C 3.174478 -2.305583 -0.094130 0
M  V30 33 H 2.670028 -5.674755 -1.189775 0
M  V30 34 H 1.596858 -4.977729 0.080536 0
M  V30 35 H 4.676797 -3.381016 2.663006 0
M  V30 36 H 5.241326 -1.006481 2.918888 0
M  V30 37 H 4.456114 0.612549 1.179363 0
M  V30 38 H 3.735816 0.914387 -1.023373 0
M  V30 39 H 2.882013 -0.403387 -1.967898 0
M  V30 40 H 0.262388 4.303215 0.308437 0
M  V30 41 H -0.963404 6.017374 1.600448 0
M  V30 42 H -2.855637 2.911059 3.920361 0
M  V30 43 H -1.583330 1.199648 2.575441 0
M  V30 44 H -2.497553 2.255902 -1.228339 0
M  V30 45 H -4.828171 1.537927 -1.536395 0
M  V30 46 H -4.838484 -2.926321 0.061682 0
M  V30 47 H -2.078708 -2.954656 1.364202 0
M  V30 48 H -2.731486 -5.333302 2.018606 0
M  V30 49 H -4.210140 -5.263238 0.917922 0
M  V30 50 H -2.832509 -4.755012 -1.103000 0
M  V30 51 H -1.348263 -5.015861 -0.052184 0
M  V30 52 H 0.407550 -0.706867 -1.517924 0
M  V30 53 H 2.596935 -2.639112 -0.944800 0
M  V30 END ATOM
M  V30 BEGIN BOND
M  V30 1 1 1 2
M  V30 2 2 2 3
M  V30 3 1 2 4
M  V30 4 2 4 5
M  V30 5 1 5 6
M  V30 6 2 6 7
M  V30 7 1 7 8
M  V30 8 1 8 9
M  V30 9 1 9 10
M  V30 10 2 10 11
M  V30 11 1 11 12
M  V30 12 1 12 13
M  V30 13 2 13 14
M  V30 14 1 14 15
M  V30 15 2 15 16
M  V30 16 1 16 17
M  V30 17 1 16 18
M  V30 18 2 18 19
M  V30 19 2 12 20
M  V30 20 1 20 21
M  V30 21 2 21 22
M  V30 22 1 22 23
M  V30 23 2 23 24
M  V30 24 1 24 25
M  V30 25 1 25 26
M  V30 26 1 26 27
M  V30 27 1 27 28
M  V30 28 1 28 29
M  V30 29 2 25 30
M  V30 30 1 20 31
M  V30 31 2 8 32
M  V30 32 1 32 4
M  V30 33 1 31 10
M  V30 34 1 19 13
M  V30 35 1 30 21
M  V30 36 1 29 27
M  V30 37 1 1 33
M  V30 38 1 1 34
M  V30 39 1 5 35
M  V30 40 1 6 36
M  V30 41 1 7 37
M  V30 42 1 9 38
M  V30 43 1 9 39
M  V30 44 1 14 40
M  V30 45 1 15 41
M  V30 46 1 18 42
M  V30 47 1 19 43
M  V30 48 1 22 44
M  V30 49 1 23 45
M  V30 50 1 26 46
M  V30 51 1 27 47
M  V30 52 1 28 48
M  V30 53 1 28 49
M  V30 54 1 29 50
M  V30 55 1 29 51
M  V30 56 1 31 52
M  V30 57 1 32 53
M  V30 END BOND
M  V30 END CTAB
M  END
>  <Dataset>  (16) 
ChEMBL_Kinases

>  <Ligand_Instance>  (16) 
nan

>  <PDB_ID>  (16) 
nan

>  <Standardized_SMILES>  (16) 
NC(=O)c1cccc(Cc2nc(-c3ccc(F)cc3)c(-c3ccnc(NC4CC4)n3)[nH]2)c1

>  <Name>  (16) 
nan

>  <Pocket>  (16) 
nan

>  <ATP_Site>  (16) 
nan

>  <Peripheral>  (16) 
nan

>  <Num_H_Atoms_ProtBoundConf>  (16) 
nan

>  <Num_Resolved_Atoms>  (16) 
nan

>  <Num_Not_Resolved_Atoms>  (16) 
nan

$$$$
CHEMBL519680
     RDKit          3D

  0  0  0  0  0  0  0  0  0  0999 V3000
M  V30 BEGIN CTAB
M  V30 COUNTS 52 56 0 0 0
M  V30 BEGIN ATOM
M  V30 1 C 0.076122 -3.532115 2.750329 0
M  V30 2 C -0.508360 -2.814472 1.614328 0
M  V30 3 C 0.021436 -1.759182 0.984460 0
M  V30 4 C 1.329268 -1.302394 1.508211 0
M  V30 5 O 1.863963 -1.870273 2.478936 0
M  V30 6 N 2.045031 -0.213148 0.948287 0
M  V30 7 C 3.284897 0.375941 1.290773 0
M  V30 8 C 4.097255 -0.004736 2.330911 0
M  V30 9 C 5.307929 0.574976 2.650934 0
M  V30 10 C 5.731472 1.619270 1.861147 0
M  V30 11 N 6.822773 2.405991 1.865091 0
M  V30 12 N 6.751789 3.293410 0.857834 0
M  V30 13 C 5.586943 3.078034 0.183880 0
M  V30 14 C 4.946555 2.030732 0.809597 0
M  V30 15 C 3.727214 1.422743 0.512977 0
M  V30 16 C -0.560695 -1.009759 -0.122836 0
M  V30 17 C -0.966337 0.385786 0.343100 0
M  V30 18 C -0.800317 1.079473 1.542061 0
M  V30 19 C -1.294113 2.349790 1.628201 0
M  V30 20 C -1.947876 2.991128 0.602952 0
M  V30 21 F -2.374396 4.245021 0.855503 0
M  V30 22 C -2.116931 2.310424 -0.589346 0
M  V30 23 C -1.625907 1.027788 -0.696387 0
M  V30 24 N -1.781635 -1.653433 -0.631014 0
M  V30 25 C -2.353544 -2.655621 -0.107583 0
M  V30 26 C -3.572447 -3.183612 -0.725156 0
M  V30 27 C -4.237240 -4.253335 -0.220017 0
M  V30 28 C -5.380967 -4.713055 -0.840923 0
M  V30 29 C -5.858985 -4.093394 -1.976389 0
M  V30 30 C -5.218749 -2.994356 -2.536469 0
M  V30 31 C -4.067338 -2.583574 -1.855824 0
M  V30 32 N -1.747826 -3.260705 1.020438 0
M  V30 33 H -0.614641 -4.391278 2.997133 0
M  V30 34 H 0.161726 -2.905315 3.663305 0
M  V30 35 H 1.048236 -4.042305 2.511441 0
M  V30 36 H 1.522350 0.203232 0.120644 0
M  V30 37 H 3.805767 -0.815317 2.972966 0
M  V30 38 H 5.906450 0.228056 3.488493 0
M  V30 39 H 7.611997 2.325104 2.564201 0
M  V30 40 H 5.233089 3.632323 -0.685496 0
M  V30 41 H 3.170158 1.804696 -0.327492 0
M  V30 42 H 0.140882 -0.887147 -0.954196 0
M  V30 43 H -0.284618 0.453026 2.243526 0
M  V30 44 H -1.103258 2.777060 2.605359 0
M  V30 45 H -2.638722 2.870547 -1.352675 0
M  V30 46 H -1.842954 0.639049 -1.695614 0
M  V30 47 H -3.917822 -4.778806 0.661761 0
M  V30 48 H -5.923606 -5.576772 -0.438106 0
M  V30 49 H -6.761718 -4.455638 -2.469544 0
M  V30 50 H -5.558605 -2.478018 -3.423341 0
M  V30 51 H -3.570149 -1.721542 -2.299005 0
M  V30 52 H -2.199205 -4.070841 1.462322 0
M  V30 END ATOM
M  V30 BEGIN BOND
M  V30 1 1 1 2
M  V30 2 2 2 3
M  V30 3 1 3 4
M  V30 4 2 4 5
M  V30 5 1 4 6
M  V30 6 1 6 7
M  V30 7 2 7 8
M  V30 8 1 8 9
M  V30 9 2 9 10
M  V30 10 1 10 11
M  V30 11 1 11 12
M  V30 12 2 12 13
M  V30 13 1 13 14
M  V30 14 2 14 15
M  V30 15 1 3 16
M  V30 16 1 16 17
M  V30 17 2 17 18
M  V30 18 1 18 19
M  V30 19 2 19 20
M  V30 20 1 20 21
M  V30 21 1 20 22
M  V30 22 2 22 23
M  V30 23 1 16 24
M  V30 24 2 24 25
M  V30 25 1 25 26
M  V30 26 2 26 27
M  V30 27 1 27 28
M  V30 28 2 28 29
M  V30 29 1 29 30
M  V30 30 2 30 31
M  V30 31 1 25 32
M  V30 32 1 32 2
M  V30 33 1 15 7
M  V30 34 1 23 17
M  V30 35 1 31 26
M  V30 36 1 14 10
M  V30 37 1 1 33
M  V30 38 1 1 34
M  V30 39 1 1 35
M  V30 40 1 6 36
M  V30 41 1 8 37
M  V30 42 1 9 38
M  V30 43 1 11 39
M  V30 44 1 13 40
M  V30 45 1 15 41
M  V30 46 1 16 42
M  V30 47 1 18 43
M  V30 48 1 19 44
M  V30 49 1 22 45
M  V30 50 1 23 46
M  V30 51 1 27 47
M  V30 52 1 28 48
M  V30 53 1 29 49
M  V30 54 1 30 50
M  V30 55 1 31 51
M  V30 56 1 32 52
M  V30 END BOND
M  V30 END CTAB
M  END
>  <Dataset>  (17) 
ChEMBL_Kinases

>  <Ligand_Instance>  (17) 
nan

>  <PDB_ID>  (17) 
nan

>  <Standardized_SMILES>  (17) 
CC1=C(C(=O)Nc2ccc3[nH]ncc3c2)C(c2ccc(F)cc2)N=C(c2ccccc2)N1

>  <Name>  (17) 
nan

>  <Pocket>  (17) 
nan

>  <ATP_Site>  (17) 
nan

>  <Peripheral>  (17) 
nan

>  <Num_H_Atoms_ProtBoundConf>  (17) 
nan

>  <Num_Resolved_Atoms>  (17) 
nan

>  <Num_Not_Resolved_Atoms>  (17) 
nan

$$$$
CHEMBL519693
     RDKit          3D

  0  0  0  0  0  0  0  0  0  0999 V3000
M  V30 BEGIN CTAB
M  V30 COUNTS 48 51 0 0 0
M  V30 BEGIN ATOM
M  V30 1 N 2.827760 -5.573815 1.681602 0
M  V30 2 S 2.342648 -5.260534 0.069093 0
M  V30 3 O 1.261119 -6.221925 -0.308873 0
M  V30 4 O 3.558938 -5.374181 -0.820418 0
M  V30 5 C 1.758973 -3.613754 -0.080473 0
M  V30 6 C 2.642533 -2.577256 -0.403253 0
M  V30 7 C 2.196133 -1.269717 -0.524854 0
M  V30 8 C 0.845364 -1.013052 -0.317615 0
M  V30 9 C 0.260360 0.341918 -0.423473 0
M  V30 10 C 0.735087 0.978088 -1.579121 0
M  V30 11 C 0.327241 2.256603 -1.896999 0
M  V30 12 C 0.743470 2.955777 -3.011201 0
M  V30 13 C 0.252610 4.240268 -3.210598 0
M  V30 14 N -0.612937 4.812787 -2.347766 0
M  V30 15 C -1.039344 4.145748 -1.241701 0
M  V30 16 C -0.559002 2.877288 -1.038303 0
M  V30 17 C -1.022604 2.256107 0.090273 0
M  V30 18 C -0.640998 0.983257 0.442821 0
M  V30 19 O -0.907163 0.103759 1.466780 0
M  V30 20 C -1.792623 0.483769 2.489109 0
M  V30 21 C -0.991174 0.534542 3.801211 0
M  V30 22 C -0.229044 -0.766355 3.901835 0
M  V30 23 N -0.892349 -1.869364 3.322634 0
M  V30 24 C -2.295381 -1.811587 3.166587 0
M  V30 25 C -2.885224 -0.526615 2.709408 0
M  V30 26 C -0.035298 -2.027341 0.001122 0
M  V30 27 C 0.399257 -3.354230 0.127901 0
M  V30 28 H 3.592768 -4.989381 2.025388 0
M  V30 29 H 2.042182 -5.747557 2.327268 0
M  V30 30 H 3.696241 -2.761648 -0.567341 0
M  V30 31 H 2.831632 -0.434266 -0.771023 0
M  V30 32 H 1.424279 0.563498 -2.295669 0
M  V30 33 H 1.437316 2.460269 -3.677080 0
M  V30 34 H 0.617863 4.749056 -4.113161 0
M  V30 35 H -1.736235 4.662269 -0.586627 0
M  V30 36 H -1.703465 2.663530 0.800212 0
M  V30 37 H -2.220474 1.508061 2.318858 0
M  V30 38 H -0.364011 1.432582 3.851597 0
M  V30 39 H -1.756274 0.625312 4.602394 0
M  V30 40 H 0.710630 -0.597816 3.298399 0
M  V30 41 H 0.061024 -0.910416 4.954593 0
M  V30 42 H -0.359753 -2.571818 2.823367 0
M  V30 43 H -2.592859 -2.582306 2.393141 0
M  V30 44 H -2.776658 -2.156974 4.118339 0
M  V30 45 H -3.508513 -0.109675 3.552375 0
M  V30 46 H -3.552662 -0.621400 1.826680 0
M  V30 47 H -1.103969 -1.871113 0.172415 0
M  V30 48 H -0.243389 -4.187602 0.374877 0
M  V30 END ATOM
M  V30 BEGIN BOND
M  V30 1 1 1 2
M  V30 2 2 2 3
M  V30 3 2 2 4
M  V30 4 1 2 5
M  V30 5 2 5 6
M  V30 6 1 6 7
M  V30 7 2 7 8
M  V30 8 1 8 9
M  V30 9 2 9 10
M  V30 10 1 10 11
M  V30 11 2 11 12
M  V30 12 1 12 13
M  V30 13 2 13 14
M  V30 14 1 14 15
M  V30 15 2 15 16
M  V30 16 1 16 17
M  V30 17 2 17 18
M  V30 18 1 18 19
M  V30 19 1 19 20
M  V30 20 1 20 21
M  V30 21 1 21 22
M  V30 22 1 22 23
M  V30 23 1 23 24
M  V30 24 1 24 25
M  V30 25 1 8 26
M  V30 26 2 26 27
M  V30 27 1 27 5
M  V30 28 1 18 9
M  V30 29 1 25 20
M  V30 30 1 16 11
M  V30 31 1 1 28
M  V30 32 1 1 29
M  V30 33 1 6 30
M  V30 34 1 7 31
M  V30 35 1 10 32
M  V30 36 1 12 33
M  V30 37 1 13 34
M  V30 38 1 15 35
M  V30 39 1 17 36
M  V30 40 1 20 37
M  V30 41 1 21 38
M  V30 42 1 21 39
M  V30 43 1 22 40
M  V30 44 1 22 41
M  V30 45 1 23 42
M  V30 46 1 24 43
M  V30 47 1 24 44
M  V30 48 1 25 45
M  V30 49 1 25 46
M  V30 50 1 26 47
M  V30 51 1 27 48
M  V30 END BOND
M  V30 END CTAB
M  END
>  <Dataset>  (18) 
ChEMBL_Kinases

>  <Ligand_Instance>  (18) 
nan

>  <PDB_ID>  (18) 
nan

>  <Standardized_SMILES>  (18) 
NS(=O)(=O)c1ccc(-c2cc3ccncc3cc2OC2CCNCC2)cc1

>  <Name>  (18) 
nan

>  <Pocket>  (18) 
nan

>  <ATP_Site>  (18) 
nan

>  <Peripheral>  (18) 
nan

>  <Num_H_Atoms_ProtBoundConf>  (18) 
nan

>  <Num_Resolved_Atoms>  (18) 
nan

>  <Num_Not_Resolved_Atoms>  (18) 
nan

$$$$
CHEMBL519740
     RDKit          3D

  0  0  0  0  0  0  0  0  0  0999 V3000
M  V30 BEGIN CTAB
M  V30 COUNTS 54 56 0 0 0
M  V30 BEGIN ATOM
M  V30 1 C -1.021504 -3.640723 6.194638 0
M  V30 2 C -0.208327 -2.909946 5.159828 0
M  V30 3 C 0.155186 -1.608074 5.455009 0
M  V30 4 C 0.903684 -0.841730 4.569313 0
M  V30 5 C 1.346894 0.555191 4.783108 0
M  V30 6 C 1.273814 -1.428143 3.378378 0
M  V30 7 C 2.065388 -0.788357 2.302149 0
M  V30 8 O 3.305259 -0.792595 2.179343 0
M  V30 9 O 1.257613 -0.171718 1.427388 0
M  V30 10 C 1.451025 0.547180 0.269313 0
M  V30 11 C 2.017815 -0.135920 -0.922967 0
M  V30 12 C 3.485554 -0.440767 -0.895102 0
M  V30 13 O 4.249699 0.625311 -0.401541 0
M  V30 14 C 1.857604 0.864508 -2.117817 0
M  V30 15 C 0.389545 0.665345 -2.392656 0
M  V30 16 C -0.663696 1.416080 -2.667813 0
M  V30 17 C -2.023286 0.927759 -2.891487 0
M  V30 18 C -2.588052 -0.017039 -2.055070 0
M  V30 19 C -3.855360 -0.543260 -2.203381 0
M  V30 20 C -4.631307 -0.102196 -3.263007 0
M  V30 21 N -5.948418 -0.607031 -3.472859 0 CHG=1 VAL=4
M  V30 22 O -6.395227 -1.458217 -2.675337 0
M  V30 23 O -6.660837 -0.129726 -4.543698 0 CHG=-1 VAL=1
M  V30 24 C -4.092663 0.841904 -4.114118 0
M  V30 25 C -2.806016 1.369033 -3.954717 0
M  V30 26 C 0.318019 -0.808334 -2.320998 0
M  V30 27 O -0.482886 -1.507065 -3.043783 0
M  V30 28 O 1.236077 -1.249765 -1.373459 0
M  V30 29 C 0.918731 -2.742342 3.057137 0
M  V30 30 C 1.298829 -3.413003 1.781490 0
M  V30 31 C 0.171244 -3.493008 3.952904 0
M  V30 32 H -2.109480 -3.361692 6.075966 0
M  V30 33 H -0.865146 -4.728879 6.164965 0
M  V30 34 H -0.721121 -3.257342 7.178257 0
M  V30 35 H -0.119127 -1.118913 6.379884 0
M  V30 36 H 2.462507 0.649105 4.703029 0
M  V30 37 H 1.091984 0.816606 5.845708 0
M  V30 38 H 0.829565 1.267101 4.116089 0
M  V30 39 H 0.434544 0.978982 -0.001320 0
M  V30 40 H 2.055183 1.487526 0.436517 0
M  V30 41 H 3.768155 -1.347907 -0.339757 0
M  V30 42 H 3.862532 -0.574066 -1.972759 0
M  V30 43 H 4.110376 1.444146 -0.969045 0
M  V30 44 H 2.498820 0.588710 -2.949599 0
M  V30 45 H 1.998721 1.876114 -1.700928 0
M  V30 46 H -0.395915 2.470708 -2.711089 0
M  V30 47 H -2.077525 -0.422693 -1.186618 0
M  V30 48 H -4.286844 -1.281774 -1.544443 0
M  V30 49 H -4.724877 1.173558 -4.942307 0
M  V30 50 H -2.405750 2.110778 -4.636987 0
M  V30 51 H 0.495324 -4.081158 1.448949 0
M  V30 52 H 2.199971 -4.021770 2.023800 0
M  V30 53 H 1.596818 -2.650489 1.039041 0
M  V30 54 H -0.132158 -4.523457 3.751159 0
M  V30 END ATOM
M  V30 BEGIN BOND
M  V30 1 1 1 2
M  V30 2 2 2 3
M  V30 3 1 3 4
M  V30 4 1 4 5
M  V30 5 2 4 6
M  V30 6 1 6 7
M  V30 7 2 7 8
M  V30 8 1 7 9
M  V30 9 1 9 10
M  V30 10 1 10 11
M  V30 11 1 11 12
M  V30 12 1 12 13
M  V30 13 1 11 14
M  V30 14 1 14 15
M  V30 15 2 15 16
M  V30 16 1 16 17
M  V30 17 2 17 18
M  V30 18 1 18 19
M  V30 19 2 19 20
M  V30 20 1 20 21
M  V30 21 2 21 22
M  V30 22 1 21 23
M  V30 23 1 20 24
M  V30 24 2 24 25
M  V30 25 1 15 26
M  V30 26 2 26 27
M  V30 27 1 26 28
M  V30 28 1 6 29
M  V30 29 1 29 30
M  V30 30 2 29 31
M  V30 31 1 31 2
M  V30 32 1 28 11
M  V30 33 1 25 17
M  V30 34 1 1 32
M  V30 35 1 1 33
M  V30 36 1 1 34
M  V30 37 1 3 35
M  V30 38 1 5 36
M  V30 39 1 5 37
M  V30 40 1 5 38
M  V30 41 1 10 39
M  V30 42 1 10 40
M  V30 43 1 12 41
M  V30 44 1 12 42
M  V30 45 1 13 43
M  V30 46 1 14 44
M  V30 47 1 14 45
M  V30 48 1 16 46
M  V30 49 1 18 47
M  V30 50 1 19 48
M  V30 51 1 24 49
M  V30 52 1 25 50
M  V30 53 1 30 51
M  V30 54 1 30 52
M  V30 55 1 30 53
M  V30 56 1 31 54
M  V30 END BOND
M  V30 END CTAB
M  END
>  <Dataset>  (19) 
ChEMBL_Kinases

>  <Ligand_Instance>  (19) 
nan

>  <PDB_ID>  (19) 
nan

>  <Standardized_SMILES>  (19) 
Cc1cc(C)c(C(=O)OCC2(CO)C/C(=C/c3ccc([N+](=O)[O-])cc3)C(=O)O2)c(C)c1

>  <Name>  (19) 
nan

>  <Pocket>  (19) 
nan

>  <ATP_Site>  (19) 
nan

>  <Peripheral>  (19) 
nan

>  <Num_H_Atoms_ProtBoundConf>  (19) 
nan

>  <Num_Resolved_Atoms>  (19) 
nan

>  <Num_Not_Resolved_Atoms>  (19) 
nan

$$$$
CHEMBL575099
     RDKit          3D

  0  0  0  0  0  0  0  0  0  0999 V3000
M  V30 BEGIN CTAB
M  V30 COUNTS 60 63 0 0 0
M  V30 BEGIN ATOM
M  V30 1 C 4.840619 -1.657171 4.178445 0
M  V30 2 O 3.900917 -2.708535 4.002177 0
M  V30 3 C 3.201810 -2.812421 2.782225 0
M  V30 4 C 3.459466 -1.876045 1.807425 0
M  V30 5 C 2.851855 -1.847318 0.558839 0
M  V30 6 N 3.155700 -0.874655 -0.434305 0
M  V30 7 C 2.149115 -0.715328 -1.433047 0
M  V30 8 C 1.252155 0.359201 -1.394098 0
M  V30 9 C 0.216726 0.603549 -2.312589 0
M  V30 10 O -0.468013 1.742691 -1.977015 0
M  V30 11 C -1.384450 1.811383 -0.975024 0
M  V30 12 C -0.897931 2.749257 -0.053068 0
M  V30 13 C -1.574317 3.094517 1.126152 0
M  V30 14 C -1.116631 4.086734 2.139019 0
M  V30 15 C -2.791574 2.481675 1.407737 0
M  V30 16 C -3.583864 2.767890 2.624642 0
M  V30 17 N -3.229840 1.590594 0.506781 0
M  V30 18 C -2.577846 1.269585 -0.614138 0
M  V30 19 C -3.113315 0.310452 -1.559752 0
M  V30 20 C -3.234321 0.304138 -2.925697 0
M  V30 21 C -3.817686 -0.771362 -3.559214 0
M  V30 22 C -4.299792 -1.866359 -2.902364 0
M  V30 23 C -4.161715 -1.829714 -1.509873 0
M  V30 24 N -3.595896 -0.784994 -0.913304 0
M  V30 25 C 0.136278 -0.337162 -3.313099 0
M  V30 26 C 0.998092 -1.398372 -3.379456 0
M  V30 27 N 1.981792 -1.591095 -2.468442 0
M  V30 28 C 1.937101 -2.870954 0.369726 0
M  V30 29 C 1.634993 -3.838801 1.303637 0
M  V30 30 O 0.697332 -4.851557 1.046254 0
M  V30 31 C 0.038455 -4.886268 -0.219417 0
M  V30 32 C 2.279804 -3.804195 2.526339 0
M  V30 33 O 2.004881 -4.760913 3.495187 0
M  V30 34 C 0.950156 -4.596722 4.452454 0
M  V30 35 H 5.631101 -1.705108 3.370575 0
M  V30 36 H 5.394525 -1.702195 5.127776 0
M  V30 37 H 4.334862 -0.671702 4.134676 0
M  V30 38 H 4.190160 -1.093741 2.012503 0
M  V30 39 H 4.091136 -0.384916 -0.310324 0
M  V30 40 H 1.457003 1.008444 -0.534948 0
M  V30 41 H 0.023757 3.339553 -0.075367 0
M  V30 42 H -0.666007 3.631791 3.027174 0
M  V30 43 H -1.935958 4.814099 2.405872 0
M  V30 44 H -0.330806 4.733538 1.667092 0
M  V30 45 H -3.041731 3.394769 3.348328 0
M  V30 46 H -4.591547 3.179912 2.403688 0
M  V30 47 H -3.759869 1.790243 3.165499 0
M  V30 48 H -2.823772 1.213533 -3.354459 0
M  V30 49 H -3.870790 -0.689938 -4.638638 0
M  V30 50 H -4.743510 -2.662435 -3.492555 0
M  V30 51 H -4.545218 -2.700906 -0.977464 0
M  V30 52 H -0.652009 -0.117020 -3.997244 0
M  V30 53 H 0.840958 -2.072848 -4.209412 0
M  V30 54 H 1.409742 -2.927112 -0.584046 0
M  V30 55 H -0.560893 -3.952451 -0.335348 0
M  V30 56 H -0.592901 -5.781277 -0.257111 0
M  V30 57 H 0.864384 -4.960114 -0.983905 0
M  V30 58 H 1.340175 -4.062982 5.339112 0
M  V30 59 H 0.213151 -3.902581 3.956447 0
M  V30 60 H 0.440674 -5.555244 4.673810 0
M  V30 END ATOM
M  V30 BEGIN BOND
M  V30 1 1 1 2
M  V30 2 1 2 3
M  V30 3 2 3 4
M  V30 4 1 4 5
M  V30 5 1 5 6
M  V30 6 1 6 7
M  V30 7 2 7 8
M  V30 8 1 8 9
M  V30 9 1 9 10
M  V30 10 1 10 11
M  V30 11 2 11 12
M  V30 12 1 12 13
M  V30 13 1 13 14
M  V30 14 2 13 15
M  V30 15 1 15 16
M  V30 16 1 15 17
M  V30 17 2 17 18
M  V30 18 1 18 19
M  V30 19 2 19 20
M  V30 20 1 20 21
M  V30 21 2 21 22
M  V30 22 1 22 23
M  V30 23 2 23 24
M  V30 24 2 9 25
M  V30 25 1 25 26
M  V30 26 2 26 27
M  V30 27 2 5 28
M  V30 28 1 28 29
M  V30 29 1 29 30
M  V30 30 1 30 31
M  V30 31 2 29 32
M  V30 32 1 32 33
M  V30 33 1 33 34
M  V30 34 1 32 3
M  V30 35 1 27 7
M  V30 36 1 18 11
M  V30 37 1 24 19
M  V30 38 1 1 35
M  V30 39 1 1 36
M  V30 40 1 1 37
M  V30 41 1 4 38
M  V30 42 1 6 39
M  V30 43 1 8 40
M  V30 44 1 12 41
M  V30 45 1 14 42
M  V30 46 1 14 43
M  V30 47 1 14 44
M  V30 48 1 16 45
M  V30 49 1 16 46
M  V30 50 1 16 47
M  V30 51 1 20 48
M  V30 52 1 21 49
M  V30 53 1 22 50
M  V30 54 1 23 51
M  V30 55 1 25 52
M  V30 56 1 26 53
M  V30 57 1 28 54
M  V30 58 1 31 55
M  V30 59 1 31 56
M  V30 60 1 31 57
M  V30 61 1 34 58
M  V30 62 1 34 59
M  V30 63 1 34 60
M  V30 END BOND
M  V30 END CTAB
M  END
>  <Dataset>  (20) 
ChEMBL_Kinases

>  <Ligand_Instance>  (20) 
nan

>  <PDB_ID>  (20) 
nan

>  <Standardized_SMILES>  (20) 
COc1cc(Nc2cc(Oc3cc(C)c(C)nc3-c3ccccn3)ccn2)cc(OC)c1OC

>  <Name>  (20) 
nan

>  <Pocket>  (20) 
nan

>  <ATP_Site>  (20) 
nan

>  <Peripheral>  (20) 
nan

>  <Num_H_Atoms_ProtBoundConf>  (20) 
nan

>  <Num_Resolved_Atoms>  (20) 
nan

>  <Num_Not_Resolved_Atoms>  (20) 
nan

$$$$
CHEMBL519212
     RDKit          3D

  0  0  0  0  0  0  0  0  0  0999 V3000
M  V30 BEGIN CTAB
M  V30 COUNTS 61 66 0 0 0
M  V30 BEGIN ATOM
M  V30 1 O 1.892803 2.656906 3.472160 0
M  V30 2 C 0.742445 2.176559 3.535573 0
M  V30 3 N -0.391328 2.678393 4.250274 0
M  V30 4 C -1.477048 1.795444 4.022814 0
M  V30 5 O -2.546861 2.089309 4.577032 0
M  V30 6 C -1.092343 0.715020 3.171650 0
M  V30 7 C 0.225480 0.970946 2.902168 0
M  V30 8 C 0.941794 0.096090 2.077564 0
M  V30 9 C 2.349075 0.323112 1.761675 0
M  V30 10 C 3.479580 -0.121414 2.414442 0
M  V30 11 C 4.720201 0.213911 1.936504 0
M  V30 12 C 4.850913 0.994172 0.805344 0
M  V30 13 C 3.730649 1.457313 0.125702 0
M  V30 14 C 2.499021 1.110980 0.619750 0
M  V30 15 Cl 1.150866 1.760315 -0.326026 0
M  V30 16 C 0.283889 -0.995423 1.567491 0
M  V30 17 C -1.038929 -1.251002 1.838589 0
M  V30 18 C -1.712555 -0.380777 2.646125 0
M  V30 19 C -2.971840 -0.837520 2.768928 0
M  V30 20 C -4.120381 -0.470975 3.402313 0
M  V30 21 C -5.301541 -1.175555 3.333943 0
M  V30 22 O -6.487883 -0.797023 3.988144 0
M  V30 23 C -5.384531 -2.351764 2.579322 0
M  V30 24 C -4.194287 -2.707841 1.938768 0
M  V30 25 C -3.000716 -1.993527 2.009413 0
M  V30 26 N -1.811099 -2.267818 1.423209 0
M  V30 27 C -1.591278 -3.413083 0.601153 0
M  V30 28 C -1.887323 -3.297953 -0.832133 0
M  V30 29 C -1.151172 -2.313597 -1.650564 0
M  V30 30 C 0.298358 -2.482747 -1.737689 0
M  V30 31 O 0.925676 -3.419595 -1.134279 0
M  V30 32 N 1.064424 -1.557052 -2.537732 0
M  V30 33 C 0.691982 -0.397767 -3.346354 0
M  V30 34 C 1.109515 -0.651188 -4.792780 0
M  V30 35 O 2.505340 -0.579570 -4.783914 0
M  V30 36 C 2.967583 -1.686779 -4.081313 0
M  V30 37 C 2.521035 -1.710354 -2.637076 0
M  V30 38 H -0.299916 3.573108 4.818046 0
M  V30 39 H 3.243678 -0.722605 3.285073 0
M  V30 40 H 5.558956 -0.157827 2.481650 0
M  V30 41 H 5.850347 1.226742 0.474784 0
M  V30 42 H 3.897279 2.063323 -0.752403 0
M  V30 43 H 0.836941 -1.652020 0.950277 0
M  V30 44 H -4.212988 0.380075 4.000064 0
M  V30 45 H -6.753362 0.188786 4.033131 0
M  V30 46 H -6.276907 -2.921179 2.502966 0
M  V30 47 H -4.304876 -3.636395 1.358325 0
M  V30 48 H -0.530740 -3.791013 0.695717 0
M  V30 49 H -2.192966 -4.281474 0.993770 0
M  V30 50 H -1.670443 -4.313820 -1.287554 0
M  V30 51 H -2.978282 -3.165433 -1.067666 0
M  V30 52 H -1.539568 -2.416750 -2.703343 0
M  V30 53 H -1.444076 -1.285844 -1.357857 0
M  V30 54 H -0.391691 -0.201683 -3.327220 0
M  V30 55 H 1.281849 0.482143 -3.029734 0
M  V30 56 H 0.823818 -1.640199 -5.149918 0
M  V30 57 H 0.700619 0.190846 -5.389965 0
M  V30 58 H 4.085095 -1.601655 -4.050997 0
M  V30 59 H 2.773178 -2.650385 -4.600684 0
M  V30 60 H 2.781620 -2.678921 -2.212070 0
M  V30 61 H 2.945112 -0.826580 -2.139154 0
M  V30 END ATOM
M  V30 BEGIN BOND
M  V30 1 2 1 2
M  V30 2 1 2 3
M  V30 3 1 3 4
M  V30 4 2 4 5
M  V30 5 1 4 6
M  V30 6 2 6 7
M  V30 7 1 7 8
M  V30 8 1 8 9
M  V30 9 2 9 10
M  V30 10 1 10 11
M  V30 11 2 11 12
M  V30 12 1 12 13
M  V30 13 2 13 14
M  V30 14 1 14 15
M  V30 15 2 8 16
M  V30 16 1 16 17
M  V30 17 2 17 18
M  V30 18 1 18 19
M  V30 19 2 19 20
M  V30 20 1 20 21
M  V30 21 1 21 22
M  V30 22 2 21 23
M  V30 23 1 23 24
M  V30 24 2 24 25
M  V30 25 1 25 26
M  V30 26 1 26 27
M  V30 27 1 27 28
M  V30 28 1 28 29
M  V30 29 1 29 30
M  V30 30 2 30 31
M  V30 31 1 30 32
M  V30 32 1 32 33
M  V30 33 1 33 34
M  V30 34 1 34 35
M  V30 35 1 35 36
M  V30 36 1 36 37
M  V30 37 1 7 2
M  V30 38 1 14 9
M  V30 39 1 26 17
M  V30 40 1 37 32
M  V30 41 1 18 6
M  V30 42 1 25 19
M  V30 43 1 3 38
M  V30 44 1 10 39
M  V30 45 1 11 40
M  V30 46 1 12 41
M  V30 47 1 13 42
M  V30 48 1 16 43
M  V30 49 1 20 44
M  V30 50 1 22 45
M  V30 51 1 23 46
M  V30 52 1 24 47
M  V30 53 1 27 48
M  V30 54 1 27 49
M  V30 55 1 28 50
M  V30 56 1 28 51
M  V30 57 1 29 52
M  V30 58 1 29 53
M  V30 59 1 33 54
M  V30 60 1 33 55
M  V30 61 1 34 56
M  V30 62 1 34 57
M  V30 63 1 36 58
M  V30 64 1 36 59
M  V30 65 1 37 60
M  V30 66 1 37 61
M  V30 END BOND
M  V30 END CTAB
M  END
>  <Dataset>  (21) 
ChEMBL_Kinases

>  <Ligand_Instance>  (21) 
nan

>  <PDB_ID>  (21) 
nan

>  <Standardized_SMILES>  (21) 
O=C1NC(=O)c2c1c(-c1ccccc1Cl)cc1c2c2cc(O)ccc2n1CCCC(=O)N1CCOCC1

>  <Name>  (21) 
nan

>  <Pocket>  (21) 
nan

>  <ATP_Site>  (21) 
nan

>  <Peripheral>  (21) 
nan

>  <Num_H_Atoms_ProtBoundConf>  (21) 
nan

>  <Num_Resolved_Atoms>  (21) 
nan

>  <Num_Not_Resolved_Atoms>  (21) 
nan

$$$$
CHEMBL520967
     RDKit          3D

  0  0  0  0  0  0  0  0  0  0999 V3000
M  V30 BEGIN CTAB
M  V30 COUNTS 66 69 0 0 0
M  V30 BEGIN ATOM
M  V30 1 C 0.106455 0.081704 3.737751 0
M  V30 2 N 1.163480 1.023759 4.001846 0
M  V30 3 N 1.576653 1.327468 5.211811 0
M  V30 4 C 2.576147 2.229506 5.139868 0
M  V30 5 C 3.229326 2.749203 6.357225 0
M  V30 6 C 4.312114 3.739372 6.053907 0
M  V30 7 C 3.862957 1.606150 7.139741 0
M  V30 8 C 2.183308 3.409692 7.244648 0
M  V30 9 C 2.735533 2.447813 3.796451 0
M  V30 10 C 1.842908 1.687660 3.052846 0
M  V30 11 C 1.782555 1.722799 1.601587 0
M  V30 12 O 2.620445 2.490305 1.005188 0
M  V30 13 C 0.883402 0.990491 0.739825 0
M  V30 14 O -0.088444 0.160971 0.665200 0
M  V30 15 N 1.011284 1.161836 -0.676633 0
M  V30 16 C 0.065800 0.387750 -1.447508 0
M  V30 17 C 0.482816 -0.883722 -1.775855 0
M  V30 18 C -0.422025 -1.596273 -2.506715 0
M  V30 19 C -1.665699 -1.222311 -2.948683 0
M  V30 20 O -2.652743 -1.762193 -3.648257 0
M  V30 21 C -3.014105 -2.897791 -4.284404 0
M  V30 22 C -3.145147 -4.159826 -3.485055 0
M  V30 23 N -1.978944 -4.640679 -2.849079 0
M  V30 24 C -0.991534 -5.163267 -3.757981 0
M  V30 25 C -0.995240 -6.685316 -3.764204 0
M  V30 26 O -2.263164 -7.210613 -3.515923 0
M  V30 27 C -2.675172 -6.906092 -2.213964 0
M  V30 28 C -2.213224 -5.551546 -1.774629 0
M  V30 29 C -2.012219 0.087500 -2.571122 0
M  V30 30 C -3.205859 0.724785 -2.882300 0
M  V30 31 C -3.559033 2.005594 -2.521778 0
M  V30 32 C -2.638382 2.714762 -1.784007 0
M  V30 33 C -1.420779 2.187917 -1.415517 0
M  V30 34 C -1.155469 0.901470 -1.821040 0
M  V30 35 H 0.480809 -0.768978 3.120002 0
M  V30 36 H -0.772613 0.516279 3.248794 0
M  V30 37 H -0.267764 -0.372215 4.690606 0
M  V30 38 H 3.942296 4.798609 6.035702 0
M  V30 39 H 5.107489 3.733322 6.843217 0
M  V30 40 H 4.831102 3.574939 5.091602 0
M  V30 41 H 4.892675 1.471513 6.751939 0
M  V30 42 H 3.246792 0.683505 7.015714 0
M  V30 43 H 3.849325 1.874034 8.217405 0
M  V30 44 H 1.911898 4.430466 6.900405 0
M  V30 45 H 2.484585 3.449315 8.305562 0
M  V30 46 H 1.231848 2.816287 7.133818 0
M  V30 47 H 3.476273 3.134927 3.425721 0
M  V30 48 H 1.727519 1.795839 -1.168155 0
M  V30 49 H 1.424413 -1.347195 -1.517137 0
M  V30 50 H -0.164694 -2.589466 -2.807666 0
M  V30 51 H -2.266531 -3.103434 -5.127573 0
M  V30 52 H -3.979011 -2.745917 -4.877741 0
M  V30 53 H -3.967489 -3.986922 -2.728106 0
M  V30 54 H -3.578092 -4.961044 -4.158751 0
M  V30 55 H 0.006989 -4.866931 -3.402066 0
M  V30 56 H -1.170197 -4.775033 -4.779955 0
M  V30 57 H -0.698272 -7.001938 -4.788533 0
M  V30 58 H -0.239927 -7.058106 -3.063430 0
M  V30 59 H -2.248173 -7.660048 -1.523379 0
M  V30 60 H -3.794865 -6.970808 -2.129836 0
M  V30 61 H -1.235920 -5.675923 -1.236312 0
M  V30 62 H -2.951314 -5.157229 -1.037258 0
M  V30 63 H -3.923987 0.160741 -3.461493 0
M  V30 64 H -4.520918 2.393901 -2.825406 0
M  V30 65 H -2.910883 3.721994 -1.497809 0
M  V30 66 H -0.704585 2.752336 -0.835887 0
M  V30 END ATOM
M  V30 BEGIN BOND
M  V30 1 1 1 2
M  V30 2 1 2 3
M  V30 3 2 3 4
M  V30 4 1 4 5
M  V30 5 1 5 6
M  V30 6 1 5 7
M  V30 7 1 5 8
M  V30 8 1 4 9
M  V30 9 2 9 10
M  V30 10 1 10 11
M  V30 11 2 11 12
M  V30 12 1 11 13
M  V30 13 2 13 14
M  V30 14 1 13 15
M  V30 15 1 15 16
M  V30 16 2 16 17
M  V30 17 1 17 18
M  V30 18 2 18 19
M  V30 19 1 19 20
M  V30 20 1 20 21
M  V30 21 1 21 22
M  V30 22 1 22 23
M  V30 23 1 23 24
M  V30 24 1 24 25
M  V30 25 1 25 26
M  V30 26 1 26 27
M  V30 27 1 27 28
M  V30 28 1 19 29
M  V30 29 2 29 30
M  V30 30 1 30 31
M  V30 31 2 31 32
M  V30 32 1 32 33
M  V30 33 2 33 34
M  V30 34 1 10 2
M  V30 35 1 34 16
M  V30 36 1 28 23
M  V30 37 1 34 29
M  V30 38 1 1 35
M  V30 39 1 1 36
M  V30 40 1 1 37
M  V30 41 1 6 38
M  V30 42 1 6 39
M  V30 43 1 6 40
M  V30 44 1 7 41
M  V30 45 1 7 42
M  V30 46 1 7 43
M  V30 47 1 8 44
M  V30 48 1 8 45
M  V30 49 1 8 46
M  V30 50 1 9 47
M  V30 51 1 15 48
M  V30 52 1 17 49
M  V30 53 1 18 50
M  V30 54 1 21 51
M  V30 55 1 21 52
M  V30 56 1 22 53
M  V30 57 1 22 54
M  V30 58 1 24 55
M  V30 59 1 24 56
M  V30 60 1 25 57
M  V30 61 1 25 58
M  V30 62 1 27 59
M  V30 63 1 27 60
M  V30 64 1 28 61
M  V30 65 1 28 62
M  V30 66 1 30 63
M  V30 67 1 31 64
M  V30 68 1 32 65
M  V30 69 1 33 66
M  V30 END BOND
M  V30 END CTAB
M  END
>  <Dataset>  (22) 
ChEMBL_Kinases

>  <Ligand_Instance>  (22) 
nan

>  <PDB_ID>  (22) 
nan

>  <Standardized_SMILES>  (22) 
Cn1nc(C(C)(C)C)cc1C(=O)C(=O)Nc1ccc(OCCN2CCOCC2)c2ccccc12

>  <Name>  (22) 
nan

>  <Pocket>  (22) 
nan

>  <ATP_Site>  (22) 
nan

>  <Peripheral>  (22) 
nan

>  <Num_H_Atoms_ProtBoundConf>  (22) 
nan

>  <Num_Resolved_Atoms>  (22) 
nan

>  <Num_Not_Resolved_Atoms>  (22) 
nan

$$$$
CHEMBL520984
     RDKit          3D

  0  0  0  0  0  0  0  0  0  0999 V3000
M  V30 BEGIN CTAB
M  V30 COUNTS 60 65 0 0 0
M  V30 BEGIN ATOM
M  V30 1 C 2.384255 -2.758291 -0.596533 0
M  V30 2 N 1.019691 -2.374725 -0.308197 0
M  V30 3 C 0.332564 -1.285591 -0.765423 0
M  V30 4 C 0.793886 -0.301487 -1.610972 0
M  V30 5 C -0.000071 0.779724 -2.019679 0
M  V30 6 S 0.696602 1.976351 -3.056194 0
M  V30 7 O -0.146872 2.016895 -4.307900 0
M  V30 8 O 2.067297 1.502367 -3.529242 0
M  V30 9 C 0.934712 3.555200 -2.358639 0
M  V30 10 C -0.259196 4.266615 -1.841974 0
M  V30 11 C 0.231741 5.637668 -1.334161 0
M  V30 12 N 1.211415 5.481089 -0.283205 0
M  V30 13 C 2.558556 5.378917 -0.253361 0
M  V30 14 C 3.020172 5.238729 1.033423 0
M  V30 15 C 1.934798 5.249800 1.875257 0
M  V30 16 C 0.862657 5.398574 1.032940 0
M  V30 17 C -1.274842 0.771025 -1.505376 0
M  V30 18 O -2.119125 1.808667 -1.871416 0
M  V30 19 C -1.723168 -0.217949 -0.660946 0
M  V30 20 C -0.950152 -1.267148 -0.264403 0
M  V30 21 C -1.016960 -2.384259 0.513453 0
M  V30 22 C -2.039473 -2.883062 1.258191 0
M  V30 23 C -1.886644 -4.043660 1.977408 0
M  V30 24 C -0.674273 -4.727393 1.951815 0
M  V30 25 C -0.473157 -5.962138 2.701534 0
M  V30 26 C -0.008430 -6.072793 4.002827 0
M  V30 27 C 0.124375 -7.323163 4.566293 0
M  V30 28 C -0.196770 -8.464921 3.858558 0
M  V30 29 C -0.659981 -8.371766 2.564201 0
M  V30 30 C -0.799751 -7.114162 1.980357 0
M  V30 31 Cl -1.396505 -7.114095 0.331676 0
M  V30 32 C 0.369569 -4.229351 1.199058 0
M  V30 33 C 0.181119 -3.061471 0.489209 0
M  V30 34 C -3.101531 -4.424591 2.719982 0
M  V30 35 O -3.254173 -5.423306 3.452646 0
M  V30 36 N -4.028282 -3.371010 2.382604 0
M  V30 37 C -3.382952 -2.458293 1.510494 0
M  V30 38 O -4.093288 -1.510424 1.157550 0
M  V30 39 H 2.984537 -2.482766 0.306416 0
M  V30 40 H 2.771506 -2.240858 -1.500911 0
M  V30 41 H 2.429341 -3.849260 -0.754426 0
M  V30 42 H 1.814164 -0.346436 -1.988804 0
M  V30 43 H 1.771670 3.504272 -1.625517 0
M  V30 44 H 1.348788 4.205511 -3.187931 0
M  V30 45 H -0.639690 3.785324 -0.910439 0
M  V30 46 H -0.994251 4.450240 -2.616103 0
M  V30 47 H -0.642530 6.193435 -0.939579 0
M  V30 48 H 0.701020 6.201237 -2.167478 0
M  V30 49 H 3.133317 5.413055 -1.165888 0
M  V30 50 H 4.059267 5.138733 1.312872 0
M  V30 51 H 1.910184 5.164073 2.938436 0
M  V30 52 H -0.166945 5.443169 1.417761 0
M  V30 53 H -3.093529 1.599067 -1.981385 0
M  V30 54 H -2.711090 -0.133136 -0.322961 0
M  V30 55 H 0.209023 -5.113471 4.452769 0
M  V30 56 H 0.494461 -7.282559 5.582347 0
M  V30 57 H -0.064413 -9.416411 4.373797 0
M  V30 58 H -0.897459 -9.302617 2.054456 0
M  V30 59 H 1.289740 -4.761774 1.188698 0
M  V30 60 H -4.988246 -3.430367 2.806884 0
M  V30 END ATOM
M  V30 BEGIN BOND
M  V30 1 1 1 2
M  V30 2 1 2 3
M  V30 3 2 3 4
M  V30 4 1 4 5
M  V30 5 1 5 6
M  V30 6 2 6 7
M  V30 7 2 6 8
M  V30 8 1 6 9
M  V30 9 1 9 10
M  V30 10 1 10 11
M  V30 11 1 11 12
M  V30 12 1 12 13
M  V30 13 2 13 14
M  V30 14 1 14 15
M  V30 15 2 15 16
M  V30 16 2 5 17
M  V30 17 1 17 18
M  V30 18 1 17 19
M  V30 19 2 19 20
M  V30 20 1 20 21
M  V30 21 2 21 22
M  V30 22 1 22 23
M  V30 23 2 23 24
M  V30 24 1 24 25
M  V30 25 2 25 26
M  V30 26 1 26 27
M  V30 27 2 27 28
M  V30 28 1 28 29
M  V30 29 2 29 30
M  V30 30 1 30 31
M  V30 31 1 24 32
M  V30 32 2 32 33
M  V30 33 1 23 34
M  V30 34 2 34 35
M  V30 35 1 34 36
M  V30 36 1 36 37
M  V30 37 2 37 38
M  V30 38 1 33 2
M  V30 39 1 20 3
M  V30 40 1 33 21
M  V30 41 1 16 12
M  V30 42 1 37 22
M  V30 43 1 30 25
M  V30 44 1 1 39
M  V30 45 1 1 40
M  V30 46 1 1 41
M  V30 47 1 4 42
M  V30 48 1 9 43
M  V30 49 1 9 44
M  V30 50 1 10 45
M  V30 51 1 10 46
M  V30 52 1 11 47
M  V30 53 1 11 48
M  V30 54 1 13 49
M  V30 55 1 14 50
M  V30 56 1 15 51
M  V30 57 1 16 52
M  V30 58 1 18 53
M  V30 59 1 19 54
M  V30 60 1 26 55
M  V30 61 1 27 56
M  V30 62 1 28 57
M  V30 63 1 29 58
M  V30 64 1 32 59
M  V30 65 1 36 60
M  V30 END BOND
M  V30 END CTAB
M  END
>  <Dataset>  (23) 
ChEMBL_Kinases

>  <Ligand_Instance>  (23) 
nan

>  <PDB_ID>  (23) 
nan

>  <Standardized_SMILES>  (23) 
Cn1c2cc(S(=O)(=O)CCCn3cccc3)c(O)cc2c2c3c(c(-c4ccccc4Cl)cc21)C(=O)NC3=O

>  <Name>  (23) 
nan

>  <Pocket>  (23) 
nan

>  <ATP_Site>  (23) 
nan

>  <Peripheral>  (23) 
nan

>  <Num_H_Atoms_ProtBoundConf>  (23) 
nan

>  <Num_Resolved_Atoms>  (23) 
nan

>  <Num_Not_Resolved_Atoms>  (23) 
nan

$$$$
CHEMBL521043
     RDKit          3D

  0  0  0  0  0  0  0  0  0  0999 V3000
M  V30 BEGIN CTAB
M  V30 COUNTS 51 53 0 0 0
M  V30 BEGIN ATOM
M  V30 1 O -3.597399 -2.238386 2.247161 0
M  V30 2 C -2.865509 -1.227435 2.104431 0
M  V30 3 O -2.974816 0.122938 1.748516 0
M  V30 4 C -1.735411 0.769263 1.830695 0
M  V30 5 C -1.789016 2.177423 2.331783 0
M  V30 6 O -2.336929 2.158435 3.613230 0
M  V30 7 C -1.067357 0.709394 0.454803 0
M  V30 8 O 0.178083 1.327988 0.430420 0
M  V30 9 C 0.996315 1.417519 -0.688224 0
M  V30 10 O 0.478629 0.862671 -1.714166 0
M  V30 11 C 2.300843 2.076152 -0.676446 0
M  V30 12 C 2.741844 2.637200 0.505338 0
M  V30 13 C 3.988839 3.255382 0.477071 0
M  V30 14 C 4.696202 3.270188 -0.707892 0
M  V30 15 N 5.980334 3.913265 -0.714366 0 CHG=1 VAL=4
M  V30 16 O 6.670850 3.964555 -1.742745 0
M  V30 17 O 6.513602 4.500604 0.397595 0 CHG=-1 VAL=1
M  V30 18 C 4.243952 2.703817 -1.888542 0
M  V30 19 C 2.991649 2.078428 -1.876083 0
M  V30 20 C -0.957100 -0.059998 2.834231 0
M  V30 21 C -1.422658 -1.420916 2.373001 0
M  V30 22 C -0.741259 -2.570556 2.213821 0
M  V30 23 C -1.124343 -3.851590 1.780343 0
M  V30 24 C -2.275979 -4.561395 1.417836 0
M  V30 25 C -2.898256 -4.403239 0.036043 0
M  V30 26 C -1.939777 -4.901938 -0.994914 0
M  V30 27 C -0.573634 -5.118782 -0.369741 0
M  V30 28 C -0.177608 -4.040101 0.556453 0
M  V30 29 H -2.341057 2.850304 1.640619 0
M  V30 30 H -0.766694 2.547490 2.428887 0
M  V30 31 H -1.753324 2.546275 4.302203 0
M  V30 32 H -1.751824 1.273529 -0.231324 0
M  V30 33 H -1.061720 -0.346158 0.116489 0
M  V30 34 H 2.140344 2.592909 1.402650 0
M  V30 35 H 4.368416 3.707080 1.385663 0
M  V30 36 H 4.817437 2.728120 -2.806432 0
M  V30 37 H 2.574386 1.613938 -2.763297 0
M  V30 38 H 0.117787 0.059889 2.800695 0
M  V30 39 H -1.345506 0.179495 3.832170 0
M  V30 40 H 0.331102 -2.428147 2.487353 0
M  V30 41 H -0.622891 -4.527291 2.563999 0
M  V30 42 H -3.042516 -4.889523 2.192440 0
M  V30 43 H -1.921335 -5.648594 1.257140 0
M  V30 44 H -3.176716 -3.386507 -0.216264 0
M  V30 45 H -3.838567 -5.010780 0.054316 0
M  V30 46 H -2.278402 -5.873920 -1.399463 0
M  V30 47 H -1.884350 -4.207773 -1.871128 0
M  V30 48 H 0.118387 -5.026388 -1.236317 0
M  V30 49 H -0.405280 -6.154301 -0.019032 0
M  V30 50 H 0.845884 -4.179390 0.889954 0
M  V30 51 H -0.179949 -3.097850 -0.066310 0
M  V30 END ATOM
M  V30 BEGIN BOND
M  V30 1 2 1 2
M  V30 2 1 2 3
M  V30 3 1 3 4
M  V30 4 1 4 5
M  V30 5 1 5 6
M  V30 6 1 4 7
M  V30 7 1 7 8
M  V30 8 1 8 9
M  V30 9 2 9 10
M  V30 10 1 9 11
M  V30 11 2 11 12
M  V30 12 1 12 13
M  V30 13 2 13 14
M  V30 14 1 14 15
M  V30 15 2 15 16
M  V30 16 1 15 17
M  V30 17 1 14 18
M  V30 18 2 18 19
M  V30 19 1 4 20
M  V30 20 1 20 21
M  V30 21 2 21 22
M  V30 22 1 22 23
M  V30 23 1 23 24
M  V30 24 1 24 25
M  V30 25 1 25 26
M  V30 26 1 26 27
M  V30 27 1 27 28
M  V30 28 1 21 2
M  V30 29 1 28 23
M  V30 30 1 19 11
M  V30 31 1 5 29
M  V30 32 1 5 30
M  V30 33 1 6 31
M  V30 34 1 7 32
M  V30 35 1 7 33
M  V30 36 1 12 34
M  V30 37 1 13 35
M  V30 38 1 18 36
M  V30 39 1 19 37
M  V30 40 1 20 38
M  V30 41 1 20 39
M  V30 42 1 22 40
M  V30 43 1 23 41
M  V30 44 1 24 42
M  V30 45 1 24 43
M  V30 46 1 25 44
M  V30 47 1 25 45
M  V30 48 1 26 46
M  V30 49 1 26 47
M  V30 50 1 27 48
M  V30 51 1 27 49
M  V30 52 1 28 50
M  V30 53 1 28 51
M  V30 END BOND
M  V30 END CTAB
M  END
>  <Dataset>  (24) 
ChEMBL_Kinases

>  <Ligand_Instance>  (24) 
nan

>  <PDB_ID>  (24) 
nan

>  <Standardized_SMILES>  (24) 
O=C1OC(CO)(COC(=O)c2ccc([N+](=O)[O-])cc2)C/C1=C/C1CCCCC1

>  <Name>  (24) 
nan

>  <Pocket>  (24) 
nan

>  <ATP_Site>  (24) 
nan

>  <Peripheral>  (24) 
nan

>  <Num_H_Atoms_ProtBoundConf>  (24) 
nan

>  <Num_Resolved_Atoms>  (24) 
nan

>  <Num_Not_Resolved_Atoms>  (24) 
nan

$$$$
CHEMBL521051
     RDKit          3D

  0  0  0  0  0  0  0  0  0  0999 V3000
M  V30 BEGIN CTAB
M  V30 COUNTS 56 61 0 0 0
M  V30 BEGIN ATOM
M  V30 1 O 3.375366 1.878328 3.618352 0
M  V30 2 C 2.393394 1.108743 3.797042 0
M  V30 3 N 1.758740 0.819308 5.058390 0
M  V30 4 C 0.699279 -0.090576 4.820861 0
M  V30 5 O 0.050801 -0.441507 5.807391 0
M  V30 6 C 0.631466 -0.401446 3.418460 0
M  V30 7 C 1.644845 0.322897 2.841597 0
M  V30 8 C 1.873696 0.255011 1.483096 0
M  V30 9 C 2.867599 0.955174 0.676316 0
M  V30 10 C 3.680324 0.191144 -0.172120 0
M  V30 11 C 4.634835 0.834730 -0.971819 0
M  V30 12 C 4.733748 2.225123 -0.886198 0
M  V30 13 C 3.939882 2.968343 -0.058461 0
M  V30 14 C 3.002430 2.327801 0.726013 0
M  V30 15 C 1.070771 -0.553952 0.699444 0
M  V30 16 C 0.044800 -1.287538 1.283616 0
M  V30 17 C -0.154552 -1.194592 2.642022 0
M  V30 18 C -1.202178 -1.992349 2.987220 0
M  V30 19 C -1.915542 -2.372095 4.081661 0
M  V30 20 C -2.977947 -3.244494 4.094365 0
M  V30 21 O -3.673124 -3.597190 5.255195 0
M  V30 22 C -3.371102 -3.799768 2.872805 0
M  V30 23 C -2.684916 -3.450789 1.734967 0
M  V30 24 C -1.628728 -2.566784 1.810938 0
M  V30 25 N -0.884458 -2.150029 0.772012 0
M  V30 26 C -1.001656 -2.515149 -0.637137 0
M  V30 27 C -1.932064 -1.595995 -1.393133 0
M  V30 28 N -2.073247 -1.916911 -2.776203 0
M  V30 29 C -0.917501 -1.706995 -3.588942 0
M  V30 30 C -0.462237 -0.283652 -3.433600 0
M  V30 31 O -1.429396 0.656136 -3.592553 0
M  V30 32 C -2.709243 0.337085 -3.311828 0
M  V30 33 C -3.108795 -1.084447 -3.353806 0
M  V30 34 H 2.117740 1.274381 5.946941 0
M  V30 35 H 3.611999 -0.879408 -0.244456 0
M  V30 36 H 5.240638 0.233622 -1.607353 0
M  V30 37 H 5.468441 2.720324 -1.502988 0
M  V30 38 H 4.067777 4.059725 -0.038753 0
M  V30 39 H 2.404651 2.958297 1.344984 0
M  V30 40 H 1.151976 -0.689784 -0.370249 0
M  V30 41 H -1.676009 -1.991187 5.042228 0
M  V30 42 H -4.224769 -2.879302 5.751769 0
M  V30 43 H -4.210533 -4.494164 2.860180 0
M  V30 44 H -3.042715 -3.914598 0.844737 0
M  V30 45 H -0.028682 -2.564178 -1.126230 0
M  V30 46 H -1.410099 -3.562270 -0.638703 0
M  V30 47 H -2.944133 -1.697149 -0.941415 0
M  V30 48 H -1.622702 -0.553359 -1.175337 0
M  V30 49 H -0.072702 -2.384315 -3.386157 0
M  V30 50 H -1.220717 -1.854130 -4.646675 0
M  V30 51 H 0.322361 -0.124554 -4.205871 0
M  V30 52 H 0.039981 -0.130581 -2.455438 0
M  V30 53 H -3.378671 0.883208 -4.040382 0
M  V30 54 H -2.983153 0.762680 -2.316597 0
M  V30 55 H -3.177991 -1.394267 -4.432552 0
M  V30 56 H -4.084475 -1.218423 -2.844800 0
M  V30 END ATOM
M  V30 BEGIN BOND
M  V30 1 2 1 2
M  V30 2 1 2 3
M  V30 3 1 3 4
M  V30 4 2 4 5
M  V30 5 1 4 6
M  V30 6 2 6 7
M  V30 7 1 7 8
M  V30 8 1 8 9
M  V30 9 2 9 10
M  V30 10 1 10 11
M  V30 11 2 11 12
M  V30 12 1 12 13
M  V30 13 2 13 14
M  V30 14 2 8 15
M  V30 15 1 15 16
M  V30 16 2 16 17
M  V30 17 1 17 18
M  V30 18 2 18 19
M  V30 19 1 19 20
M  V30 20 1 20 21
M  V30 21 2 20 22
M  V30 22 1 22 23
M  V30 23 2 23 24
M  V30 24 1 24 25
M  V30 25 1 25 26
M  V30 26 1 26 27
M  V30 27 1 27 28
M  V30 28 1 28 29
M  V30 29 1 29 30
M  V30 30 1 30 31
M  V30 31 1 31 32
M  V30 32 1 32 33
M  V30 33 1 7 2
M  V30 34 1 14 9
M  V30 35 1 25 16
M  V30 36 1 33 28
M  V30 37 1 17 6
M  V30 38 1 24 18
M  V30 39 1 3 34
M  V30 40 1 10 35
M  V30 41 1 11 36
M  V30 42 1 12 37
M  V30 43 1 13 38
M  V30 44 1 14 39
M  V30 45 1 15 40
M  V30 46 1 19 41
M  V30 47 1 21 42
M  V30 48 1 22 43
M  V30 49 1 23 44
M  V30 50 1 26 45
M  V30 51 1 26 46
M  V30 52 1 27 47
M  V30 53 1 27 48
M  V30 54 1 29 49
M  V30 55 1 29 50
M  V30 56 1 30 51
M  V30 57 1 30 52
M  V30 58 1 32 53
M  V30 59 1 32 54
M  V30 60 1 33 55
M  V30 61 1 33 56
M  V30 END BOND
M  V30 END CTAB
M  END
>  <Dataset>  (25) 
ChEMBL_Kinases

>  <Ligand_Instance>  (25) 
nan

>  <PDB_ID>  (25) 
nan

>  <Standardized_SMILES>  (25) 
O=C1NC(=O)c2c1c(-c1ccccc1)cc1c2c2cc(O)ccc2n1CCN1CCOCC1

>  <Name>  (25) 
nan

>  <Pocket>  (25) 
nan

>  <ATP_Site>  (25) 
nan

>  <Peripheral>  (25) 
nan

>  <Num_H_Atoms_ProtBoundConf>  (25) 
nan

>  <Num_Resolved_Atoms>  (25) 
nan

>  <Num_Not_Resolved_Atoms>  (25) 
nan

$$$$
CHEMBL3732709
     RDKit          3D

  0  0  0  0  0  0  0  0  0  0999 V3000
M  V30 BEGIN CTAB
M  V30 COUNTS 47 50 0 0 0
M  V30 BEGIN ATOM
M  V30 1 C 2.487482 -4.057287 0.657232 0
M  V30 2 N 2.407333 -2.673490 0.325187 0
M  V30 3 C 1.269691 -2.373886 -0.489009 0
M  V30 4 C 2.624511 -1.790262 1.425441 0
M  V30 5 C 1.550631 -1.804674 2.475441 0
M  V30 6 O 0.275512 -1.445121 2.021104 0
M  V30 7 C 0.008733 -0.214669 1.473285 0
M  V30 8 N 1.007675 0.668015 1.375387 0
M  V30 9 C 0.939084 1.901949 0.875166 0
M  V30 10 C 2.074153 2.810113 0.801926 0
M  V30 11 C 3.305396 2.442780 1.254475 0
M  V30 12 C 4.411226 3.290235 1.198413 0
M  V30 13 N 4.258826 4.515114 0.679325 0
M  V30 14 C 3.051533 4.934929 0.212162 0
M  V30 15 C 1.947517 4.084620 0.269731 0
M  V30 16 N -0.279034 2.258643 0.433317 0
M  V30 17 C -1.347004 1.404375 0.502886 0
M  V30 18 S -3.009608 1.548280 0.032536 0
M  V30 19 C -3.531615 -0.074791 0.539308 0
M  V30 20 C -2.357283 -0.619420 1.045006 0
M  V30 21 C -1.256377 0.163007 1.011553 0
M  V30 22 C -2.662626 -2.002269 1.516696 0
M  V30 23 C -3.395896 -2.762566 0.406151 0
M  V30 24 C -4.735154 -2.165127 0.126821 0
M  V30 25 C -4.881433 -0.725795 0.461154 0
M  V30 26 H 1.836431 -4.626884 -0.057028 0
M  V30 27 H 3.540392 -4.401875 0.579626 0
M  V30 28 H 2.095047 -4.305981 1.661082 0
M  V30 29 H 0.300737 -2.659711 -0.034025 0
M  V30 30 H 1.343115 -1.333752 -0.829186 0
M  V30 31 H 1.360417 -3.015154 -1.412565 0
M  V30 32 H 3.555340 -2.150708 1.960385 0
M  V30 33 H 2.874085 -0.753984 1.110094 0
M  V30 34 H 1.562343 -2.778606 3.007058 0
M  V30 35 H 1.888405 -1.059526 3.252386 0
M  V30 36 H 3.495007 1.483861 1.678167 0
M  V30 37 H 5.398269 3.026400 1.547877 0
M  V30 38 H 2.897497 5.913868 -0.210958 0
M  V30 39 H 0.971992 4.377149 -0.089344 0
M  V30 40 H -3.262543 -1.970938 2.446248 0
M  V30 41 H -1.757588 -2.593234 1.737482 0
M  V30 42 H -2.787284 -2.666952 -0.509741 0
M  V30 43 H -3.472637 -3.806906 0.716098 0
M  V30 44 H -5.032934 -2.411365 -0.928183 0
M  V30 45 H -5.473006 -2.762903 0.741211 0
M  V30 46 H -5.440191 -0.610673 1.411517 0
M  V30 47 H -5.466082 -0.149099 -0.287301 0
M  V30 END ATOM
M  V30 BEGIN BOND
M  V30 1 1 1 2
M  V30 2 1 2 3
M  V30 3 1 2 4
M  V30 4 1 4 5
M  V30 5 1 5 6
M  V30 6 1 6 7
M  V30 7 2 7 8
M  V30 8 1 8 9
M  V30 9 1 9 10
M  V30 10 2 10 11
M  V30 11 1 11 12
M  V30 12 2 12 13
M  V30 13 1 13 14
M  V30 14 2 14 15
M  V30 15 2 9 16
M  V30 16 1 16 17
M  V30 17 1 17 18
M  V30 18 1 18 19
M  V30 19 2 19 20
M  V30 20 1 20 21
M  V30 21 1 20 22
M  V30 22 1 22 23
M  V30 23 1 23 24
M  V30 24 1 24 25
M  V30 25 1 21 7
M  V30 26 1 15 10
M  V30 27 2 21 17
M  V30 28 1 25 19
M  V30 29 1 1 26
M  V30 30 1 1 27
M  V30 31 1 1 28
M  V30 32 1 3 29
M  V30 33 1 3 30
M  V30 34 1 3 31
M  V30 35 1 4 32
M  V30 36 1 4 33
M  V30 37 1 5 34
M  V30 38 1 5 35
M  V30 39 1 11 36
M  V30 40 1 12 37
M  V30 41 1 14 38
M  V30 42 1 15 39
M  V30 43 1 22 40
M  V30 44 1 22 41
M  V30 45 1 23 42
M  V30 46 1 23 43
M  V30 47 1 24 44
M  V30 48 1 24 45
M  V30 49 1 25 46
M  V30 50 1 25 47
M  V30 END BOND
M  V30 END CTAB
M  END
>  <Dataset>  (26) 
ChEMBL_Kinases

>  <Ligand_Instance>  (26) 
nan

>  <PDB_ID>  (26) 
nan

>  <Standardized_SMILES>  (26) 
CN(C)CCOc1nc(-c2ccncc2)nc2sc3c(c12)CCCC3

>  <Name>  (26) 
nan

>  <Pocket>  (26) 
nan

>  <ATP_Site>  (26) 
nan

>  <Peripheral>  (26) 
nan

>  <Num_H_Atoms_ProtBoundConf>  (26) 
nan

>  <Num_Resolved_Atoms>  (26) 
nan

>  <Num_Not_Resolved_Atoms>  (26) 
nan

$$$$
CHEMBL521065
     RDKit          3D

  0  0  0  0  0  0  0  0  0  0999 V3000
M  V30 BEGIN CTAB
M  V30 COUNTS 45 49 0 0 0
M  V30 BEGIN ATOM
M  V30 1 O 5.557670 -2.259244 -1.671279 0
M  V30 2 C 5.043686 -1.226002 -1.175765 0
M  V30 3 N 5.625820 0.083242 -1.011670 0
M  V30 4 C 4.665556 0.930703 -0.402318 0
M  V30 5 O 5.056251 2.082953 -0.213006 0
M  V30 6 C 3.456622 0.211917 -0.156577 0
M  V30 7 C 3.705850 -1.053816 -0.621859 0
M  V30 8 C 2.726266 -2.045104 -0.544838 0
M  V30 9 C 1.519400 -1.684656 0.013474 0
M  V30 10 C 1.252546 -0.397658 0.490638 0
M  V30 11 C 2.252609 0.540109 0.390995 0
M  V30 12 C 1.813421 1.704710 0.890629 0
M  V30 13 C 2.215125 2.984337 1.109544 0
M  V30 14 C 1.437082 3.964357 1.680217 0
M  V30 15 O 1.869554 5.289735 1.900556 0
M  V30 16 C 0.155977 3.670343 2.071200 0
M  V30 17 C -0.299754 2.385494 1.871252 0
M  V30 18 C 0.521727 1.448346 1.296405 0
M  V30 19 N 0.172965 0.175080 1.056480 0
M  V30 20 C -1.036666 -0.577954 1.266362 0
M  V30 21 C -1.137556 -1.245406 2.613980 0
M  V30 22 C -2.459676 -2.026781 2.705870 0
M  V30 23 C -2.521702 -3.067635 1.677927 0
M  V30 24 O -1.475456 -3.729555 1.885240 0
M  V30 25 N -3.436029 -3.397496 0.642243 0
M  V30 26 C -3.186247 -4.457501 -0.145311 0
M  V30 27 C -4.274001 -4.443384 -1.024857 0
M  V30 28 N -5.072691 -3.408359 -0.711307 0
M  V30 29 C -4.561179 -2.737688 0.337153 0
M  V30 30 H 6.625786 0.224728 -1.349940 0
M  V30 31 H 2.890723 -3.050565 -0.900105 0
M  V30 32 H 0.752527 -2.454068 0.076274 0
M  V30 33 H 3.193039 3.294519 0.834333 0
M  V30 34 H 1.667567 5.915178 1.116930 0
M  V30 35 H -0.463960 4.438633 2.523503 0
M  V30 36 H -1.311665 2.203451 2.194805 0
M  V30 37 H -1.170370 -1.375598 0.498779 0
M  V30 38 H -1.931771 0.085436 1.151732 0
M  V30 39 H -1.155026 -0.515030 3.447366 0
M  V30 40 H -0.265887 -1.901853 2.741304 0
M  V30 41 H -3.309660 -1.328157 2.583888 0
M  V30 42 H -2.517395 -2.405755 3.746637 0
M  V30 43 H -2.375103 -5.155681 -0.132770 0
M  V30 44 H -4.389003 -5.191117 -1.820454 0
M  V30 45 H -4.998138 -1.870213 0.786483 0
M  V30 END ATOM
M  V30 BEGIN BOND
M  V30 1 2 1 2
M  V30 2 1 2 3
M  V30 3 1 3 4
M  V30 4 2 4 5
M  V30 5 1 4 6
M  V30 6 2 6 7
M  V30 7 1 7 8
M  V30 8 2 8 9
M  V30 9 1 9 10
M  V30 10 2 10 11
M  V30 11 1 11 12
M  V30 12 2 12 13
M  V30 13 1 13 14
M  V30 14 1 14 15
M  V30 15 2 14 16
M  V30 16 1 16 17
M  V30 17 2 17 18
M  V30 18 1 18 19
M  V30 19 1 19 20
M  V30 20 1 20 21
M  V30 21 1 21 22
M  V30 22 1 22 23
M  V30 23 2 23 24
M  V30 24 1 23 25
M  V30 25 1 25 26
M  V30 26 2 26 27
M  V30 27 1 27 28
M  V30 28 2 28 29
M  V30 29 1 7 2
M  V30 30 1 19 10
M  V30 31 1 29 25
M  V30 32 1 11 6
M  V30 33 1 18 12
M  V30 34 1 3 30
M  V30 35 1 8 31
M  V30 36 1 9 32
M  V30 37 1 13 33
M  V30 38 1 15 34
M  V30 39 1 16 35
M  V30 40 1 17 36
M  V30 41 1 20 37
M  V30 42 1 20 38
M  V30 43 1 21 39
M  V30 44 1 21 40
M  V30 45 1 22 41
M  V30 46 1 22 42
M  V30 47 1 26 43
M  V30 48 1 27 44
M  V30 49 1 29 45
M  V30 END BOND
M  V30 END CTAB
M  END
>  <Dataset>  (27) 
ChEMBL_Kinases

>  <Ligand_Instance>  (27) 
nan

>  <PDB_ID>  (27) 
nan

>  <Standardized_SMILES>  (27) 
O=C1NC(=O)c2c1ccc1c2c2cc(O)ccc2n1CCCC(=O)n1ccnc1

>  <Name>  (27) 
nan

>  <Pocket>  (27) 
nan

>  <ATP_Site>  (27) 
nan

>  <Peripheral>  (27) 
nan

>  <Num_H_Atoms_ProtBoundConf>  (27) 
nan

>  <Num_Resolved_Atoms>  (27) 
nan

>  <Num_Not_Resolved_Atoms>  (27) 
nan

$$$$
CHEMBL521130
     RDKit          3D

  0  0  0  0  0  0  0  0  0  0999 V3000
M  V30 BEGIN CTAB
M  V30 COUNTS 51 54 0 0 0
M  V30 BEGIN ATOM
M  V30 1 N 1.843331 -3.421464 6.057318 0
M  V30 2 S 0.596869 -3.698143 4.877430 0
M  V30 3 O 0.588956 -5.156610 4.562855 0
M  V30 4 O -0.704010 -3.222888 5.445242 0
M  V30 5 C 0.991417 -2.792493 3.426120 0
M  V30 6 C 0.479510 -1.525111 3.253730 0
M  V30 7 C 0.725657 -0.707543 2.156224 0
M  V30 8 C 1.561806 -1.292417 1.209248 0
M  V30 9 C 1.820244 -0.414512 0.044233 0
M  V30 10 C 3.172815 -0.258292 -0.290689 0
M  V30 11 C 3.356833 0.598925 -1.383743 0
M  V30 12 C 4.691210 0.771799 -1.732129 0
M  V30 13 C 5.086632 1.575677 -2.775133 0
M  V30 14 N 4.108409 2.227915 -3.492207 0
M  V30 15 C 2.818561 2.048145 -3.139055 0
M  V30 16 C 2.394749 1.252773 -2.104108 0
M  V30 17 C 1.104199 1.039357 -1.704008 0
M  V30 18 C 0.772520 0.219860 -0.643155 0
M  V30 19 O -0.544533 0.019609 -0.258119 0
M  V30 20 C -1.548491 0.683075 -0.988097 0
M  V30 21 C -2.932742 0.371501 -0.473889 0
M  V30 22 C -3.034986 0.800309 0.951629 0
M  V30 23 C -3.400168 -0.433516 1.774165 0
M  V30 24 N -4.677334 -0.968965 1.316957 0
M  V30 25 C -4.588687 -1.419578 -0.036399 0
M  V30 26 C -3.269934 -1.088133 -0.674925 0
M  V30 27 C 2.122200 -2.551282 1.289718 0
M  V30 28 C 1.816994 -3.304399 2.435656 0
M  V30 29 H 2.117998 -2.393238 6.046260 0
M  V30 30 H 1.491595 -3.634155 7.030293 0
M  V30 31 H -0.178425 -1.096302 4.023170 0
M  V30 32 H 0.315398 0.277281 2.042388 0
M  V30 33 H 3.973150 -0.740470 0.230742 0
M  V30 34 H 5.567426 0.332447 -1.271654 0
M  V30 35 H 6.052748 1.827797 -3.187295 0
M  V30 36 H 2.022481 2.554026 -3.693552 0
M  V30 37 H 0.325247 1.549090 -2.265565 0
M  V30 38 H -1.510548 0.410185 -2.065359 0
M  V30 39 H -1.349926 1.763080 -0.905345 0
M  V30 40 H -3.691321 0.932520 -1.092467 0
M  V30 41 H -3.728460 1.628880 1.134216 0
M  V30 42 H -2.042728 1.113921 1.343159 0
M  V30 43 H -2.582880 -1.170295 1.718641 0
M  V30 44 H -3.546854 -0.105858 2.820408 0
M  V30 45 H -5.349424 -0.154800 1.422188 0
M  V30 46 H -5.410724 -0.902949 -0.605132 0
M  V30 47 H -4.790087 -2.495732 -0.129155 0
M  V30 48 H -2.474656 -1.704300 -0.249920 0
M  V30 49 H -3.306352 -1.249087 -1.776804 0
M  V30 50 H 2.761633 -2.927752 0.507263 0
M  V30 51 H 2.230387 -4.294597 2.543312 0
M  V30 END ATOM
M  V30 BEGIN BOND
M  V30 1 1 1 2
M  V30 2 2 2 3
M  V30 3 2 2 4
M  V30 4 1 2 5
M  V30 5 2 5 6
M  V30 6 1 6 7
M  V30 7 2 7 8
M  V30 8 1 8 9
M  V30 9 2 9 10
M  V30 10 1 10 11
M  V30 11 2 11 12
M  V30 12 1 12 13
M  V30 13 2 13 14
M  V30 14 1 14 15
M  V30 15 2 15 16
M  V30 16 1 16 17
M  V30 17 2 17 18
M  V30 18 1 18 19
M  V30 19 1 19 20
M  V30 20 1 20 21
M  V30 21 1 21 22
M  V30 22 1 22 23
M  V30 23 1 23 24
M  V30 24 1 24 25
M  V30 25 1 25 26
M  V30 26 1 8 27
M  V30 27 2 27 28
M  V30 28 1 28 5
M  V30 29 1 18 9
M  V30 30 1 26 21
M  V30 31 1 16 11
M  V30 32 1 1 29
M  V30 33 1 1 30
M  V30 34 1 6 31
M  V30 35 1 7 32
M  V30 36 1 10 33
M  V30 37 1 12 34
M  V30 38 1 13 35
M  V30 39 1 15 36
M  V30 40 1 17 37
M  V30 41 1 20 38
M  V30 42 1 20 39
M  V30 43 1 21 40
M  V30 44 1 22 41
M  V30 45 1 22 42
M  V30 46 1 23 43
M  V30 47 1 23 44
M  V30 48 1 24 45
M  V30 49 1 25 46
M  V30 50 1 25 47
M  V30 51 1 26 48
M  V30 52 1 26 49
M  V30 53 1 27 50
M  V30 54 1 28 51
M  V30 END BOND
M  V30 END CTAB
M  END
>  <Dataset>  (28) 
ChEMBL_Kinases

>  <Ligand_Instance>  (28) 
nan

>  <PDB_ID>  (28) 
nan

>  <Standardized_SMILES>  (28) 
NS(=O)(=O)c1ccc(-c2cc3ccncc3cc2OCC2CCNCC2)cc1

>  <Name>  (28) 
nan

>  <Pocket>  (28) 
nan

>  <ATP_Site>  (28) 
nan

>  <Peripheral>  (28) 
nan

>  <Num_H_Atoms_ProtBoundConf>  (28) 
nan

>  <Num_Resolved_Atoms>  (28) 
nan

>  <Num_Not_Resolved_Atoms>  (28) 
nan

$$$$
CHEMBL521144
     RDKit          3D

  0  0  0  0  0  0  0  0  0  0999 V3000
M  V30 BEGIN CTAB
M  V30 COUNTS 58 62 0 0 0
M  V30 BEGIN ATOM
M  V30 1 C 6.159267 4.805754 2.704003 0
M  V30 2 C 5.590973 3.722391 3.548889 0
M  V30 3 O 4.593800 2.947876 3.001016 0
M  V30 4 C 4.613205 2.137369 1.900468 0
M  V30 5 C 3.370944 1.527575 1.680173 0
M  V30 6 C 3.081745 0.659104 0.653638 0
M  V30 7 C 1.754841 0.047573 0.463990 0
M  V30 8 N 0.780472 0.275119 1.255742 0
M  V30 9 C -0.570844 -0.305600 1.128946 0
M  V30 10 C -0.715911 -1.249998 2.282020 0
M  V30 11 C -1.568645 -2.293587 2.514494 0
M  V30 12 C -1.647012 -3.133703 3.580211 0
M  V30 13 C -0.752259 -2.948555 4.621224 0
M  V30 14 Cl -0.804701 -3.991339 6.011734 0
M  V30 15 C 0.177355 -1.908535 4.509355 0
M  V30 16 C 0.150076 -1.136441 3.380842 0
M  V30 17 F 1.121501 -0.187200 3.440043 0
M  V30 18 C -0.710026 -0.978140 -0.189162 0
M  V30 19 C -2.057436 -1.323773 -0.728293 0
M  V30 20 O -2.183601 -1.856537 -1.879870 0
M  V30 21 N -3.393981 -1.209502 -0.267287 0
M  V30 22 C -4.184471 -1.743633 -1.316114 0
M  V30 23 C -4.367652 -3.124752 -1.224544 0
M  V30 24 C -5.114932 -3.734292 -2.190602 0
M  V30 25 C -5.495352 -5.036890 -2.420464 0
M  V30 26 N -6.238341 -5.064430 -3.538259 0
M  V30 27 N -6.363938 -3.833923 -4.055456 0
M  V30 28 C -5.669503 -3.011406 -3.221807 0
M  V30 29 C -5.468988 -1.645203 -3.281892 0
M  V30 30 C -4.727124 -0.978138 -2.338017 0
M  V30 31 F -4.499015 0.358353 -2.338324 0
M  V30 32 C 0.236772 -1.290930 -1.085836 0
M  V30 33 C 0.142454 -1.972204 -2.398726 0
M  V30 34 N 1.523620 -0.727525 -0.700103 0
M  V30 35 C 4.108413 0.392488 -0.193107 0
M  V30 36 C 5.343537 0.978497 -0.000190 0
M  V30 37 N 5.610321 1.842571 1.027623 0
M  V30 38 H 5.447906 5.688077 2.601173 0
M  V30 39 H 7.030283 5.233034 3.274074 0
M  V30 40 H 6.557216 4.529186 1.731972 0
M  V30 41 H 6.449809 3.065938 3.859594 0
M  V30 42 H 5.152776 4.233216 4.457560 0
M  V30 43 H 2.514161 1.730867 2.342887 0
M  V30 44 H -1.272585 0.525156 1.287422 0
M  V30 45 H -2.285605 -2.514180 1.742696 0
M  V30 46 H -2.379739 -3.933158 3.640430 0
M  V30 47 H 0.848954 -1.816597 5.346132 0
M  V30 48 H -3.427930 -0.762594 0.699664 0
M  V30 49 H -3.949122 -3.727525 -0.430164 0
M  V30 50 H -5.239095 -5.898819 -1.806052 0
M  V30 51 H -6.885424 -3.605984 -4.907721 0
M  V30 52 H -5.883137 -1.031995 -4.074747 0
M  V30 53 H -0.347300 -1.329029 -3.131850 0
M  V30 54 H -0.248777 -3.009728 -2.331846 0
M  V30 55 H 1.189279 -2.101451 -2.778973 0
M  V30 56 H 2.319684 -0.915627 -1.333245 0
M  V30 57 H 4.104710 -0.239282 -1.029880 0
M  V30 58 H 6.222977 0.834210 -0.608222 0
M  V30 END ATOM
M  V30 BEGIN BOND
M  V30 1 1 1 2
M  V30 2 1 2 3
M  V30 3 1 3 4
M  V30 4 2 4 5
M  V30 5 1 5 6
M  V30 6 1 6 7
M  V30 7 2 7 8
M  V30 8 1 8 9
M  V30 9 1 9 10
M  V30 10 2 10 11
M  V30 11 1 11 12
M  V30 12 2 12 13
M  V30 13 1 13 14
M  V30 14 1 13 15
M  V30 15 2 15 16
M  V30 16 1 16 17
M  V30 17 1 9 18
M  V30 18 1 18 19
M  V30 19 2 19 20
M  V30 20 1 19 21
M  V30 21 1 21 22
M  V30 22 2 22 23
M  V30 23 1 23 24
M  V30 24 1 24 25
M  V30 25 2 25 26
M  V30 26 1 26 27
M  V30 27 1 27 28
M  V30 28 1 28 29
M  V30 29 2 29 30
M  V30 30 1 30 31
M  V30 31 2 18 32
M  V30 32 1 32 33
M  V30 33 1 32 34
M  V30 34 2 6 35
M  V30 35 1 35 36
M  V30 36 2 36 37
M  V30 37 1 37 4
M  V30 38 1 34 7
M  V30 39 1 16 10
M  V30 40 1 30 22
M  V30 41 2 28 24
M  V30 42 1 1 38
M  V30 43 1 1 39
M  V30 44 1 1 40
M  V30 45 1 2 41
M  V30 46 1 2 42
M  V30 47 1 5 43
M  V30 48 1 9 44
M  V30 49 1 11 45
M  V30 50 1 12 46
M  V30 51 1 15 47
M  V30 52 1 21 48
M  V30 53 1 23 49
M  V30 54 1 25 50
M  V30 55 1 27 51
M  V30 56 1 29 52
M  V30 57 1 33 53
M  V30 58 1 33 54
M  V30 59 1 33 55
M  V30 60 1 34 56
M  V30 61 1 35 57
M  V30 62 1 36 58
M  V30 END BOND
M  V30 END CTAB
M  END
>  <Dataset>  (29) 
ChEMBL_Kinases

>  <Ligand_Instance>  (29) 
nan

>  <PDB_ID>  (29) 
nan

>  <Standardized_SMILES>  (29) 
CCOc1cc(C2=NC(c3ccc(Cl)cc3F)C(C(=O)Nc3cc4cn[nH]c4cc3F)=C(C)N2)ccn1

>  <Name>  (29) 
nan

>  <Pocket>  (29) 
nan

>  <ATP_Site>  (29) 
nan

>  <Peripheral>  (29) 
nan

>  <Num_H_Atoms_ProtBoundConf>  (29) 
nan

>  <Num_Resolved_Atoms>  (29) 
nan

>  <Num_Not_Resolved_Atoms>  (29) 
nan

$$$$
CHEMBL3732703
     RDKit          3D

  0  0  0  0  0  0  0  0  0  0999 V3000
M  V30 BEGIN CTAB
M  V30 COUNTS 58 62 0 0 0
M  V30 BEGIN ATOM
M  V30 1 N -0.403917 -5.232381 1.511444 0
M  V30 2 C 0.350255 -4.434868 2.456387 0 CFG=2
M  V30 3 C 0.460490 -2.995995 2.020434 0
M  V30 4 N -0.801709 -2.350628 1.877278 0
M  V30 5 C -0.842936 -1.012774 1.481774 0
M  V30 6 N 0.296860 -0.312162 1.230833 0
M  V30 7 C 0.079969 0.981567 0.855614 0
M  V30 8 C 1.268699 1.781856 0.572651 0
M  V30 9 C 1.218538 3.101004 0.186546 0
M  V30 10 C 2.311802 3.893645 -0.090055 0
M  V30 11 N 3.509902 3.261397 0.048224 0
M  V30 12 C 3.602922 1.980612 0.421245 0
M  V30 13 C 2.492594 1.179946 0.701066 0
M  V30 14 N -1.126219 1.539090 0.735757 0
M  V30 15 C -2.264949 0.868552 0.977232 0
M  V30 16 C -3.474274 1.463397 0.865993 0
M  V30 17 C -3.914356 2.800768 0.454493 0
M  V30 18 C -4.078020 2.980535 -1.014805 0
M  V30 19 C -2.843900 2.725036 -1.827949 0
M  V30 20 C -3.058214 2.953725 -3.305393 0
M  V30 21 C -2.082315 3.757284 -2.523632 0
M  V30 22 C -4.568883 0.494041 1.218191 0
M  V30 23 S -3.638713 -1.085591 1.639327 0
M  V30 24 C -2.083074 -0.418239 1.352585 0
M  V30 25 C 1.694227 -5.004616 2.759113 0
M  V30 26 C 2.577862 -5.139322 1.583996 0
M  V30 27 C 3.467724 -4.203473 1.100997 0
M  V30 28 C 4.267259 -4.363995 0.012938 0
M  V30 29 C 4.177529 -5.574873 -0.667832 0
M  V30 30 C 3.298942 -6.555228 -0.227834 0
M  V30 31 C 2.500649 -6.347764 0.889287 0
M  V30 32 H 0.050201 -5.286383 0.578234 0
M  V30 33 H -1.399982 -4.959120 1.472811 0
M  V30 34 H -0.225758 -4.427822 3.405497 0
M  V30 35 H 1.076680 -2.445493 2.759904 0
M  V30 36 H 1.034621 -2.906241 1.057615 0
M  V30 37 H -1.643842 -2.926748 2.080774 0
M  V30 38 H 0.247738 3.582548 0.083970 0
M  V30 39 H 2.180136 4.924854 -0.388542 0
M  V30 40 H 4.568791 1.508473 0.521726 0
M  V30 41 H 2.646981 0.151823 0.997596 0
M  V30 42 H -3.149230 3.563935 0.775411 0
M  V30 43 H -4.851451 3.116640 0.974160 0
M  V30 44 H -4.408736 4.027702 -1.232998 0
M  V30 45 H -4.861970 2.273026 -1.412805 0
M  V30 46 H -2.342305 1.729880 -1.608179 0
M  V30 47 H -3.971765 3.452482 -3.665565 0
M  V30 48 H -2.652403 2.196688 -3.999561 0
M  V30 49 H -2.293475 4.833340 -2.325993 0
M  V30 50 H -1.011554 3.577590 -2.733081 0
M  V30 51 H -5.721391 0.815304 1.186281 0
M  V30 52 H 2.153387 -4.368238 3.558089 0
M  V30 53 H 1.593403 -6.008793 3.259693 0
M  V30 54 H 3.515035 -3.270274 1.651978 0
M  V30 55 H 4.937770 -3.542567 -0.275722 0
M  V30 56 H 4.801323 -5.720459 -1.530486 0
M  V30 57 H 3.252213 -7.496643 -0.785671 0
M  V30 58 H 1.825450 -7.163903 1.186226 0
M  V30 END ATOM
M  V30 BEGIN BOND
M  V30 1 1 1 2
M  V30 2 1 2 3
M  V30 3 1 3 4
M  V30 4 1 4 5
M  V30 5 2 5 6
M  V30 6 1 6 7
M  V30 7 1 7 8
M  V30 8 2 8 9
M  V30 9 1 9 10
M  V30 10 2 10 11
M  V30 11 1 11 12
M  V30 12 2 12 13
M  V30 13 2 7 14
M  V30 14 1 14 15
M  V30 15 1 15 16
M  V30 16 1 16 17
M  V30 17 1 17 18
M  V30 18 1 18 19
M  V30 19 1 19 20
M  V30 20 1 20 21
M  V30 21 2 16 22
M  V30 22 1 22 23
M  V30 23 1 23 24
M  V30 24 1 2 25
M  V30 25 1 25 26
M  V30 26 2 26 27
M  V30 27 1 27 28
M  V30 28 2 28 29
M  V30 29 1 29 30
M  V30 30 2 30 31
M  V30 31 1 24 5
M  V30 32 1 31 26
M  V30 33 1 13 8
M  V30 34 2 24 15
M  V30 35 1 21 19
M  V30 36 1 1 32
M  V30 37 1 1 33
M  V30 38 1 2 34 CFG=1
M  V30 39 1 3 35
M  V30 40 1 3 36
M  V30 41 1 4 37
M  V30 42 1 9 38
M  V30 43 1 10 39
M  V30 44 1 12 40
M  V30 45 1 13 41
M  V30 46 1 17 42
M  V30 47 1 17 43
M  V30 48 1 18 44
M  V30 49 1 18 45
M  V30 50 1 19 46
M  V30 51 1 20 47
M  V30 52 1 20 48
M  V30 53 1 21 49
M  V30 54 1 21 50
M  V30 55 1 22 51
M  V30 56 1 25 52
M  V30 57 1 25 53
M  V30 58 1 27 54
M  V30 59 1 28 55
M  V30 60 1 29 56
M  V30 61 1 30 57
M  V30 62 1 31 58
M  V30 END BOND
M  V30 END CTAB
M  END
>  <Dataset>  (30) 
ChEMBL_Kinases

>  <Ligand_Instance>  (30) 
nan

>  <PDB_ID>  (30) 
nan

>  <Standardized_SMILES>  (30) 
N[C@H](CNc1nc(-c2ccncc2)nc2c(CCC3CC3)csc12)Cc1ccccc1

>  <Name>  (30) 
nan

>  <Pocket>  (30) 
nan

>  <ATP_Site>  (30) 
nan

>  <Peripheral>  (30) 
nan

>  <Num_H_Atoms_ProtBoundConf>  (30) 
nan

>  <Num_Resolved_Atoms>  (30) 
nan

>  <Num_Not_Resolved_Atoms>  (30) 
nan

$$$$
CHEMBL3732699
     RDKit          3D

  0  0  0  0  0  0  0  0  0  0999 V3000
M  V30 BEGIN CTAB
M  V30 COUNTS 49 53 0 0 0
M  V30 BEGIN ATOM
M  V30 1 C 1.123751 -7.021594 1.668189 0
M  V30 2 C 0.839111 -5.673377 1.896852 0
M  V30 3 C 0.891175 -4.755903 0.883705 0
M  V30 4 C 0.598127 -3.366320 1.117982 0
M  V30 5 N 0.614107 -2.374991 0.215007 0
M  V30 6 C 0.335202 -1.084354 0.465933 0
M  V30 7 N 0.396973 -0.385180 -0.774002 0
M  V30 8 C -0.767814 -0.024565 -1.609166 0
M  V30 9 C -0.257228 0.937651 -2.656002 0
M  V30 10 N 0.962060 0.382675 -3.241211 0
M  V30 11 C 2.022767 0.656890 -2.289835 0
M  V30 12 C 1.823342 -0.118415 -1.024717 0
M  V30 13 C 0.000450 -0.688139 1.740024 0
M  V30 14 C -0.283587 0.594149 2.060306 0
M  V30 15 C -0.599685 0.764056 3.430320 0
M  V30 16 S -0.460033 -0.890625 4.117176 0
M  V30 17 C -0.015988 -1.690045 2.648186 0
M  V30 18 N 0.267594 -2.964311 2.355753 0
M  V30 19 C -0.994100 1.992260 4.258584 0
M  V30 20 C -2.274883 2.578624 3.646312 0
M  V30 21 C -2.017832 3.289717 2.361343 0
M  V30 22 C -1.737501 2.336779 1.216766 0
M  V30 23 C -0.290657 1.845501 1.270768 0
M  V30 24 C 1.236503 -5.235221 -0.358583 0
M  V30 25 C 1.519291 -6.569193 -0.590317 0
M  V30 26 N 1.454641 -7.431470 0.436616 0
M  V30 27 H 1.059802 -7.677470 2.519588 0
M  V30 28 H 0.566024 -5.317234 2.898401 0
M  V30 29 H -1.160304 -0.959104 -2.068519 0
M  V30 30 H -1.507886 0.474451 -0.975341 0
M  V30 31 H -1.007972 1.129507 -3.449872 0
M  V30 32 H 0.042933 1.869052 -2.133402 0
M  V30 33 H 0.839662 -0.640610 -3.368438 0
M  V30 34 H 1.934532 1.734775 -2.043968 0
M  V30 35 H 3.007655 0.398281 -2.729850 0
M  V30 36 H 2.355214 -1.101943 -1.093607 0
M  V30 37 H 2.215283 0.492279 -0.183880 0
M  V30 38 H -0.164977 2.702199 4.253957 0
M  V30 39 H -1.261904 1.662455 5.261347 0
M  V30 40 H -2.877039 1.663119 3.384675 0
M  V30 41 H -2.863674 3.139026 4.371194 0
M  V30 42 H -2.931915 3.851297 2.100985 0
M  V30 43 H -1.149668 3.978544 2.453914 0
M  V30 44 H -2.379691 1.439891 1.274182 0
M  V30 45 H -1.941757 2.857688 0.252288 0
M  V30 46 H 0.075986 1.785651 0.260805 0
M  V30 47 H 0.295214 2.656581 1.797050 0
M  V30 48 H 1.282543 -4.521165 -1.173314 0
M  V30 49 H 1.779055 -6.829319 -1.608584 0
M  V30 END ATOM
M  V30 BEGIN BOND
M  V30 1 2 1 2
M  V30 2 1 2 3
M  V30 3 1 3 4
M  V30 4 2 4 5
M  V30 5 1 5 6
M  V30 6 1 6 7
M  V30 7 1 7 8
M  V30 8 1 8 9
M  V30 9 1 9 10
M  V30 10 1 10 11
M  V30 11 1 11 12
M  V30 12 2 6 13
M  V30 13 1 13 14
M  V30 14 2 14 15
M  V30 15 1 15 16
M  V30 16 1 16 17
M  V30 17 2 17 18
M  V30 18 1 15 19
M  V30 19 1 19 20
M  V30 20 1 20 21
M  V30 21 1 21 22
M  V30 22 1 22 23
M  V30 23 2 3 24
M  V30 24 1 24 25
M  V30 25 2 25 26
M  V30 26 1 26 1
M  V30 27 1 18 4
M  V30 28 1 12 7
M  V30 29 1 17 13
M  V30 30 1 23 14
M  V30 31 1 1 27
M  V30 32 1 2 28
M  V30 33 1 8 29
M  V30 34 1 8 30
M  V30 35 1 9 31
M  V30 36 1 9 32
M  V30 37 1 10 33
M  V30 38 1 11 34
M  V30 39 1 11 35
M  V30 40 1 12 36
M  V30 41 1 12 37
M  V30 42 1 19 38
M  V30 43 1 19 39
M  V30 44 1 20 40
M  V30 45 1 20 41
M  V30 46 1 21 42
M  V30 47 1 21 43
M  V30 48 1 22 44
M  V30 49 1 22 45
M  V30 50 1 23 46
M  V30 51 1 23 47
M  V30 52 1 24 48
M  V30 53 1 25 49
M  V30 END BOND
M  V30 END CTAB
M  END
>  <Dataset>  (31) 
ChEMBL_Kinases

>  <Ligand_Instance>  (31) 
nan

>  <PDB_ID>  (31) 
nan

>  <Standardized_SMILES>  (31) 
c1cc(-c2nc(N3CCNCC3)c3c4c(sc3n2)CCCCC4)ccn1

>  <Name>  (31) 
nan

>  <Pocket>  (31) 
nan

>  <ATP_Site>  (31) 
nan

>  <Peripheral>  (31) 
nan

>  <Num_H_Atoms_ProtBoundConf>  (31) 
nan

>  <Num_Resolved_Atoms>  (31) 
nan

>  <Num_Not_Resolved_Atoms>  (31) 
nan

$$$$
CHEMBL3703160
     RDKit          3D

  0  0  0  0  0  0  0  0  0  0999 V3000
M  V30 BEGIN CTAB
M  V30 COUNTS 61 65 0 0 0
M  V30 BEGIN ATOM
M  V30 1 C 5.131176 -1.194111 6.367125 0
M  V30 2 C 6.225782 -1.771615 5.497715 0
M  V30 3 C 5.994472 -1.461285 4.063667 0
M  V30 4 O 6.690064 -1.778210 3.090894 0
M  V30 5 C 4.822044 -0.677477 3.562158 0
M  V30 6 C 4.958311 -0.584628 2.054091 0
M  V30 7 C 3.849399 0.173750 1.426718 0
M  V30 8 C 3.863323 1.548396 1.210576 0
M  V30 9 C 2.778868 2.165698 0.616764 0
M  V30 10 C 1.696353 1.381402 0.250669 0
M  V30 11 N 0.527712 1.764123 -0.343590 0
M  V30 12 C -0.240146 0.648192 -0.512719 0
M  V30 13 C -1.563251 0.380652 -1.072098 0
M  V30 14 C -2.558621 -0.124917 -0.260736 0
M  V30 15 C -3.821188 -0.382669 -0.785458 0
M  V30 16 C -4.109400 -0.139462 -2.128924 0
M  V30 17 C -5.494521 -0.480923 -2.466350 0
M  V30 18 N -5.861894 -1.773221 -1.939060 0
M  V30 19 C -5.910087 -0.252285 -3.905507 0
M  V30 20 C -7.283501 0.148502 -3.352442 0
M  V30 21 C -6.533680 0.552395 -2.100083 0
M  V30 22 C -3.099395 0.365733 -2.920594 0
M  V30 23 C -1.844360 0.624662 -2.409945 0
M  V30 24 C 0.474730 -0.436858 -0.011485 0
M  V30 25 C 0.138236 -1.857522 0.064827 0
M  V30 26 C -0.080106 -2.642376 -1.043463 0
M  V30 27 C -0.389483 -3.966604 -0.818834 0
M  V30 28 C -0.482794 -4.507639 0.447378 0
M  V30 29 C -0.254579 -3.680745 1.550215 0
M  V30 30 C 0.059163 -2.340696 1.346681 0
M  V30 31 N 1.667578 0.031171 0.456103 0
M  V30 32 C 2.748728 -0.563238 1.044703 0
M  V30 33 H 4.151696 -1.421192 5.881775 0
M  V30 34 H 5.164087 -1.669576 7.365905 0
M  V30 35 H 5.291270 -0.120564 6.498493 0
M  V30 36 H 6.304387 -2.867474 5.600825 0
M  V30 37 H 7.212677 -1.363202 5.797389 0
M  V30 38 H 4.891603 0.320995 4.039073 0
M  V30 39 H 3.871056 -1.124358 3.881197 0
M  V30 40 H 5.894084 -0.021034 1.846639 0
M  V30 41 H 5.093797 -1.575756 1.599730 0
M  V30 42 H 4.739926 2.097536 1.520883 0
M  V30 43 H 2.775438 3.242828 0.440927 0
M  V30 44 H -2.306707 -0.303610 0.776068 0
M  V30 45 H -4.514760 -0.778781 -0.042286 0
M  V30 46 H -5.322178 -2.569134 -2.345705 0
M  V30 47 H -6.895154 -1.922729 -1.963121 0
M  V30 48 H -5.384087 0.542888 -4.430413 0
M  V30 49 H -6.035801 -1.224886 -4.436402 0
M  V30 50 H -7.657758 1.010360 -3.910268 0
M  V30 51 H -7.976331 -0.701291 -3.228019 0
M  V30 52 H -6.227716 1.591738 -2.146256 0
M  V30 53 H -7.023735 0.283544 -1.138373 0
M  V30 54 H -3.405905 0.524315 -3.945118 0
M  V30 55 H -1.092325 1.019231 -3.073144 0
M  V30 56 H 0.004672 -2.172803 -2.008473 0
M  V30 57 H -0.560324 -4.580022 -1.691846 0
M  V30 58 H -0.726324 -5.547938 0.604587 0
M  V30 59 H -0.324827 -4.091663 2.533850 0
M  V30 60 H 0.221406 -1.763996 2.226349 0
M  V30 61 H 2.711084 -1.642234 1.202169 0
M  V30 END ATOM
M  V30 BEGIN BOND
M  V30 1 1 1 2
M  V30 2 1 2 3
M  V30 3 2 3 4
M  V30 4 1 3 5
M  V30 5 1 5 6
M  V30 6 1 6 7
M  V30 7 1 7 8
M  V30 8 2 8 9
M  V30 9 1 9 10
M  V30 10 2 10 11
M  V30 11 1 11 12
M  V30 12 1 12 13
M  V30 13 2 13 14
M  V30 14 1 14 15
M  V30 15 2 15 16
M  V30 16 1 16 17
M  V30 17 1 17 18
M  V30 18 1 17 19
M  V30 19 1 19 20
M  V30 20 1 20 21
M  V30 21 1 16 22
M  V30 22 2 22 23
M  V30 23 2 12 24
M  V30 24 1 24 25
M  V30 25 2 25 26
M  V30 26 1 26 27
M  V30 27 2 27 28
M  V30 28 1 28 29
M  V30 29 2 29 30
M  V30 30 1 24 31
M  V30 31 1 31 32
M  V30 32 2 32 7
M  V30 33 1 31 10
M  V30 34 1 23 13
M  V30 35 1 30 25
M  V30 36 1 21 17
M  V30 37 1 1 33
M  V30 38 1 1 34
M  V30 39 1 1 35
M  V30 40 1 2 36
M  V30 41 1 2 37
M  V30 42 1 5 38
M  V30 43 1 5 39
M  V30 44 1 6 40
M  V30 45 1 6 41
M  V30 46 1 8 42
M  V30 47 1 9 43
M  V30 48 1 14 44
M  V30 49 1 15 45
M  V30 50 1 18 46
M  V30 51 1 18 47
M  V30 52 1 19 48
M  V30 53 1 19 49
M  V30 54 1 20 50
M  V30 55 1 20 51
M  V30 56 1 21 52
M  V30 57 1 21 53
M  V30 58 1 22 54
M  V30 59 1 23 55
M  V30 60 1 26 56
M  V30 61 1 27 57
M  V30 62 1 28 58
M  V30 63 1 29 59
M  V30 64 1 30 60
M  V30 65 1 32 61
M  V30 END BOND
M  V30 END CTAB
M  END
>  <Dataset>  (32) 
ChEMBL_Kinases

>  <Ligand_Instance>  (32) 
nan

>  <PDB_ID>  (32) 
nan

>  <Standardized_SMILES>  (32) 
CCC(=O)CCc1ccc2nc(-c3ccc(C4(N)CCC4)cc3)c(-c3ccccc3)n2c1

>  <Name>  (32) 
nan

>  <Pocket>  (32) 
nan

>  <ATP_Site>  (32) 
nan

>  <Peripheral>  (32) 
nan

>  <Num_H_Atoms_ProtBoundConf>  (32) 
nan

>  <Num_Resolved_Atoms>  (32) 
nan

>  <Num_Not_Resolved_Atoms>  (32) 
nan

$$$$
CHEMBL52128
     RDKit          3D

  0  0  0  0  0  0  0  0  0  0999 V3000
M  V30 BEGIN CTAB
M  V30 COUNTS 46 50 0 0 0
M  V30 BEGIN ATOM
M  V30 1 C 1.279794 -3.517325 2.778304 0
M  V30 2 N 0.179937 -3.126094 1.929881 0
M  V30 3 C -0.325436 -1.872582 1.791848 0
M  V30 4 C -1.402157 -1.848508 0.893153 0
M  V30 5 C -2.054086 -0.588516 0.638211 0
M  V30 6 C -1.382145 0.514607 0.391617 0
M  V30 7 C 0.024230 0.870184 0.285259 0
M  V30 8 C 0.861238 0.133410 -0.528362 0
M  V30 9 N 2.131916 0.592116 -0.514222 0
M  V30 10 C 3.337126 0.154890 -1.207646 0
M  V30 11 C 2.067247 1.651657 0.342382 0
M  V30 12 C 3.054105 2.523236 0.767316 0
M  V30 13 C 2.676213 3.513375 1.663318 0
M  V30 14 N 3.726024 4.376077 2.060869 0
M  V30 15 C 1.409856 3.700339 2.162608 0
M  V30 16 C 0.449650 2.821243 1.722938 0
M  V30 17 C 0.819880 1.842674 0.837508 0
M  V30 18 C -2.335525 1.617973 0.175171 0
M  V30 19 O -2.181253 2.857933 -0.090951 0
M  V30 20 N -3.676963 1.100211 0.310700 0
M  V30 21 C -3.481648 -0.289102 0.601556 0
M  V30 22 O -4.452571 -1.099848 0.791764 0
M  V30 23 C -1.501249 -3.164175 0.509315 0
M  V30 24 C -2.444708 -3.637829 -0.394060 0
M  V30 25 C -2.377725 -5.008942 -0.654796 0
M  V30 26 C -1.434975 -5.842229 -0.056570 0
M  V30 27 C -0.526699 -5.301815 0.831886 0
M  V30 28 C -0.552446 -3.947630 1.125751 0
M  V30 29 H 0.836636 -3.715916 3.779521 0
M  V30 30 H 1.687544 -4.473485 2.411128 0
M  V30 31 H 2.102904 -2.785736 2.820313 0
M  V30 32 H 0.112121 -1.051861 2.344876 0
M  V30 33 H 0.653597 -0.746364 -1.161833 0
M  V30 34 H 3.920688 -0.599954 -0.642728 0
M  V30 35 H 3.982787 1.055037 -1.434128 0
M  V30 36 H 3.104508 -0.238177 -2.240625 0
M  V30 37 H 4.056227 2.396100 0.390860 0
M  V30 38 H 3.442711 5.384302 2.121712 0
M  V30 39 H 4.522651 4.926706 2.348096 0
M  V30 40 H 1.168981 4.493019 2.864677 0
M  V30 41 H -0.563961 2.925362 2.091010 0
M  V30 42 H -4.580559 1.645212 0.215032 0
M  V30 43 H -3.186455 -3.006640 -0.873660 0
M  V30 44 H -3.054788 -5.484469 -1.338165 0
M  V30 45 H -1.421347 -6.905316 -0.294571 0
M  V30 46 H 0.216420 -5.889621 1.321637 0
M  V30 END ATOM
M  V30 BEGIN BOND
M  V30 1 1 1 2
M  V30 2 1 2 3
M  V30 3 2 3 4
M  V30 4 1 4 5
M  V30 5 2 5 6
M  V30 6 1 6 7
M  V30 7 2 7 8
M  V30 8 1 8 9
M  V30 9 1 9 10
M  V30 10 1 9 11
M  V30 11 2 11 12
M  V30 12 1 12 13
M  V30 13 1 13 14
M  V30 14 2 13 15
M  V30 15 1 15 16
M  V30 16 2 16 17
M  V30 17 1 6 18
M  V30 18 2 18 19
M  V30 19 1 18 20
M  V30 20 1 20 21
M  V30 21 2 21 22
M  V30 22 1 4 23
M  V30 23 2 23 24
M  V30 24 1 24 25
M  V30 25 2 25 26
M  V30 26 1 26 27
M  V30 27 2 27 28
M  V30 28 1 28 2
M  V30 29 1 21 5
M  V30 30 1 28 23
M  V30 31 1 17 7
M  V30 32 1 17 11
M  V30 33 1 1 29
M  V30 34 1 1 30
M  V30 35 1 1 31
M  V30 36 1 3 32
M  V30 37 1 8 33
M  V30 38 1 10 34
M  V30 39 1 10 35
M  V30 40 1 10 36
M  V30 41 1 12 37
M  V30 42 1 14 38
M  V30 43 1 14 39
M  V30 44 1 15 40
M  V30 45 1 16 41
M  V30 46 1 20 42
M  V30 47 1 24 43
M  V30 48 1 25 44
M  V30 49 1 26 45
M  V30 50 1 27 46
M  V30 END BOND
M  V30 END CTAB
M  END
>  <Dataset>  (33) 
ChEMBL_Kinases

>  <Ligand_Instance>  (33) 
nan

>  <PDB_ID>  (33) 
nan

>  <Standardized_SMILES>  (33) 
Cn1cc(C2=C(c3cn(C)c4cc(N)ccc34)C(=O)NC2=O)c2ccccc21

>  <Name>  (33) 
nan

>  <Pocket>  (33) 
nan

>  <ATP_Site>  (33) 
nan

>  <Peripheral>  (33) 
nan

>  <Num_H_Atoms_ProtBoundConf>  (33) 
nan

>  <Num_Resolved_Atoms>  (33) 
nan

>  <Num_Not_Resolved_Atoms>  (33) 
nan

$$$$
CHEMBL3732696
     RDKit          3D

  0  0  0  0  0  0  0  0  0  0999 V3000
M  V30 BEGIN CTAB
M  V30 COUNTS 49 53 0 0 0
M  V30 BEGIN ATOM
M  V30 1 Br -0.276680 -6.796585 3.167905 0
M  V30 2 C 0.347663 -5.317744 2.139565 0
M  V30 3 C 1.010399 -4.316911 2.798807 0
M  V30 4 C 1.443579 -3.271294 2.030115 0
M  V30 5 C 1.265148 -3.155376 0.675435 0
M  V30 6 C 1.644344 -2.099577 -0.232896 0
M  V30 7 C 2.692736 -2.594252 -1.072204 0
M  V30 8 S 3.131348 -1.130506 -2.171860 0
M  V30 9 C 1.930418 -0.054814 -1.440599 0
M  V30 10 N 1.573428 1.214748 -1.686933 0
M  V30 11 C 0.599851 1.857053 -1.031517 0
M  V30 12 C 0.284147 3.237355 -1.371832 0
M  V30 13 C -0.715170 3.918684 -0.709569 0
M  V30 14 C -0.918588 5.226513 -1.126237 0
M  V30 15 N -0.204546 5.826447 -2.112066 0
M  V30 16 C 0.761465 5.119316 -2.729375 0
M  V30 17 C 1.030139 3.814301 -2.378267 0
M  V30 18 N -0.000615 1.115431 -0.090680 0
M  V30 19 C 0.300406 -0.152039 0.211653 0
M  V30 20 N -0.511704 -0.590766 1.286021 0
M  V30 21 C 0.191929 -0.186061 2.507997 0
M  V30 22 C -0.279901 -0.871044 3.740102 0
M  V30 23 C -1.540307 -1.647167 3.502727 0
M  V30 24 N -2.477993 -0.912857 2.713300 0
M  V30 25 C -2.705309 -1.582513 1.462570 0
M  V30 26 C -1.582472 -1.187905 0.519507 0
M  V30 27 C 1.293972 -0.810599 -0.456844 0
M  V30 28 C 0.577310 -4.232165 0.104637 0
M  V30 29 C 0.089838 -5.350008 0.787897 0
M  V30 30 H 1.198218 -4.318845 3.860798 0
M  V30 31 H 1.983769 -2.465742 2.491110 0
M  V30 32 H 3.246690 -3.504991 -1.224925 0
M  V30 33 H -1.299161 3.470438 0.076698 0
M  V30 34 H -1.694097 5.791638 -0.629454 0
M  V30 35 H 1.335401 5.613607 -3.527454 0
M  V30 36 H 1.825776 3.305960 -2.921641 0
M  V30 37 H 0.018765 0.934514 2.657610 0
M  V30 38 H 1.272707 -0.265432 2.415555 0
M  V30 39 H -0.460069 -0.083500 4.529900 0
M  V30 40 H 0.542930 -1.521033 4.138401 0
M  V30 41 H -1.286821 -2.586804 2.973257 0
M  V30 42 H -1.963357 -1.974238 4.482370 0
M  V30 43 H -3.353542 -0.663601 3.218665 0
M  V30 44 H -3.709192 -1.406059 1.026377 0
M  V30 45 H -2.646994 -2.689680 1.641818 0
M  V30 46 H -1.259301 -2.006130 -0.117763 0
M  V30 47 H -2.061677 -0.429801 -0.165778 0
M  V30 48 H 0.378422 -4.244685 -0.976990 0
M  V30 49 H -0.430406 -6.132731 0.259690 0
M  V30 END ATOM
M  V30 BEGIN BOND
M  V30 1 1 1 2
M  V30 2 2 2 3
M  V30 3 1 3 4
M  V30 4 2 4 5
M  V30 5 1 5 6
M  V30 6 2 6 7
M  V30 7 1 7 8
M  V30 8 1 8 9
M  V30 9 2 9 10
M  V30 10 1 10 11
M  V30 11 1 11 12
M  V30 12 2 12 13
M  V30 13 1 13 14
M  V30 14 2 14 15
M  V30 15 1 15 16
M  V30 16 2 16 17
M  V30 17 2 11 18
M  V30 18 1 18 19
M  V30 19 1 19 20
M  V30 20 1 20 21
M  V30 21 1 21 22
M  V30 22 1 22 23
M  V30 23 1 23 24
M  V30 24 1 24 25
M  V30 25 1 25 26
M  V30 26 2 19 27
M  V30 27 1 5 28
M  V30 28 2 28 29
M  V30 29 1 29 2
M  V30 30 1 27 6
M  V30 31 1 27 9
M  V30 32 1 17 12
M  V30 33 1 26 20
M  V30 34 1 3 30
M  V30 35 1 4 31
M  V30 36 1 7 32
M  V30 37 1 13 33
M  V30 38 1 14 34
M  V30 39 1 16 35
M  V30 40 1 17 36
M  V30 41 1 21 37
M  V30 42 1 21 38
M  V30 43 1 22 39
M  V30 44 1 22 40
M  V30 45 1 23 41
M  V30 46 1 23 42
M  V30 47 1 24 43
M  V30 48 1 25 44
M  V30 49 1 25 45
M  V30 50 1 26 46
M  V30 51 1 26 47
M  V30 52 1 28 48
M  V30 53 1 29 49
M  V30 END BOND
M  V30 END CTAB
M  END
>  <Dataset>  (34) 
ChEMBL_Kinases

>  <Ligand_Instance>  (34) 
nan

>  <PDB_ID>  (34) 
nan

>  <Standardized_SMILES>  (34) 
Brc1ccc(-c2csc3nc(-c4ccncc4)nc(N4CCCNCC4)c23)cc1

>  <Name>  (34) 
nan

>  <Pocket>  (34) 
nan

>  <ATP_Site>  (34) 
nan

>  <Peripheral>  (34) 
nan

>  <Num_H_Atoms_ProtBoundConf>  (34) 
nan

>  <Num_Resolved_Atoms>  (34) 
nan

>  <Num_Not_Resolved_Atoms>  (34) 
nan

$$$$
CHEMBL521347
     RDKit          3D

  0  0  0  0  0  0  0  0  0  0999 V3000
M  V30 BEGIN CTAB
M  V30 COUNTS 51 55 0 0 0
M  V30 BEGIN ATOM
M  V30 1 C 1.600503 -3.029684 2.077140 0
M  V30 2 C 0.537628 -2.570915 1.190974 0
M  V30 3 C 0.377278 -1.354631 0.769463 0
M  V30 4 C 1.288576 -0.241556 1.129341 0
M  V30 5 O 1.235336 0.994713 0.758981 0
M  V30 6 N 2.448100 -0.006847 1.903834 0
M  V30 7 C 2.899537 1.344643 1.868385 0
M  V30 8 C 3.804240 1.523712 0.814979 0
M  V30 9 C 4.382719 2.766909 0.579793 0
M  V30 10 C 5.274871 3.331026 -0.308488 0
M  V30 11 N 5.432979 4.638665 0.003136 0
M  V30 12 N 4.685188 4.950367 1.052389 0
M  V30 13 C 4.045398 3.819624 1.407354 0
M  V30 14 C 3.151659 3.636278 2.445491 0
M  V30 15 C 2.573038 2.406724 2.686151 0
M  V30 16 F 1.693638 2.084187 3.652451 0
M  V30 17 C -0.680707 -0.725144 -0.050339 0
M  V30 18 C -1.791327 -0.205401 0.854195 0
M  V30 19 C -3.094112 -0.247047 0.314065 0
M  V30 20 C -4.279164 0.204768 0.884444 0
M  V30 21 C -4.152856 0.755745 2.122874 0
M  V30 22 Cl -5.589710 1.350653 2.913731 0
M  V30 23 C -2.934974 0.839960 2.728078 0
M  V30 24 C -1.821641 0.370045 2.095296 0
M  V30 25 F -0.674219 0.457509 2.788160 0
M  V30 26 N -1.389884 -1.832439 -0.732771 0
M  V30 27 C -1.269460 -3.041428 -0.373533 0
M  V30 28 C -2.047758 -4.006959 -1.136933 0
M  V30 29 C -2.070461 -5.365673 -0.921437 0
M  V30 30 C -2.809778 -6.268348 -1.650277 0
M  V30 31 N -3.574248 -5.824374 -2.650045 0
M  V30 32 C -3.633532 -4.516999 -2.955049 0
M  V30 33 Cl -4.633274 -3.905126 -4.268077 0
M  V30 34 C -2.879255 -3.642466 -2.203183 0
M  V30 35 N -0.352587 -3.530557 0.582435 0
M  V30 36 H 1.404915 -4.138990 2.237431 0
M  V30 37 H 1.530050 -2.602660 3.096713 0
M  V30 38 H 2.577286 -2.987852 1.591300 0
M  V30 39 H 2.790300 -0.869623 2.380029 0
M  V30 40 H 4.139386 0.775819 0.108506 0
M  V30 41 H 5.740732 2.749924 -1.112433 0
M  V30 42 H 4.625910 5.896378 1.493391 0
M  V30 43 H 2.831161 4.399439 3.139713 0
M  V30 44 H -0.362755 -0.004593 -0.789346 0
M  V30 45 H -3.220957 -0.687040 -0.686002 0
M  V30 46 H -5.205591 0.113700 0.366935 0
M  V30 47 H -2.848919 1.279021 3.709152 0
M  V30 48 H -1.478242 -5.789464 -0.131876 0
M  V30 49 H -2.788602 -7.329054 -1.435230 0
M  V30 50 H -2.947794 -2.579926 -2.475579 0
M  V30 51 H -0.290921 -4.511718 0.858952 0
M  V30 END ATOM
M  V30 BEGIN BOND
M  V30 1 1 1 2
M  V30 2 2 2 3
M  V30 3 1 3 4
M  V30 4 2 4 5
M  V30 5 1 4 6
M  V30 6 1 6 7
M  V30 7 2 7 8
M  V30 8 1 8 9
M  V30 9 1 9 10
M  V30 10 2 10 11
M  V30 11 1 11 12
M  V30 12 1 12 13
M  V30 13 1 13 14
M  V30 14 2 14 15
M  V30 15 1 15 16
M  V30 16 1 3 17
M  V30 17 1 17 18
M  V30 18 2 18 19
M  V30 19 1 19 20
M  V30 20 2 20 21
M  V30 21 1 21 22
M  V30 22 1 21 23
M  V30 23 2 23 24
M  V30 24 1 24 25
M  V30 25 1 17 26
M  V30 26 2 26 27
M  V30 27 1 27 28
M  V30 28 2 28 29
M  V30 29 1 29 30
M  V30 30 2 30 31
M  V30 31 1 31 32
M  V30 32 1 32 33
M  V30 33 2 32 34
M  V30 34 1 27 35
M  V30 35 1 35 2
M  V30 36 1 15 7
M  V30 37 1 24 18
M  V30 38 1 34 28
M  V30 39 2 13 9
M  V30 40 1 1 36
M  V30 41 1 1 37
M  V30 42 1 1 38
M  V30 43 1 6 39
M  V30 44 1 8 40
M  V30 45 1 10 41
M  V30 46 1 12 42
M  V30 47 1 14 43
M  V30 48 1 17 44
M  V30 49 1 19 45
M  V30 50 1 20 46
M  V30 51 1 23 47
M  V30 52 1 29 48
M  V30 53 1 30 49
M  V30 54 1 34 50
M  V30 55 1 35 51
M  V30 END BOND
M  V30 END CTAB
M  END
>  <Dataset>  (35) 
ChEMBL_Kinases

>  <Ligand_Instance>  (35) 
nan

>  <PDB_ID>  (35) 
nan

>  <Standardized_SMILES>  (35) 
CC1=C(C(=O)Nc2cc3cn[nH]c3cc2F)C(c2ccc(Cl)cc2F)N=C(c2ccnc(Cl)c2)N1

>  <Name>  (35) 
nan

>  <Pocket>  (35) 
nan

>  <ATP_Site>  (35) 
nan

>  <Peripheral>  (35) 
nan

>  <Num_H_Atoms_ProtBoundConf>  (35) 
nan

>  <Num_Resolved_Atoms>  (35) 
nan

>  <Num_Not_Resolved_Atoms>  (35) 
nan

$$$$
CHEMBL521368
     RDKit          3D

  0  0  0  0  0  0  0  0  0  0999 V3000
M  V30 BEGIN CTAB
M  V30 COUNTS 49 51 0 0 0
M  V30 BEGIN ATOM
M  V30 1 O -0.819048 -2.641805 3.251290 0
M  V30 2 C 0.055803 -2.399863 2.348406 0
M  V30 3 O 1.426666 -2.137829 2.145542 0
M  V30 4 C 1.809531 -2.640028 0.898953 0
M  V30 5 C 2.548414 -3.940785 1.169022 0
M  V30 6 O 1.743437 -4.862350 1.824619 0
M  V30 7 C 2.749115 -1.743851 0.153267 0
M  V30 8 O 2.116714 -0.488327 -0.051017 0
M  V30 9 C 2.854673 0.484860 -0.743184 0
M  V30 10 O 3.966306 -0.017347 -1.036610 0
M  V30 11 C 2.287546 1.850972 -1.015574 0
M  V30 12 C 1.033399 1.707275 -1.816989 0
M  V30 13 C -0.202116 2.170940 -1.111794 0
M  V30 14 C -0.254400 1.705223 0.316642 0
M  V30 15 C 0.974278 2.044817 1.104693 0
M  V30 16 C 2.116902 2.570413 0.290389 0
M  V30 17 C 0.586553 -2.853251 0.054933 0
M  V30 18 C -0.497366 -2.366280 0.975727 0
M  V30 19 C -1.718692 -1.975694 0.580005 0
M  V30 20 C -2.782575 -1.486739 1.448009 0
M  V30 21 C -2.727046 -0.581602 2.511001 0
M  V30 22 C -3.874314 -0.284020 3.201303 0
M  V30 23 C -5.107141 -0.814695 2.927707 0
M  V30 24 C -5.197376 -1.705800 1.890332 0
M  V30 25 C -4.053041 -2.015015 1.187705 0
M  V30 26 H 3.360918 -3.675667 1.900429 0
M  V30 27 H 3.049392 -4.333271 0.274885 0
M  V30 28 H 2.002266 -5.794176 1.599936 0
M  V30 29 H 3.690745 -1.569262 0.731891 0
M  V30 30 H 2.999980 -2.186845 -0.830599 0
M  V30 31 H 3.084966 2.402738 -1.571638 0
M  V30 32 H 0.882637 0.671150 -2.194766 0
M  V30 33 H 1.143763 2.339229 -2.738128 0
M  V30 34 H -1.073165 1.730684 -1.639540 0
M  V30 35 H -0.214174 3.275158 -1.128900 0
M  V30 36 H -0.450939 0.608222 0.315478 0
M  V30 37 H -1.188373 2.142688 0.772029 0
M  V30 38 H 0.710149 2.834610 1.865191 0
M  V30 39 H 1.258417 1.157693 1.710547 0
M  V30 40 H 2.039686 3.670411 0.180686 0
M  V30 41 H 3.059771 2.373010 0.876411 0
M  V30 42 H 0.434815 -3.908421 -0.248645 0
M  V30 43 H 0.555531 -2.197536 -0.829256 0
M  V30 44 H -1.953038 -2.023979 -0.497635 0
M  V30 45 H -1.751780 -0.184951 2.683026 0
M  V30 46 H -3.744063 0.435947 4.021181 0
M  V30 47 H -5.992981 -0.564978 3.484434 0
M  V30 48 H -6.147954 -2.152664 1.634964 0
M  V30 49 H -4.199889 -2.736458 0.369244 0
M  V30 END ATOM
M  V30 BEGIN BOND
M  V30 1 2 1 2
M  V30 2 1 2 3
M  V30 3 1 3 4
M  V30 4 1 4 5
M  V30 5 1 5 6
M  V30 6 1 4 7
M  V30 7 1 7 8
M  V30 8 1 8 9
M  V30 9 2 9 10
M  V30 10 1 9 11
M  V30 11 1 11 12
M  V30 12 1 12 13
M  V30 13 1 13 14
M  V30 14 1 14 15
M  V30 15 1 15 16
M  V30 16 1 4 17
M  V30 17 1 17 18
M  V30 18 2 18 19
M  V30 19 1 19 20
M  V30 20 2 20 21
M  V30 21 1 21 22
M  V30 22 2 22 23
M  V30 23 1 23 24
M  V30 24 2 24 25
M  V30 25 1 18 2
M  V30 26 1 25 20
M  V30 27 1 16 11
M  V30 28 1 5 26
M  V30 29 1 5 27
M  V30 30 1 6 28
M  V30 31 1 7 29
M  V30 32 1 7 30
M  V30 33 1 11 31
M  V30 34 1 12 32
M  V30 35 1 12 33
M  V30 36 1 13 34
M  V30 37 1 13 35
M  V30 38 1 14 36
M  V30 39 1 14 37
M  V30 40 1 15 38
M  V30 41 1 15 39
M  V30 42 1 16 40
M  V30 43 1 16 41
M  V30 44 1 17 42
M  V30 45 1 17 43
M  V30 46 1 19 44
M  V30 47 1 21 45
M  V30 48 1 22 46
M  V30 49 1 23 47
M  V30 50 1 24 48
M  V30 51 1 25 49
M  V30 END BOND
M  V30 END CTAB
M  END
>  <Dataset>  (36) 
ChEMBL_Kinases

>  <Ligand_Instance>  (36) 
nan

>  <PDB_ID>  (36) 
nan

>  <Standardized_SMILES>  (36) 
O=C1OC(CO)(COC(=O)C2CCCCC2)C/C1=C/c1ccccc1

>  <Name>  (36) 
nan

>  <Pocket>  (36) 
nan

>  <ATP_Site>  (36) 
nan

>  <Peripheral>  (36) 
nan

>  <Num_H_Atoms_ProtBoundConf>  (36) 
nan

>  <Num_Resolved_Atoms>  (36) 
nan

>  <Num_Not_Resolved_Atoms>  (36) 
nan

$$$$
CHEMBL521424
     RDKit          3D

  0  0  0  0  0  0  0  0  0  0999 V3000
M  V30 BEGIN CTAB
M  V30 COUNTS 53 57 0 0 0
M  V30 BEGIN ATOM
M  V30 1 N 1.123780 -3.408440 3.338132 0
M  V30 2 C 2.487481 -3.316605 2.968139 0
M  V30 3 O 3.327294 -4.274262 2.929657 0
M  V30 4 C 3.011462 -2.015310 2.589446 0
M  V30 5 C 4.344640 -1.859821 2.217802 0
M  V30 6 C 4.865075 -0.624243 1.852027 0
M  V30 7 C 4.053522 0.485921 1.852023 0
M  V30 8 C 2.714734 0.388176 2.214547 0
M  V30 9 C 1.791916 1.571836 2.227228 0
M  V30 10 N 1.149355 1.726911 0.931507 0
M  V30 11 C 1.679264 2.469798 -0.048578 0
M  V30 12 N 0.829830 2.395858 -1.110907 0
M  V30 13 C -0.223846 1.612604 -0.797746 0
M  V30 14 C -1.389770 1.232666 -1.600400 0
M  V30 15 C -2.595797 1.685299 -1.055808 0
M  V30 16 C -3.795090 1.418161 -1.679231 0
M  V30 17 C -3.780424 0.687642 -2.863391 0
M  V30 18 F -4.919968 0.387028 -3.533051 0
M  V30 19 C -2.575959 0.233479 -3.410588 0
M  V30 20 C -1.384700 0.508872 -2.775063 0
M  V30 21 C -0.023132 1.179062 0.516691 0
M  V30 22 C -0.868653 0.308765 1.329683 0
M  V30 23 C -1.501764 0.652663 2.499782 0
M  V30 24 C -2.266330 -0.306874 3.140971 0
M  V30 25 N -2.361035 -1.530437 2.599770 0
M  V30 26 C -1.744922 -1.877490 1.453667 0
M  V30 27 N -1.886067 -3.207501 0.924402 0
M  V30 28 C -1.209877 -3.543879 -0.304347 0
M  V30 29 C -1.484533 -2.833133 -1.562601 0
M  V30 30 C -2.022904 -4.218885 -1.351881 0
M  V30 31 N -1.013896 -0.948732 0.847532 0
M  V30 32 C 2.246968 -0.868718 2.570732 0
M  V30 33 H 0.369791 -4.052145 3.046372 0
M  V30 34 H 0.683872 -2.758831 4.026331 0
M  V30 35 H 5.010522 -2.734951 2.210704 0
M  V30 36 H 5.899360 -0.586454 1.579421 0
M  V30 37 H 4.453722 1.449416 1.568168 0
M  V30 38 H 2.339751 2.508562 2.517173 0
M  V30 39 H 1.017219 1.448307 3.010353 0
M  V30 40 H 2.598177 3.045077 -0.067313 0
M  V30 41 H -2.673885 2.258455 -0.136481 0
M  V30 42 H -4.745731 1.762929 -1.270135 0
M  V30 43 H -2.539272 -0.336240 -4.328524 0
M  V30 44 H -0.399985 0.204045 -3.113553 0
M  V30 45 H -1.365396 1.650975 2.848823 0
M  V30 46 H -2.744318 0.011995 4.057787 0
M  V30 47 H -2.470610 -3.889973 1.440939 0
M  V30 48 H -0.154860 -3.879436 -0.133075 0
M  V30 49 H -0.648045 -2.728575 -2.285481 0
M  V30 50 H -2.234211 -2.007412 -1.615571 0
M  V30 51 H -1.495594 -5.078833 -1.849603 0
M  V30 52 H -3.100125 -4.389189 -1.214208 0
M  V30 53 H 1.209030 -1.022114 2.865328 0
M  V30 END ATOM
M  V30 BEGIN BOND
M  V30 1 1 1 2
M  V30 2 2 2 3
M  V30 3 1 2 4
M  V30 4 2 4 5
M  V30 5 1 5 6
M  V30 6 2 6 7
M  V30 7 1 7 8
M  V30 8 1 8 9
M  V30 9 1 9 10
M  V30 10 1 10 11
M  V30 11 2 11 12
M  V30 12 1 12 13
M  V30 13 1 13 14
M  V30 14 2 14 15
M  V30 15 1 15 16
M  V30 16 2 16 17
M  V30 17 1 17 18
M  V30 18 1 17 19
M  V30 19 2 19 20
M  V30 20 2 13 21
M  V30 21 1 21 22
M  V30 22 2 22 23
M  V30 23 1 23 24
M  V30 24 2 24 25
M  V30 25 1 25 26
M  V30 26 1 26 27
M  V30 27 1 27 28
M  V30 28 1 28 29
M  V30 29 1 29 30
M  V30 30 2 26 31
M  V30 31 2 8 32
M  V30 32 1 32 4
M  V30 33 1 21 10
M  V30 34 1 31 22
M  V30 35 1 20 14
M  V30 36 1 30 28
M  V30 37 1 1 33
M  V30 38 1 1 34
M  V30 39 1 5 35
M  V30 40 1 6 36
M  V30 41 1 7 37
M  V30 42 1 9 38
M  V30 43 1 9 39
M  V30 44 1 11 40
M  V30 45 1 15 41
M  V30 46 1 16 42
M  V30 47 1 19 43
M  V30 48 1 20 44
M  V30 49 1 23 45
M  V30 50 1 24 46
M  V30 51 1 27 47
M  V30 52 1 28 48
M  V30 53 1 29 49
M  V30 54 1 29 50
M  V30 55 1 30 51
M  V30 56 1 30 52
M  V30 57 1 32 53
M  V30 END BOND
M  V30 END CTAB
M  END
>  <Dataset>  (37) 
ChEMBL_Kinases

>  <Ligand_Instance>  (37) 
nan

>  <PDB_ID>  (37) 
nan

>  <Standardized_SMILES>  (37) 
NC(=O)c1cccc(Cn2cnc(-c3ccc(F)cc3)c2-c2ccnc(NC3CC3)n2)c1

>  <Name>  (37) 
nan

>  <Pocket>  (37) 
nan

>  <ATP_Site>  (37) 
nan

>  <Peripheral>  (37) 
nan

>  <Num_H_Atoms_ProtBoundConf>  (37) 
nan

>  <Num_Resolved_Atoms>  (37) 
nan

>  <Num_Not_Resolved_Atoms>  (37) 
nan

$$$$
CHEMBL521441
     RDKit          3D

  0  0  0  0  0  0  0  0  0  0999 V3000
M  V30 BEGIN CTAB
M  V30 COUNTS 45 48 0 0 0
M  V30 BEGIN ATOM
M  V30 1 C 4.580535 -4.473757 -2.142456 0
M  V30 2 C 4.806955 -4.472242 -0.622534 0
M  V30 3 C 3.829622 -3.599208 0.028149 0
M  V30 4 O 3.286279 -3.285456 -1.071558 0
M  V30 5 N 3.341976 -3.060574 1.232154 0
M  V30 6 C 2.234850 -2.166082 1.154676 0
M  V30 7 N 2.524844 -0.855032 1.014444 0
M  V30 8 C 1.355363 -0.153105 0.957490 0
M  V30 9 C 1.093745 1.274890 0.812098 0
M  V30 10 C 1.583691 1.818946 -0.374137 0
M  V30 11 C 1.422202 3.143295 -0.665876 0
M  V30 12 C 0.756634 3.969623 0.234816 0
M  V30 13 F 0.563221 5.290826 0.005392 0
M  V30 14 C 0.295981 3.363458 1.393112 0
M  V30 15 C -0.414182 4.257065 2.348421 0
M  V30 16 N 0.454420 2.065251 1.678882 0
M  V30 17 C 0.401797 -1.142758 1.073470 0
M  V30 18 C -1.048797 -0.851547 1.063545 0
M  V30 19 C -1.697418 -0.281521 -0.026815 0
M  V30 20 C -3.070226 -0.040740 0.051893 0
M  V30 21 C -3.783373 -0.360469 1.191918 0
M  V30 22 N -5.110274 -0.133192 1.282622 0
M  V30 23 C -5.807440 -0.442935 2.390995 0
M  V30 24 C -5.184677 -1.010800 3.488173 0
M  V30 25 N -3.845009 -1.247853 3.415496 0
M  V30 26 C -3.145229 -0.930559 2.287301 0
M  V30 27 C -1.770182 -1.172361 2.210108 0
M  V30 28 N 0.908315 -2.379111 1.195005 0
M  V30 29 H 4.827028 -3.496074 -2.599329 0
M  V30 30 H 3.516167 -4.754302 -2.373788 0
M  V30 31 H 5.253590 -5.227527 -2.589088 0
M  V30 32 H 5.856553 -4.135229 -0.496785 0
M  V30 33 H 4.789842 -5.530830 -0.298188 0
M  V30 34 H 4.014260 -3.533509 1.872656 0
M  V30 35 H 2.115602 1.276442 -1.147551 0
M  V30 36 H 1.784335 3.614831 -1.574019 0
M  V30 37 H -1.080813 3.607913 2.973482 0
M  V30 38 H -1.110997 4.949476 1.832572 0
M  V30 39 H 0.268403 4.860956 2.955470 0
M  V30 40 H -1.112138 -0.042774 -0.904120 0
M  V30 41 H -3.571055 0.405826 -0.805558 0
M  V30 42 H -6.880560 -0.272979 2.498985 0
M  V30 43 H -5.640119 -1.300930 4.428632 0
M  V30 44 H -1.242475 -1.614394 3.042910 0
M  V30 45 H 0.477590 -3.303951 1.297081 0
M  V30 END ATOM
M  V30 BEGIN BOND
M  V30 1 1 1 2
M  V30 2 1 2 3
M  V30 3 2 3 4
M  V30 4 1 3 5
M  V30 5 1 5 6
M  V30 6 2 6 7
M  V30 7 1 7 8
M  V30 8 1 8 9
M  V30 9 2 9 10
M  V30 10 1 10 11
M  V30 11 2 11 12
M  V30 12 1 12 13
M  V30 13 1 12 14
M  V30 14 1 14 15
M  V30 15 2 14 16
M  V30 16 2 8 17
M  V30 17 1 17 18
M  V30 18 2 18 19
M  V30 19 1 19 20
M  V30 20 2 20 21
M  V30 21 1 21 22
M  V30 22 2 22 23
M  V30 23 1 23 24
M  V30 24 2 24 25
M  V30 25 1 25 26
M  V30 26 2 26 27
M  V30 27 1 17 28
M  V30 28 1 28 6
M  V30 29 1 16 9
M  V30 30 1 27 18
M  V30 31 1 26 21
M  V30 32 1 1 29
M  V30 33 1 1 30
M  V30 34 1 1 31
M  V30 35 1 2 32
M  V30 36 1 2 33
M  V30 37 1 5 34
M  V30 38 1 10 35
M  V30 39 1 11 36
M  V30 40 1 15 37
M  V30 41 1 15 38
M  V30 42 1 15 39
M  V30 43 1 19 40
M  V30 44 1 20 41
M  V30 45 1 23 42
M  V30 46 1 24 43
M  V30 47 1 27 44
M  V30 48 1 28 45
M  V30 END BOND
M  V30 END CTAB
M  END
>  <Dataset>  (38) 
ChEMBL_Kinases

>  <Ligand_Instance>  (38) 
nan

>  <PDB_ID>  (38) 
nan

>  <Standardized_SMILES>  (38) 
CCC(=O)Nc1nc(-c2ccc(F)c(C)n2)c(-c2ccc3nccnc3c2)[nH]1

>  <Name>  (38) 
nan

>  <Pocket>  (38) 
nan

>  <ATP_Site>  (38) 
nan

>  <Peripheral>  (38) 
nan

>  <Num_H_Atoms_ProtBoundConf>  (38) 
nan

>  <Num_Resolved_Atoms>  (38) 
nan

>  <Num_Not_Resolved_Atoms>  (38) 
nan

$$$$
CHEMBL574621
     RDKit          3D

  0  0  0  0  0  0  0  0  0  0999 V3000
M  V30 BEGIN CTAB
M  V30 COUNTS 45 47 0 0 0
M  V30 BEGIN ATOM
M  V30 1 C -1.794452 -6.506164 0.537674 0
M  V30 2 O -1.464082 -5.717618 1.659227 0
M  V30 3 C -1.123608 -4.378402 1.575094 0
M  V30 4 C -1.045253 -3.588219 0.447152 0
M  V30 5 C -0.685169 -2.262346 0.552889 0
M  V30 6 N -0.633500 -1.464695 -0.624019 0
M  V30 7 C -0.107410 -0.149111 -0.628147 0
M  V30 8 C 1.121660 0.190775 -1.151200 0
M  V30 9 C 1.483236 1.533857 -1.057673 0
M  V30 10 O 2.718559 1.966390 -1.567156 0
M  V30 11 C 3.016335 3.334349 -1.411819 0
M  V30 12 C 2.524360 4.078377 -2.464099 0
M  V30 13 C 2.697001 5.453891 -2.529837 0
M  V30 14 C 3.396890 6.041717 -1.469669 0
M  V30 15 N 3.866271 5.293629 -0.455092 0
M  V30 16 C 3.694691 3.960983 -0.399191 0
M  V30 17 C 0.587151 2.390723 -0.455114 0
M  V30 18 C -0.639161 2.043558 0.065350 0
M  V30 19 N -0.956514 0.723516 -0.045838 0
M  V30 20 C -0.395586 -1.679480 1.741133 0
M  V30 21 C -0.467714 -2.458147 2.902158 0
M  V30 22 O -0.176983 -1.886517 4.128548 0
M  V30 23 C 0.188682 -0.517015 4.164178 0
M  V30 24 C -0.831665 -3.806159 2.818624 0
M  V30 25 O -0.881062 -4.513647 4.032276 0
M  V30 26 C -2.097519 -4.552433 4.783995 0
M  V30 27 H -1.446042 -6.097525 -0.420884 0
M  V30 28 H -1.336198 -7.532884 0.597898 0
M  V30 29 H -2.898239 -6.698970 0.536443 0
M  V30 30 H -1.281316 -4.081744 -0.481541 0
M  V30 31 H -0.943349 -1.696370 -1.577429 0
M  V30 32 H 1.750817 -0.558065 -1.604417 0
M  V30 33 H 1.973719 3.702009 -3.318749 0
M  V30 34 H 2.323878 6.085671 -3.343390 0
M  V30 35 H 3.570694 7.118598 -1.452053 0
M  V30 36 H 4.035026 3.288610 0.368409 0
M  V30 37 H 0.911736 3.421355 -0.404980 0
M  V30 38 H -1.246619 2.804808 0.512171 0
M  V30 39 H -0.110898 -0.618328 1.770138 0
M  V30 40 H -0.709774 0.076546 3.820749 0
M  V30 41 H 1.002122 -0.278720 3.443642 0
M  V30 42 H 0.533580 -0.183877 5.146464 0
M  V30 43 H -2.875639 -5.157704 4.258664 0
M  V30 44 H -2.532310 -3.552836 4.920025 0
M  V30 45 H -1.887511 -4.945392 5.799544 0
M  V30 END ATOM
M  V30 BEGIN BOND
M  V30 1 1 1 2
M  V30 2 1 2 3
M  V30 3 2 3 4
M  V30 4 1 4 5
M  V30 5 1 5 6
M  V30 6 1 6 7
M  V30 7 2 7 8
M  V30 8 1 8 9
M  V30 9 1 9 10
M  V30 10 1 10 11
M  V30 11 2 11 12
M  V30 12 1 12 13
M  V30 13 2 13 14
M  V30 14 1 14 15
M  V30 15 2 15 16
M  V30 16 2 9 17
M  V30 17 1 17 18
M  V30 18 2 18 19
M  V30 19 2 5 20
M  V30 20 1 20 21
M  V30 21 1 21 22
M  V30 22 1 22 23
M  V30 23 2 21 24
M  V30 24 1 24 25
M  V30 25 1 25 26
M  V30 26 1 24 3
M  V30 27 1 19 7
M  V30 28 1 16 11
M  V30 29 1 1 27
M  V30 30 1 1 28
M  V30 31 1 1 29
M  V30 32 1 4 30
M  V30 33 1 6 31
M  V30 34 1 8 32
M  V30 35 1 12 33
M  V30 36 1 13 34
M  V30 37 1 14 35
M  V30 38 1 16 36
M  V30 39 1 17 37
M  V30 40 1 18 38
M  V30 41 1 20 39
M  V30 42 1 23 40
M  V30 43 1 23 41
M  V30 44 1 23 42
M  V30 45 1 26 43
M  V30 46 1 26 44
M  V30 47 1 26 45
M  V30 END BOND
M  V30 END CTAB
M  END
>  <Dataset>  (39) 
ChEMBL_Kinases

>  <Ligand_Instance>  (39) 
nan

>  <PDB_ID>  (39) 
nan

>  <Standardized_SMILES>  (39) 
COc1cc(Nc2cc(Oc3cccnc3)ccn2)cc(OC)c1OC

>  <Name>  (39) 
nan

>  <Pocket>  (39) 
nan

>  <ATP_Site>  (39) 
nan

>  <Peripheral>  (39) 
nan

>  <Num_H_Atoms_ProtBoundConf>  (39) 
nan

>  <Num_Resolved_Atoms>  (39) 
nan

>  <Num_Not_Resolved_Atoms>  (39) 
nan

$$$$
CHEMBL521643
     RDKit          3D

  0  0  0  0  0  0  0  0  0  0999 V3000
M  V30 BEGIN CTAB
M  V30 COUNTS 34 37 0 0 0
M  V30 BEGIN ATOM
M  V30 1 C -0.792314 -3.226302 5.323295 0
M  V30 2 N 0.315058 -2.866003 4.445023 0
M  V30 3 C -0.461592 -2.145928 3.541491 0
M  V30 4 N 0.746413 -2.042428 2.795501 0
M  V30 5 C 0.887860 -1.408844 1.611096 0
M  V30 6 S 2.271758 -1.069584 0.393978 0
M  V30 7 C 1.206302 -0.132687 -0.750859 0
M  V30 8 C 1.751616 0.481414 -1.979765 0
M  V30 9 C 0.956107 1.177879 -2.862520 0
M  V30 10 C 1.336751 1.826689 -3.996346 0
M  V30 11 C 2.712331 1.767186 -4.284920 0
M  V30 12 C 3.603618 1.089122 -3.462194 0
M  V30 13 C 3.067530 0.485671 -2.357830 0
M  V30 14 N 0.138792 -0.160695 -0.224735 0
M  V30 15 C -0.101018 -0.755835 0.916124 0
M  V30 16 C -1.307803 -0.789319 1.543823 0
M  V30 17 C -1.177483 -1.482012 2.708367 0
M  V30 18 N -2.406453 -1.552620 3.415641 0
M  V30 19 C -3.303522 -0.873565 2.641045 0
M  V30 20 N -2.596433 -0.453869 1.567391 0
M  V30 21 C -3.092559 0.320716 0.444315 0
M  V30 22 H -0.358375 -3.787609 6.217591 0
M  V30 23 H -1.411593 -3.976677 4.812621 0
M  V30 24 H -1.387207 -2.391556 5.695676 0
M  V30 25 H 1.174821 -3.235891 4.797754 0
M  V30 26 H -0.108351 1.187420 -2.597999 0
M  V30 27 H 0.657592 2.348732 -4.615625 0
M  V30 28 H 3.130214 2.243941 -5.148296 0
M  V30 29 H 4.660400 1.044986 -3.687321 0
M  V30 30 H 3.776910 -0.066396 -1.734707 0
M  V30 31 H -4.352261 -0.691124 2.812359 0
M  V30 32 H -4.121711 0.648880 0.617237 0
M  V30 33 H -2.958705 -0.281421 -0.490885 0
M  V30 34 H -2.458300 1.224245 0.351915 0
M  V30 END ATOM
M  V30 BEGIN BOND
M  V30 1 1 1 2
M  V30 2 1 2 3
M  V30 3 2 3 4
M  V30 4 1 4 5
M  V30 5 1 5 6
M  V30 6 1 6 7
M  V30 7 1 7 8
M  V30 8 2 8 9
M  V30 9 1 9 10
M  V30 10 2 10 11
M  V30 11 1 11 12
M  V30 12 2 12 13
M  V30 13 2 7 14
M  V30 14 1 14 15
M  V30 15 1 15 16
M  V30 16 2 16 17
M  V30 17 1 17 18
M  V30 18 2 18 19
M  V30 19 1 19 20
M  V30 20 1 20 21
M  V30 21 1 17 3
M  V30 22 2 15 5
M  V30 23 1 20 16
M  V30 24 1 13 8
M  V30 25 1 1 22
M  V30 26 1 1 23
M  V30 27 1 1 24
M  V30 28 1 2 25
M  V30 29 1 9 26
M  V30 30 1 10 27
M  V30 31 1 11 28
M  V30 32 1 12 29
M  V30 33 1 13 30
M  V30 34 1 19 31
M  V30 35 1 21 32
M  V30 36 1 21 33
M  V30 37 1 21 34
M  V30 END BOND
M  V30 END CTAB
M  END
>  <Dataset>  (40) 
ChEMBL_Kinases

>  <Ligand_Instance>  (40) 
nan

>  <PDB_ID>  (40) 
nan

>  <Standardized_SMILES>  (40) 
CNc1nc2sc(-c3ccccc3)nc2c2c1ncn2C

>  <Name>  (40) 
nan

>  <Pocket>  (40) 
nan

>  <ATP_Site>  (40) 
nan

>  <Peripheral>  (40) 
nan

>  <Num_H_Atoms_ProtBoundConf>  (40) 
nan

>  <Num_Resolved_Atoms>  (40) 
nan

>  <Num_Not_Resolved_Atoms>  (40) 
nan

$$$$
CHEMBL521761
     RDKit          3D

  0  0  0  0  0  0  0  0  0  0999 V3000
M  V30 BEGIN CTAB
M  V30 COUNTS 44 47 0 0 0
M  V30 BEGIN ATOM
M  V30 1 C 0.202846 -5.280603 3.127712 0
M  V30 2 C 0.394371 -4.449013 1.914179 0
M  V30 3 C -0.303715 -3.261846 1.740947 0
M  V30 4 C -0.080884 -2.535126 0.591133 0
M  V30 5 C 0.787860 -2.890334 -0.416280 0
M  V30 6 C 0.966212 -2.077507 -1.586758 0
M  V30 7 N 1.007173 -2.512558 -2.857720 0
M  V30 8 O 1.183836 -1.493385 -3.667247 0
M  V30 9 C 1.262555 -0.384963 -2.972152 0
M  V30 10 C 1.438839 0.948182 -3.269430 0
M  V30 11 N 1.486570 1.926847 -2.351733 0
M  V30 12 C 1.358105 1.643724 -1.022113 0
M  V30 13 N 1.407511 2.658731 -0.026494 0
M  V30 14 C 1.265808 2.479807 1.403440 0 CFG=1
M  V30 15 C 1.415478 3.815542 2.120563 0
M  V30 16 C -0.034176 1.835722 1.774646 0
M  V30 17 C -0.292282 0.819399 2.692454 0
M  V30 18 C -1.591377 0.395912 2.854070 0
M  V30 19 C -2.632341 0.939266 2.144850 0
M  V30 20 C -2.377465 1.939266 1.241949 0
M  V30 21 C -1.091052 2.391661 1.050572 0
M  V30 22 C 1.180236 0.298740 -0.721120 0
M  V30 23 C 1.129494 -0.708178 -1.644561 0
M  V30 24 C 1.487990 -4.088240 -0.234663 0
M  V30 25 C 1.274492 -4.827324 0.913582 0
M  V30 26 H -0.783180 -5.066194 3.599952 0
M  V30 27 H 0.179266 -6.371742 2.889557 0
M  V30 28 H 1.033787 -5.161194 3.853714 0
M  V30 29 H -0.976358 -2.978938 2.512612 0
M  V30 30 H -0.671672 -1.629715 0.551329 0
M  V30 31 H 1.547739 1.237711 -4.314990 0
M  V30 32 H 1.562561 3.628558 -0.378960 0
M  V30 33 H 2.058905 1.814529 1.826624 0
M  V30 34 H 1.339204 4.652479 1.421562 0
M  V30 35 H 2.417030 3.921858 2.606247 0
M  V30 36 H 0.672861 3.827118 2.928071 0
M  V30 37 H 0.612928 0.485837 3.177087 0
M  V30 38 H -1.654223 -0.398982 3.597502 0
M  V30 39 H -3.588672 0.486435 2.397998 0
M  V30 40 H -3.249347 2.325443 0.713406 0
M  V30 41 H -1.025261 3.177771 0.315820 0
M  V30 42 H 1.073937 -0.008810 0.295583 0
M  V30 43 H 2.188052 -4.431110 -0.984856 0
M  V30 44 H 1.814246 -5.765596 1.069506 0
M  V30 END ATOM
M  V30 BEGIN BOND
M  V30 1 1 1 2
M  V30 2 2 2 3
M  V30 3 1 3 4
M  V30 4 2 4 5
M  V30 5 1 5 6
M  V30 6 2 6 7
M  V30 7 1 7 8
M  V30 8 1 8 9
M  V30 9 2 9 10
M  V30 10 1 10 11
M  V30 11 2 11 12
M  V30 12 1 12 13
M  V30 13 1 13 14
M  V30 14 1 14 15
M  V30 15 1 14 16
M  V30 16 2 16 17
M  V30 17 1 17 18
M  V30 18 2 18 19
M  V30 19 1 19 20
M  V30 20 2 20 21
M  V30 21 1 12 22
M  V30 22 2 22 23
M  V30 23 1 5 24
M  V30 24 2 24 25
M  V30 25 1 25 2
M  V30 26 1 23 6
M  V30 27 1 23 9
M  V30 28 1 21 16
M  V30 29 1 1 26
M  V30 30 1 1 27
M  V30 31 1 1 28
M  V30 32 1 3 29
M  V30 33 1 4 30
M  V30 34 1 10 31
M  V30 35 1 13 32
M  V30 36 1 14 33 CFG=1
M  V30 37 1 15 34
M  V30 38 1 15 35
M  V30 39 1 15 36
M  V30 40 1 17 37
M  V30 41 1 18 38
M  V30 42 1 19 39
M  V30 43 1 20 40
M  V30 44 1 21 41
M  V30 45 1 22 42
M  V30 46 1 24 43
M  V30 47 1 25 44
M  V30 END BOND
M  V30 END CTAB
M  END
>  <Dataset>  (41) 
ChEMBL_Kinases

>  <Ligand_Instance>  (41) 
nan

>  <PDB_ID>  (41) 
nan

>  <Standardized_SMILES>  (41) 
Cc1ccc(-c2noc3cnc(N[C@@H](C)c4ccccc4)cc23)cc1

>  <Name>  (41) 
nan

>  <Pocket>  (41) 
nan

>  <ATP_Site>  (41) 
nan

>  <Peripheral>  (41) 
nan

>  <Num_H_Atoms_ProtBoundConf>  (41) 
nan

>  <Num_Resolved_Atoms>  (41) 
nan

>  <Num_Not_Resolved_Atoms>  (41) 
nan

$$$$
CHEMBL521774
     RDKit          3D

  0  0  0  0  0  0  0  0  0  0999 V3000
M  V30 BEGIN CTAB
M  V30 COUNTS 44 48 0 0 0
M  V30 BEGIN ATOM
M  V30 1 C -4.041476 0.515545 4.360145 0
M  V30 2 O -2.665049 0.821179 4.130467 0
M  V30 3 C -1.856405 -0.046035 3.410279 0
M  V30 4 C -0.538176 0.310256 3.227896 0
M  V30 5 C 0.304603 -0.515448 2.521661 0
M  V30 6 C -0.083654 -1.706303 1.966950 0
M  V30 7 C 0.453188 -2.757422 1.227127 0
M  V30 8 C 1.857386 -2.744976 0.779039 0
M  V30 9 C 2.451284 -1.731414 0.173914 0
M  V30 10 C 2.153335 -0.383859 -0.290980 0
M  V30 11 C 2.885886 0.775129 -0.145522 0
M  V30 12 N 2.236227 1.777697 -0.736432 0
M  V30 13 C 2.730785 3.141168 -0.766277 0
M  V30 14 C 1.087988 1.355937 -1.282257 0
M  V30 15 C 0.126727 2.058957 -1.985600 0
M  V30 16 C -0.988668 1.374635 -2.462068 0
M  V30 17 Cl -2.247620 2.181445 -3.356414 0
M  V30 18 C -1.048868 0.010471 -2.186853 0
M  V30 19 F -2.126710 -0.667945 -2.647355 0
M  V30 20 C -0.068597 -0.656160 -1.480242 0
M  V30 21 C 1.032663 0.013050 -1.008239 0
M  V30 22 C 3.838145 -2.192868 -0.069333 0
M  V30 23 O 4.870035 -1.665321 -0.610811 0
M  V30 24 N 4.017730 -3.514993 0.421138 0
M  V30 25 C 2.749292 -3.880743 0.969197 0
M  V30 26 O 2.434055 -4.967217 1.515859 0
M  V30 27 C -0.561943 -3.681910 1.007361 0
M  V30 28 O -1.661396 -3.226251 1.577681 0
M  V30 29 C -1.421528 -2.072429 2.150351 0
M  V30 30 C -2.265993 -1.242333 2.859198 0
M  V30 31 H -4.447313 0.166166 3.369564 0
M  V30 32 H -4.139493 -0.312888 5.071656 0
M  V30 33 H -4.629051 1.379371 4.662949 0
M  V30 34 H -0.139953 1.234728 3.631505 0
M  V30 35 H 1.321730 -0.217667 2.406706 0
M  V30 36 H 3.850840 0.846939 0.376037 0
M  V30 37 H 3.194135 3.335247 0.235132 0
M  V30 38 H 1.931060 3.862172 -1.006477 0
M  V30 39 H 3.554938 3.189757 -1.495351 0
M  V30 40 H 0.187438 3.123854 -2.190958 0
M  V30 41 H -0.215881 -1.712415 -1.332200 0
M  V30 42 H 4.814316 -4.175133 0.443660 0
M  V30 43 H -0.254906 -4.548877 0.440003 0
M  V30 44 H -3.283222 -1.523914 2.995483 0
M  V30 END ATOM
M  V30 BEGIN BOND
M  V30 1 1 1 2
M  V30 2 1 2 3
M  V30 3 2 3 4
M  V30 4 1 4 5
M  V30 5 2 5 6
M  V30 6 1 6 7
M  V30 7 1 7 8
M  V30 8 2 8 9
M  V30 9 1 9 10
M  V30 10 2 10 11
M  V30 11 1 11 12
M  V30 12 1 12 13
M  V30 13 1 12 14
M  V30 14 2 14 15
M  V30 15 1 15 16
M  V30 16 1 16 17
M  V30 17 2 16 18
M  V30 18 1 18 19
M  V30 19 1 18 20
M  V30 20 2 20 21
M  V30 21 1 9 22
M  V30 22 2 22 23
M  V30 23 1 22 24
M  V30 24 1 24 25
M  V30 25 2 25 26
M  V30 26 2 7 27
M  V30 27 1 27 28
M  V30 28 1 28 29
M  V30 29 2 29 30
M  V30 30 1 30 3
M  V30 31 1 29 6
M  V30 32 1 25 8
M  V30 33 1 21 10
M  V30 34 1 21 14
M  V30 35 1 1 31
M  V30 36 1 1 32
M  V30 37 1 1 33
M  V30 38 1 4 34
M  V30 39 1 5 35
M  V30 40 1 11 36
M  V30 41 1 13 37
M  V30 42 1 13 38
M  V30 43 1 13 39
M  V30 44 1 15 40
M  V30 45 1 20 41
M  V30 46 1 24 42
M  V30 47 1 27 43
M  V30 48 1 30 44
M  V30 END BOND
M  V30 END CTAB
M  END
>  <Dataset>  (42) 
ChEMBL_Kinases

>  <Ligand_Instance>  (42) 
nan

>  <PDB_ID>  (42) 
nan

>  <Standardized_SMILES>  (42) 
COc1ccc2c(C3=C(c4cn(C)c5cc(Cl)c(F)cc45)C(=O)NC3=O)coc2c1

>  <Name>  (42) 
nan

>  <Pocket>  (42) 
nan

>  <ATP_Site>  (42) 
nan

>  <Peripheral>  (42) 
nan

>  <Num_H_Atoms_ProtBoundConf>  (42) 
nan

>  <Num_Resolved_Atoms>  (42) 
nan

>  <Num_Not_Resolved_Atoms>  (42) 
nan

$$$$
CHEMBL574613
     RDKit          3D

  0  0  0  0  0  0  0  0  0  0999 V3000
M  V30 BEGIN CTAB
M  V30 COUNTS 43 46 0 0 0
M  V30 BEGIN ATOM
M  V30 1 C -4.763267 -0.370111 -4.777555 0
M  V30 2 C -5.572368 -0.388459 -3.480203 0
M  V30 3 S -5.388726 -2.002647 -2.713839 0 CHG=1 VAL=3
M  V30 4 O -6.291205 -1.996885 -1.284256 0 CHG=-1 VAL=1
M  V30 5 C -3.712468 -2.276562 -2.294470 0
M  V30 6 C -2.789209 -2.870530 -3.149776 0
M  V30 7 C -1.472344 -3.058769 -2.754047 0
M  V30 8 C -1.028774 -2.665635 -1.501369 0
M  V30 9 C 0.345319 -2.839456 -1.032848 0
M  V30 10 C 1.116607 -3.999863 -1.179113 0
M  V30 11 O 2.317643 -3.826516 -0.644273 0
M  V30 12 C 2.419231 -2.625931 -0.142348 0
M  V30 13 C 3.390367 -1.888451 0.520133 0
M  V30 14 C 3.209777 -0.588295 0.950425 0
M  V30 15 C 1.982093 0.002897 0.699614 0
M  V30 16 C 1.752987 1.380279 1.140737 0
M  V30 17 C 0.588417 2.096562 0.962701 0
M  V30 18 C 0.801438 3.353911 1.529913 0
M  V30 19 C 2.090650 3.332755 2.024208 0
M  V30 20 C 2.748706 4.483829 2.723936 0
M  V30 21 O 2.610195 2.142381 1.768290 0
M  V30 22 C 0.990993 -0.688385 0.047142 0
M  V30 23 C 1.218802 -1.982847 -0.362551 0
M  V30 24 C -1.948406 -2.072920 -0.646777 0
M  V30 25 C -3.272782 -1.877438 -1.029638 0
M  V30 26 H -4.883283 0.650856 -5.210620 0
M  V30 27 H -3.710193 -0.596044 -4.566022 0
M  V30 28 H -5.181660 -1.112680 -5.466584 0
M  V30 29 H -5.131643 0.360705 -2.793606 0
M  V30 30 H -6.621039 -0.146528 -3.653861 0
M  V30 31 H -3.133434 -3.178944 -4.130049 0
M  V30 32 H -0.755783 -3.520525 -3.419803 0
M  V30 33 H 0.804148 -4.917639 -1.654315 0
M  V30 34 H 4.342838 -2.367013 0.707046 0
M  V30 35 H 4.014373 -0.074071 1.462030 0
M  V30 36 H -0.332195 1.792313 0.486767 0
M  V30 37 H 0.056174 4.145838 1.544419 0
M  V30 38 H 3.576934 4.127288 3.373948 0
M  V30 39 H 1.975838 5.065699 3.264964 0
M  V30 40 H 3.217340 5.171298 1.977290 0
M  V30 41 H 0.050763 -0.182888 -0.124662 0
M  V30 42 H -1.725269 -1.724576 0.352702 0
M  V30 43 H -3.995074 -1.414621 -0.365093 0
M  V30 END ATOM
M  V30 BEGIN BOND
M  V30 1 1 1 2
M  V30 2 1 2 3
M  V30 3 1 3 4 CFG=1
M  V30 4 1 3 5
M  V30 5 2 5 6
M  V30 6 1 6 7
M  V30 7 2 7 8
M  V30 8 1 8 9
M  V30 9 2 9 10
M  V30 10 1 10 11
M  V30 11 1 11 12
M  V30 12 2 12 13
M  V30 13 1 13 14
M  V30 14 2 14 15
M  V30 15 1 15 16
M  V30 16 2 16 17
M  V30 17 1 17 18
M  V30 18 2 18 19
M  V30 19 1 19 20
M  V30 20 1 19 21
M  V30 21 1 15 22
M  V30 22 2 22 23
M  V30 23 1 8 24
M  V30 24 2 24 25
M  V30 25 1 25 5
M  V30 26 1 23 9
M  V30 27 1 23 12
M  V30 28 1 21 16
M  V30 29 1 1 26
M  V30 30 1 1 27
M  V30 31 1 1 28
M  V30 32 1 2 29
M  V30 33 1 2 30
M  V30 34 1 6 31
M  V30 35 1 7 32
M  V30 36 1 10 33
M  V30 37 1 13 34
M  V30 38 1 14 35
M  V30 39 1 17 36
M  V30 40 1 18 37
M  V30 41 1 20 38
M  V30 42 1 20 39
M  V30 43 1 20 40
M  V30 44 1 22 41
M  V30 45 1 24 42
M  V30 46 1 25 43
M  V30 END BOND
M  V30 END CTAB
M  END
>  <Dataset>  (43) 
ChEMBL_Kinases

>  <Ligand_Instance>  (43) 
nan

>  <PDB_ID>  (43) 
nan

>  <Standardized_SMILES>  (43) 
CC[S@+]([O-])c1ccc(-c2coc3ccc(-c4ccc(C)o4)cc23)cc1

>  <Name>  (43) 
nan

>  <Pocket>  (43) 
nan

>  <ATP_Site>  (43) 
nan

>  <Peripheral>  (43) 
nan

>  <Num_H_Atoms_ProtBoundConf>  (43) 
nan

>  <Num_Resolved_Atoms>  (43) 
nan

>  <Num_Not_Resolved_Atoms>  (43) 
nan

$$$$
CHEMBL521200
     RDKit          3D

  0  0  0  0  0  0  0  0  0  0999 V3000
M  V30 BEGIN CTAB
M  V30 COUNTS 50 55 0 0 0
M  V30 BEGIN ATOM
M  V30 1 O 4.179198 1.072500 1.983605 0
M  V30 2 C 3.331753 0.285440 2.478222 0
M  V30 3 N 3.314400 -0.307338 3.772099 0
M  V30 4 C 2.160422 -1.121964 3.873034 0
M  V30 5 O 1.979955 -1.719403 4.935154 0
M  V30 6 C 1.406761 -1.079568 2.660573 0
M  V30 7 C 2.115132 -0.236903 1.835804 0
M  V30 8 C 1.676437 0.046497 0.553688 0
M  V30 9 C 2.404461 0.935724 -0.344701 0
M  V30 10 C 3.392114 0.603657 -1.248416 0
M  V30 11 C 3.947353 1.612887 -2.003266 0
M  V30 12 C 3.594761 2.939266 -1.929383 0
M  V30 13 C 2.594664 3.260958 -1.011381 0
M  V30 14 C 2.010861 2.258762 -0.230099 0
M  V30 15 Cl 0.760847 2.813867 0.887436 0
M  V30 16 C 0.506196 -0.537702 0.117821 0
M  V30 17 C -0.225885 -1.386667 0.922359 0
M  V30 18 C 0.257109 -1.633786 2.188353 0
M  V30 19 C -0.619013 -2.488817 2.784206 0
M  V30 20 C -0.763601 -3.124153 3.978299 0
M  V30 21 C -1.809232 -3.960990 4.281811 0
M  V30 22 O -1.960309 -4.619696 5.518196 0
M  V30 23 C -2.820995 -4.221611 3.357292 0
M  V30 24 C -2.677623 -3.574426 2.135160 0
M  V30 25 C -1.600424 -2.723895 1.848774 0
M  V30 26 N -1.373074 -2.045327 0.681565 0
M  V30 27 C -2.217936 -2.090515 -0.483143 0
M  V30 28 C -3.311229 -1.081519 -0.520259 0
M  V30 29 S -2.809296 0.629030 -0.491011 0
M  V30 30 N -1.961279 1.060233 -1.974177 0
M  V30 31 C -1.694523 0.446194 -3.141867 0
M  V30 32 C -0.981808 1.297106 -3.928943 0
M  V30 33 N -0.822928 2.421664 -3.229251 0
M  V30 34 N -1.415683 2.262926 -2.060606 0
M  V30 35 H 4.085255 -0.096103 4.447328 0
M  V30 36 H 3.640264 -0.430631 -1.279950 0
M  V30 37 H 4.723026 1.333203 -2.709462 0
M  V30 38 H 4.055825 3.704334 -2.540151 0
M  V30 39 H 2.283795 4.308900 -0.921183 0
M  V30 40 H 0.179999 -0.318265 -0.864944 0
M  V30 41 H -0.088920 -3.031146 4.774331 0
M  V30 42 H -2.375200 -4.153599 6.329901 0
M  V30 43 H -3.641897 -4.861515 3.557920 0
M  V30 44 H -3.461478 -3.779092 1.423410 0
M  V30 45 H -2.704624 -3.094027 -0.493416 0
M  V30 46 H -1.633444 -2.052789 -1.423498 0
M  V30 47 H -3.909434 -1.292983 -1.448800 0
M  V30 48 H -4.060664 -1.229279 0.305147 0
M  V30 49 H -2.065415 -0.567087 -3.266409 0
M  V30 50 H -0.693153 0.926207 -4.917906 0
M  V30 END ATOM
M  V30 BEGIN BOND
M  V30 1 2 1 2
M  V30 2 1 2 3
M  V30 3 1 3 4
M  V30 4 2 4 5
M  V30 5 1 4 6
M  V30 6 2 6 7
M  V30 7 1 7 8
M  V30 8 1 8 9
M  V30 9 2 9 10
M  V30 10 1 10 11
M  V30 11 2 11 12
M  V30 12 1 12 13
M  V30 13 2 13 14
M  V30 14 1 14 15
M  V30 15 2 8 16
M  V30 16 1 16 17
M  V30 17 2 17 18
M  V30 18 1 18 19
M  V30 19 2 19 20
M  V30 20 1 20 21
M  V30 21 1 21 22
M  V30 22 2 21 23
M  V30 23 1 23 24
M  V30 24 2 24 25
M  V30 25 1 25 26
M  V30 26 1 26 27
M  V30 27 1 27 28
M  V30 28 1 28 29
M  V30 29 1 29 30
M  V30 30 1 30 31
M  V30 31 2 31 32
M  V30 32 1 32 33
M  V30 33 2 33 34
M  V30 34 1 7 2
M  V30 35 1 14 9
M  V30 36 1 26 17
M  V30 37 1 34 30
M  V30 38 1 18 6
M  V30 39 1 25 19
M  V30 40 1 3 35
M  V30 41 1 10 36
M  V30 42 1 11 37
M  V30 43 1 12 38
M  V30 44 1 13 39
M  V30 45 1 16 40
M  V30 46 1 20 41
M  V30 47 1 22 42
M  V30 48 1 23 43
M  V30 49 1 24 44
M  V30 50 1 27 45
M  V30 51 1 27 46
M  V30 52 1 28 47
M  V30 53 1 28 48
M  V30 54 1 31 49
M  V30 55 1 32 50
M  V30 END BOND
M  V30 END CTAB
M  END
>  <Dataset>  (44) 
ChEMBL_Kinases

>  <Ligand_Instance>  (44) 
nan

>  <PDB_ID>  (44) 
nan

>  <Standardized_SMILES>  (44) 
O=C1NC(=O)c2c1c(-c1ccccc1Cl)cc1c2c2cc(O)ccc2n1CCSn1ccnn1

>  <Name>  (44) 
nan

>  <Pocket>  (44) 
nan

>  <ATP_Site>  (44) 
nan

>  <Peripheral>  (44) 
nan

>  <Num_H_Atoms_ProtBoundConf>  (44) 
nan

>  <Num_Resolved_Atoms>  (44) 
nan

>  <Num_Not_Resolved_Atoms>  (44) 
nan

$$$$
CHEMBL520537
     RDKit          3D

  0  0  0  0  0  0  0  0  0  0999 V3000
M  V30 BEGIN CTAB
M  V30 COUNTS 52 57 0 0 0
M  V30 BEGIN ATOM
M  V30 1 O 3.381001 2.510430 2.696255 0
M  V30 2 C 2.512693 2.561616 1.812311 0
M  V30 3 N 2.311969 3.562955 0.797703 0
M  V30 4 C 1.192088 3.191006 0.016282 0
M  V30 5 O 0.889244 3.956942 -0.904666 0
M  V30 6 C 0.631654 1.953522 0.486163 0
M  V30 7 C 1.431480 1.604391 1.547658 0
M  V30 8 C 1.172942 0.439732 2.250613 0
M  V30 9 C 1.991206 0.023665 3.385249 0
M  V30 10 C 1.702645 0.407484 4.693392 0
M  V30 11 C 2.516003 -0.020071 5.720776 0
M  V30 12 C 3.613686 -0.824061 5.471829 0
M  V30 13 C 3.906345 -1.208853 4.177369 0
M  V30 14 C 3.089564 -0.780503 3.138424 0
M  V30 15 Cl 3.492679 -1.288304 1.515501 0
M  V30 16 C 0.102530 -0.326300 1.839404 0
M  V30 17 C -0.717754 -0.003085 0.778718 0
M  V30 18 C -0.414074 1.165081 0.117583 0
M  V30 19 C -1.336982 1.307528 -0.874241 0
M  V30 20 C -1.639216 2.183785 -1.872895 0
M  V30 21 C -2.682797 2.059793 -2.761974 0
M  V30 22 O -2.969304 2.968808 -3.772323 0
M  V30 23 C -3.518969 0.940960 -2.645993 0
M  V30 24 C -3.226984 0.042463 -1.639006 0
M  V30 25 C -2.151798 0.204474 -0.750844 0
M  V30 26 N -1.790704 -0.634195 0.272478 0
M  V30 27 C -2.483537 -1.822711 0.631249 0
M  V30 28 C -2.117779 -3.053227 -0.124611 0
M  V30 29 C -0.727975 -3.504817 -0.038394 0
M  V30 30 O 0.355475 -3.177154 0.506683 0
M  V30 31 N -0.542507 -4.702798 -0.826294 0
M  V30 32 C 0.617837 -5.397940 -0.977668 0
M  V30 33 C 0.467389 -6.506300 -1.800131 0
M  V30 34 N -0.818171 -6.497081 -2.167075 0
M  V30 35 C -1.399245 -5.440888 -1.593754 0
M  V30 36 H 2.969073 4.388806 0.758691 0
M  V30 37 H 0.820258 1.045271 4.832205 0
M  V30 38 H 2.231060 0.318878 6.723906 0
M  V30 39 H 4.235642 -1.142546 6.318371 0
M  V30 40 H 4.776617 -1.833703 4.070628 0
M  V30 41 H -0.109950 -1.233822 2.379904 0
M  V30 42 H -1.070979 3.061949 -2.047490 0
M  V30 43 H -2.289036 3.682871 -4.018761 0
M  V30 44 H -4.350064 0.804843 -3.323677 0
M  V30 45 H -3.908110 -0.800633 -1.600021 0
M  V30 46 H -3.577077 -1.614819 0.430874 0
M  V30 47 H -2.373653 -2.050818 1.718088 0
M  V30 48 H -2.800207 -3.899486 0.202352 0
M  V30 49 H -2.358037 -2.946697 -1.221996 0
M  V30 50 H 1.573113 -5.182886 -0.549117 0
M  V30 51 H 1.196692 -7.225516 -2.093635 0
M  V30 52 H -2.441636 -5.164585 -1.702403 0
M  V30 END ATOM
M  V30 BEGIN BOND
M  V30 1 2 1 2
M  V30 2 1 2 3
M  V30 3 1 3 4
M  V30 4 2 4 5
M  V30 5 1 4 6
M  V30 6 2 6 7
M  V30 7 1 7 8
M  V30 8 1 8 9
M  V30 9 2 9 10
M  V30 10 1 10 11
M  V30 11 2 11 12
M  V30 12 1 12 13
M  V30 13 2 13 14
M  V30 14 1 14 15
M  V30 15 2 8 16
M  V30 16 1 16 17
M  V30 17 2 17 18
M  V30 18 1 18 19
M  V30 19 2 19 20
M  V30 20 1 20 21
M  V30 21 1 21 22
M  V30 22 2 21 23
M  V30 23 1 23 24
M  V30 24 2 24 25
M  V30 25 1 25 26
M  V30 26 1 26 27
M  V30 27 1 27 28
M  V30 28 1 28 29
M  V30 29 2 29 30
M  V30 30 1 29 31
M  V30 31 1 31 32
M  V30 32 2 32 33
M  V30 33 1 33 34
M  V30 34 2 34 35
M  V30 35 1 7 2
M  V30 36 1 14 9
M  V30 37 1 26 17
M  V30 38 1 35 31
M  V30 39 1 18 6
M  V30 40 1 25 19
M  V30 41 1 3 36
M  V30 42 1 10 37
M  V30 43 1 11 38
M  V30 44 1 12 39
M  V30 45 1 13 40
M  V30 46 1 16 41
M  V30 47 1 20 42
M  V30 48 1 22 43
M  V30 49 1 23 44
M  V30 50 1 24 45
M  V30 51 1 27 46
M  V30 52 1 27 47
M  V30 53 1 28 48
M  V30 54 1 28 49
M  V30 55 1 32 50
M  V30 56 1 33 51
M  V30 57 1 35 52
M  V30 END BOND
M  V30 END CTAB
M  END
>  <Dataset>  (45) 
ChEMBL_Kinases

>  <Ligand_Instance>  (45) 
nan

>  <PDB_ID>  (45) 
nan

>  <Standardized_SMILES>  (45) 
O=C1NC(=O)c2c1c(-c1ccccc1Cl)cc1c2c2cc(O)ccc2n1CCC(=O)n1ccnc1

>  <Name>  (45) 
nan

>  <Pocket>  (45) 
nan

>  <ATP_Site>  (45) 
nan

>  <Peripheral>  (45) 
nan

>  <Num_H_Atoms_ProtBoundConf>  (45) 
nan

>  <Num_Resolved_Atoms>  (45) 
nan

>  <Num_Not_Resolved_Atoms>  (45) 
nan

$$$$
CHEMBL520593
     RDKit          3D

  0  0  0  0  0  0  0  0  0  0999 V3000
M  V30 BEGIN CTAB
M  V30 COUNTS 60 66 0 0 0
M  V30 BEGIN ATOM
M  V30 1 C 3.662092 -1.927641 5.561912 0
M  V30 2 N 2.524001 -1.179337 5.006642 0
M  V30 3 C 2.940520 0.227022 5.018683 0
M  V30 4 C 4.055436 0.301167 3.965371 0
M  V30 5 N 3.396628 0.277804 2.675288 0
M  V30 6 C 3.919953 0.926784 1.542032 0
M  V30 7 C 5.150875 1.539988 1.630909 0
M  V30 8 C 5.741330 2.192281 0.563545 0
M  V30 9 C 5.106566 2.257663 -0.664997 0
M  V30 10 C 3.873316 1.651025 -0.777792 0
M  V30 11 N 3.032450 1.551850 -1.821273 0
M  V30 12 C 1.957559 0.860613 -1.409434 0
M  V30 13 C 0.819468 0.544238 -2.260076 0
M  V30 14 N 0.686421 0.890964 -3.550125 0
M  V30 15 N -0.473227 0.443081 -4.021365 0
M  V30 16 C -1.137203 -0.212350 -3.052634 0
M  V30 17 C -2.348715 -0.866813 -2.965278 0
M  V30 18 C -2.832914 -1.482935 -1.829435 0
M  V30 19 C -4.121329 -2.164629 -1.792342 0
M  V30 20 C -4.869124 -2.228223 -2.854884 0
M  V30 21 C -6.161627 -2.975437 -2.704269 0
M  V30 22 C -6.692151 -2.925475 -1.355353 0
M  V30 23 C -7.976927 -3.480421 -0.982871 0
M  V30 24 C -7.889897 -3.752743 0.306700 0
M  V30 25 O -6.639308 -3.458777 0.830282 0
M  V30 26 C -5.828772 -2.987521 -0.188786 0
M  V30 27 C -4.575461 -2.558700 -0.440849 0
M  V30 28 C -1.966733 -1.377672 -0.765779 0
M  V30 29 C -0.750913 -0.745211 -0.777819 0
M  V30 30 C -0.326705 -0.151031 -1.941967 0
M  V30 31 N 2.140907 0.538166 -0.118850 0
M  V30 32 C 3.322967 1.012345 0.312651 0
M  V30 33 C 2.162733 -0.485336 2.683468 0
M  V30 34 C 2.344120 -1.643946 3.646366 0
M  V30 35 H 4.380679 -1.276593 6.089810 0
M  V30 36 H 4.240281 -2.441635 4.763941 0
M  V30 37 H 3.342436 -2.712942 6.269598 0
M  V30 38 H 2.086080 0.826115 4.646208 0
M  V30 39 H 3.296621 0.535966 5.998793 0
M  V30 40 H 4.692770 -0.589918 4.043758 0
M  V30 41 H 4.681885 1.199422 4.135341 0
M  V30 42 H 5.781659 1.586473 2.499299 0
M  V30 43 H 6.704353 2.688823 0.580490 0
M  V30 44 H 5.512139 2.750005 -1.537447 0
M  V30 45 H 3.198402 1.942619 -2.765354 0
M  V30 46 H -0.821702 0.581777 -5.011294 0
M  V30 47 H -2.896362 -0.851810 -3.888888 0
M  V30 48 H -4.636516 -1.797025 -3.804106 0
M  V30 49 H -6.062925 -3.999958 -3.101575 0
M  V30 50 H -6.883339 -2.464796 -3.395729 0
M  V30 51 H -7.011127 -1.721248 -1.249047 0
M  V30 52 H -8.795345 -3.615320 -1.673476 0
M  V30 53 H -8.691417 -4.162252 0.917995 0
M  V30 54 H -4.006579 -2.562148 0.482811 0
M  V30 55 H -2.207228 -1.811684 0.189458 0
M  V30 56 H -0.097107 -0.684038 0.080592 0
M  V30 57 H 1.273268 0.102924 2.924578 0
M  V30 58 H 2.069968 -0.978745 1.673888 0
M  V30 59 H 3.164764 -2.283260 3.321092 0
M  V30 60 H 1.394682 -2.216513 3.606462 0
M  V30 END ATOM
M  V30 BEGIN BOND
M  V30 1 1 1 2
M  V30 2 1 2 3
M  V30 3 1 3 4
M  V30 4 1 4 5
M  V30 5 1 5 6
M  V30 6 2 6 7
M  V30 7 1 7 8
M  V30 8 2 8 9
M  V30 9 1 9 10
M  V30 10 1 10 11
M  V30 11 1 11 12
M  V30 12 1 12 13
M  V30 13 2 13 14
M  V30 14 1 14 15
M  V30 15 1 15 16
M  V30 16 2 16 17
M  V30 17 1 17 18
M  V30 18 1 18 19
M  V30 19 2 19 20
M  V30 20 1 20 21
M  V30 21 1 21 22
M  V30 22 1 22 23
M  V30 23 2 23 24
M  V30 24 1 24 25
M  V30 25 1 25 26
M  V30 26 2 26 27
M  V30 27 2 18 28
M  V30 28 1 28 29
M  V30 29 2 29 30
M  V30 30 2 12 31
M  V30 31 1 31 32
M  V30 32 1 5 33
M  V30 33 1 33 34
M  V30 34 1 34 2
M  V30 35 1 32 6
M  V30 36 2 32 10
M  V30 37 1 30 13
M  V30 38 1 30 16
M  V30 39 1 27 19
M  V30 40 1 26 22
M  V30 41 1 1 35
M  V30 42 1 1 36
M  V30 43 1 1 37
M  V30 44 1 3 38
M  V30 45 1 3 39
M  V30 46 1 4 40
M  V30 47 1 4 41
M  V30 48 1 7 42
M  V30 49 1 8 43
M  V30 50 1 9 44
M  V30 51 1 11 45
M  V30 52 1 15 46
M  V30 53 1 17 47
M  V30 54 1 20 48
M  V30 55 1 21 49
M  V30 56 1 21 50
M  V30 57 1 22 51
M  V30 58 1 23 52
M  V30 59 1 24 53
M  V30 60 1 27 54
M  V30 61 1 28 55
M  V30 62 1 29 56
M  V30 63 1 33 57
M  V30 64 1 33 58
M  V30 65 1 34 59
M  V30 66 1 34 60
M  V30 END BOND
M  V30 END CTAB
M  END
>  <Dataset>  (46) 
ChEMBL_Kinases

>  <Ligand_Instance>  (46) 
nan

>  <PDB_ID>  (46) 
nan

>  <Standardized_SMILES>  (46) 
CN1CCN(c2cccc3[nH]c(-c4n[nH]c5cc(C6=CCC7C=COC7=C6)ccc45)nc23)CC1

>  <Name>  (46) 
nan

>  <Pocket>  (46) 
nan

>  <ATP_Site>  (46) 
nan

>  <Peripheral>  (46) 
nan

>  <Num_H_Atoms_ProtBoundConf>  (46) 
nan

>  <Num_Resolved_Atoms>  (46) 
nan

>  <Num_Not_Resolved_Atoms>  (46) 
nan

$$$$
CHEMBL520640
     RDKit          3D

  0  0  0  0  0  0  0  0  0  0999 V3000
M  V30 BEGIN CTAB
M  V30 COUNTS 49 52 0 0 0
M  V30 BEGIN ATOM
M  V30 1 C -0.302988 -7.821070 -4.255376 0
M  V30 2 O 0.764177 -6.930493 -3.969885 0
M  V30 3 C 0.523301 -5.854392 -3.122884 0
M  V30 4 C 1.568354 -5.000674 -2.856439 0
M  V30 5 C 1.328504 -3.940751 -2.021326 0
M  V30 6 C 0.132324 -3.637376 -1.412425 0
M  V30 7 C -0.063447 -2.490610 -0.529758 0
M  V30 8 N 0.991838 -1.800751 -0.383425 0
M  V30 9 C 1.014551 -0.628480 0.450652 0
M  V30 10 C 2.125433 -0.719714 1.452158 0
M  V30 11 C -0.315221 -0.371336 0.973180 0
M  V30 12 C -0.469140 0.865169 1.760701 0
M  V30 13 O -1.600080 1.165262 2.253019 0
M  V30 14 N 0.507965 1.818754 2.063707 0
M  V30 15 C 0.487588 3.008516 2.790890 0
M  V30 16 C 1.657071 3.775845 2.927323 0
M  V30 17 C 1.721439 4.956579 3.625342 0
M  V30 18 C 0.587035 5.438616 4.236788 0
M  V30 19 N 0.400117 6.553728 4.965697 0
M  V30 20 N -0.880087 6.575482 5.338998 0
M  V30 21 C -1.519573 5.473755 4.850662 0
M  V30 22 C -0.594922 4.735170 4.142607 0
M  V30 23 C -0.580561 3.558616 3.424981 0
M  V30 24 C -1.463213 -1.044917 0.869240 0
M  V30 25 C -2.816555 -0.757494 1.422290 0
M  V30 26 N -1.332115 -2.227378 0.033876 0
M  V30 27 C -0.860936 -4.540220 -1.730918 0
M  V30 28 C -0.702981 -5.625423 -2.557206 0
M  V30 29 H 0.097083 -8.673031 -4.846319 0
M  V30 30 H -0.692022 -8.184404 -3.279324 0
M  V30 31 H -1.070415 -7.264946 -4.822715 0
M  V30 32 H 2.539422 -5.166167 -3.293094 0
M  V30 33 H 2.195982 -3.286991 -1.839332 0
M  V30 34 H 1.280344 0.206809 -0.235349 0
M  V30 35 H 1.817740 -0.602672 2.504997 0
M  V30 36 H 2.997768 -0.168377 1.123274 0
M  V30 37 H 2.472051 -1.800027 1.433868 0
M  V30 38 H 1.449500 1.574957 1.633317 0
M  V30 39 H 2.596791 3.442339 2.460729 0
M  V30 40 H 2.642585 5.496937 3.693962 0
M  V30 41 H 1.135611 7.265952 5.190795 0
M  V30 42 H -2.558951 5.187666 4.969502 0
M  V30 43 H -1.528748 3.093143 3.409402 0
M  V30 44 H -2.807382 -0.768545 2.530629 0
M  V30 45 H -3.224924 0.156663 0.976703 0
M  V30 46 H -3.520186 -1.585605 1.111049 0
M  V30 47 H -2.159789 -2.832511 -0.120865 0
M  V30 48 H -1.855402 -4.425502 -1.322759 0
M  V30 49 H -1.522036 -6.307550 -2.775338 0
M  V30 END ATOM
M  V30 BEGIN BOND
M  V30 1 1 1 2
M  V30 2 1 2 3
M  V30 3 2 3 4
M  V30 4 1 4 5
M  V30 5 2 5 6
M  V30 6 1 6 7
M  V30 7 2 7 8
M  V30 8 1 8 9
M  V30 9 1 9 10
M  V30 10 1 9 11
M  V30 11 1 11 12
M  V30 12 2 12 13
M  V30 13 1 12 14
M  V30 14 1 14 15
M  V30 15 2 15 16
M  V30 16 1 16 17
M  V30 17 2 17 18
M  V30 18 1 18 19
M  V30 19 1 19 20
M  V30 20 2 20 21
M  V30 21 1 21 22
M  V30 22 2 22 23
M  V30 23 2 11 24
M  V30 24 1 24 25
M  V30 25 1 24 26
M  V30 26 1 6 27
M  V30 27 2 27 28
M  V30 28 1 28 3
M  V30 29 1 26 7
M  V30 30 1 23 15
M  V30 31 1 22 18
M  V30 32 1 1 29
M  V30 33 1 1 30
M  V30 34 1 1 31
M  V30 35 1 4 32
M  V30 36 1 5 33
M  V30 37 1 9 34
M  V30 38 1 10 35
M  V30 39 1 10 36
M  V30 40 1 10 37
M  V30 41 1 14 38
M  V30 42 1 16 39
M  V30 43 1 17 40
M  V30 44 1 19 41
M  V30 45 1 21 42
M  V30 46 1 23 43
M  V30 47 1 25 44
M  V30 48 1 25 45
M  V30 49 1 25 46
M  V30 50 1 26 47
M  V30 51 1 27 48
M  V30 52 1 28 49
M  V30 END BOND
M  V30 END CTAB
M  END
>  <Dataset>  (47) 
ChEMBL_Kinases

>  <Ligand_Instance>  (47) 
nan

>  <PDB_ID>  (47) 
nan

>  <Standardized_SMILES>  (47) 
COc1ccc(C2=NC(C)C(C(=O)Nc3ccc4[nH]ncc4c3)=C(C)N2)cc1

>  <Name>  (47) 
nan

>  <Pocket>  (47) 
nan

>  <ATP_Site>  (47) 
nan

>  <Peripheral>  (47) 
nan

>  <Num_H_Atoms_ProtBoundConf>  (47) 
nan

>  <Num_Resolved_Atoms>  (47) 
nan

>  <Num_Not_Resolved_Atoms>  (47) 
nan

$$$$
CHEMBL575078
     RDKit          3D

  0  0  0  0  0  0  0  0  0  0999 V3000
M  V30 BEGIN CTAB
M  V30 COUNTS 42 45 0 0 0
M  V30 BEGIN ATOM
M  V30 1 C 0.235257 -7.005097 2.951149 0
M  V30 2 S 1.991468 -6.782348 2.574147 0
M  V30 3 C 2.188467 -5.194321 1.780957 0
M  V30 4 C 3.470063 -4.823730 1.403924 0
M  V30 5 C 3.739826 -3.619943 0.784222 0
M  V30 6 C 2.691574 -2.743751 0.526620 0
M  V30 7 C 1.401524 -3.116234 0.905915 0
M  V30 8 C 1.148559 -4.324590 1.525148 0
M  V30 9 C 0.515361 -2.024498 0.520700 0
M  V30 10 N -0.781737 -1.681522 0.558739 0
M  V30 11 N -0.866499 -0.489233 0.000845 0
M  V30 12 C 0.322253 -0.025119 -0.406763 0
M  V30 13 N 0.570471 1.218827 -1.036924 0
M  V30 14 C -0.361132 2.268528 -1.394586 0
M  V30 15 C -1.113084 2.818021 -0.252670 0
M  V30 16 C -0.461542 3.647801 0.629159 0
M  V30 17 C 0.970926 3.959408 0.412315 0
M  V30 18 C -1.074625 4.217795 1.723424 0
M  V30 19 C -2.410414 3.933171 1.933212 0
M  V30 20 C -3.053635 3.102287 1.045459 0
M  V30 21 C -2.462157 2.510424 -0.070339 0
M  V30 22 Cl -3.336580 1.475559 -1.166162 0
M  V30 23 C 1.244074 -1.019291 -0.074446 0
M  V30 24 C 2.666037 -1.389678 -0.119913 0
M  V30 25 H -0.296962 -6.070031 3.175290 0
M  V30 26 H -0.306578 -7.537743 2.127037 0
M  V30 27 H 0.203664 -7.705236 3.828535 0
M  V30 28 H 4.325939 -5.470869 1.581628 0
M  V30 29 H 4.736641 -3.320152 0.485535 0
M  V30 30 H 0.149929 -4.616963 1.820412 0
M  V30 31 H -1.653037 -2.143803 0.919552 0
M  V30 32 H 1.585962 1.406124 -1.281097 0
M  V30 33 H -1.113839 1.864578 -2.130114 0
M  V30 34 H 0.139613 3.086972 -1.948397 0
M  V30 35 H 1.386788 4.615376 1.188442 0
M  V30 36 H 1.523277 2.992984 0.516343 0
M  V30 37 H 1.170146 4.316741 -0.624788 0
M  V30 38 H -0.572676 4.866180 2.415618 0
M  V30 39 H -2.904904 4.363525 2.774271 0
M  V30 40 H -4.098539 2.869307 1.194843 0
M  V30 41 H 3.339116 -0.691800 0.406120 0
M  V30 42 H 3.015898 -1.530203 -1.171649 0
M  V30 END ATOM
M  V30 BEGIN BOND
M  V30 1 1 1 2
M  V30 2 1 2 3
M  V30 3 2 3 4
M  V30 4 1 4 5
M  V30 5 2 5 6
M  V30 6 1 6 7
M  V30 7 2 7 8
M  V30 8 1 7 9
M  V30 9 1 9 10
M  V30 10 1 10 11
M  V30 11 2 11 12
M  V30 12 1 12 13
M  V30 13 1 13 14
M  V30 14 1 14 15
M  V30 15 2 15 16
M  V30 16 1 16 17
M  V30 17 1 16 18
M  V30 18 2 18 19
M  V30 19 1 19 20
M  V30 20 2 20 21
M  V30 21 1 21 22
M  V30 22 1 12 23
M  V30 23 1 23 24
M  V30 24 1 8 3
M  V30 25 2 23 9
M  V30 26 1 24 6
M  V30 27 1 21 15
M  V30 28 1 1 25
M  V30 29 1 1 26
M  V30 30 1 1 27
M  V30 31 1 4 28
M  V30 32 1 5 29
M  V30 33 1 8 30
M  V30 34 1 10 31
M  V30 35 1 13 32
M  V30 36 1 14 33
M  V30 37 1 14 34
M  V30 38 1 17 35
M  V30 39 1 17 36
M  V30 40 1 17 37
M  V30 41 1 18 38
M  V30 42 1 19 39
M  V30 43 1 20 40
M  V30 44 1 24 41
M  V30 45 1 24 42
M  V30 END BOND
M  V30 END CTAB
M  END
>  <Dataset>  (48) 
ChEMBL_Kinases

>  <Ligand_Instance>  (48) 
nan

>  <PDB_ID>  (48) 
nan

>  <Standardized_SMILES>  (48) 
CSc1ccc2c(c1)-c1[nH]nc(NCc3c(C)cccc3Cl)c1C2

>  <Name>  (48) 
nan

>  <Pocket>  (48) 
nan

>  <ATP_Site>  (48) 
nan

>  <Peripheral>  (48) 
nan

>  <Num_H_Atoms_ProtBoundConf>  (48) 
nan

>  <Num_Resolved_Atoms>  (48) 
nan

>  <Num_Not_Resolved_Atoms>  (48) 
nan

$$$$
CHEMBL3732860
     RDKit          3D

  0  0  0  0  0  0  0  0  0  0999 V3000
M  V30 BEGIN CTAB
M  V30 COUNTS 46 49 0 0 0
M  V30 BEGIN ATOM
M  V30 1 C 1.839264 -7.047383 -0.887274 0
M  V30 2 C 1.463805 -5.650627 -0.602346 0
M  V30 3 C 0.145736 -5.280451 -0.450788 0
M  V30 4 C -0.314456 -4.012261 -0.184648 0
M  V30 5 C -1.801218 -3.805522 -0.052770 0
M  V30 6 C 0.596084 -2.983226 -0.048840 0
M  V30 7 C 1.896447 -3.410729 -0.210019 0
M  V30 8 N 2.310999 -4.624145 -0.463048 0
M  V30 9 S 2.842661 -1.900424 0.013656 0
M  V30 10 C 1.465272 -0.840614 0.297991 0
M  V30 11 C 1.402745 0.562732 0.564526 0
M  V30 12 N 2.619522 1.255908 0.615563 0
M  V30 13 C 2.565471 2.654205 0.882454 0
M  V30 14 C 1.979227 3.056375 2.191947 0 CFG=2
M  V30 15 C 1.978806 4.583281 2.359137 0
M  V30 16 N 2.768102 2.569149 3.312654 0
M  V30 17 N 0.203782 1.120812 0.743734 0
M  V30 18 C -0.853354 0.294171 0.654947 0
M  V30 19 C -2.231378 0.803051 0.836067 0
M  V30 20 C -2.369561 2.148306 1.096976 0
M  V30 21 C -3.594250 2.724161 1.281197 0
M  V30 22 N -4.704197 2.000225 1.214497 0
M  V30 23 C -4.606432 0.670114 0.958944 0
M  V30 24 C -3.388588 0.056909 0.768140 0
M  V30 25 N -0.805719 -1.001813 0.409443 0
M  V30 26 C 0.328365 -1.691227 0.209706 0
M  V30 27 H 1.691592 -7.334634 -1.947626 0
M  V30 28 H 2.914049 -7.215047 -0.664991 0
M  V30 29 H 1.293262 -7.788797 -0.273079 0
M  V30 30 H -0.607332 -6.082907 -0.554013 0
M  V30 31 H -2.298429 -4.756052 0.120065 0
M  V30 32 H -2.135754 -3.397911 -1.028386 0
M  V30 33 H -2.003896 -3.036815 0.713764 0
M  V30 34 H 3.530515 0.764554 0.463541 0
M  V30 35 H 3.615809 3.057231 0.848130 0
M  V30 36 H 2.000305 3.199275 0.087800 0
M  V30 37 H 0.935432 2.746886 2.293673 0
M  V30 38 H 1.368551 4.790687 3.254084 0
M  V30 39 H 3.038423 4.843391 2.610255 0
M  V30 40 H 1.627318 5.090241 1.451799 0
M  V30 41 H 2.299737 1.794478 3.817952 0
M  V30 42 H 3.761385 2.405436 3.078481 0
M  V30 43 H -1.479868 2.776009 1.159330 0
M  V30 44 H -3.636677 3.801336 1.485867 0
M  V30 45 H -5.506716 0.041662 0.897104 0
M  V30 46 H -3.256548 -0.996468 0.562307 0
M  V30 END ATOM
M  V30 BEGIN BOND
M  V30 1 1 1 2
M  V30 2 2 2 3
M  V30 3 1 3 4
M  V30 4 1 4 5
M  V30 5 2 4 6
M  V30 6 1 6 7
M  V30 7 2 7 8
M  V30 8 1 7 9
M  V30 9 1 9 10
M  V30 10 2 10 11
M  V30 11 1 11 12
M  V30 12 1 12 13
M  V30 13 1 13 14
M  V30 14 1 14 15
M  V30 15 1 14 16
M  V30 16 1 11 17
M  V30 17 2 17 18
M  V30 18 1 18 19
M  V30 19 2 19 20
M  V30 20 1 20 21
M  V30 21 2 21 22
M  V30 22 1 22 23
M  V30 23 2 23 24
M  V30 24 1 18 25
M  V30 25 2 25 26
M  V30 26 1 8 2
M  V30 27 1 26 10
M  V30 28 1 26 6
M  V30 29 1 24 19
M  V30 30 1 1 27
M  V30 31 1 1 28
M  V30 32 1 1 29
M  V30 33 1 3 30
M  V30 34 1 5 31
M  V30 35 1 5 32
M  V30 36 1 5 33
M  V30 37 1 12 34
M  V30 38 1 13 35
M  V30 39 1 13 36
M  V30 40 1 14 37 CFG=1
M  V30 41 1 15 38
M  V30 42 1 15 39
M  V30 43 1 15 40
M  V30 44 1 16 41
M  V30 45 1 16 42
M  V30 46 1 20 43
M  V30 47 1 21 44
M  V30 48 1 23 45
M  V30 49 1 24 46
M  V30 END BOND
M  V30 END CTAB
M  END
>  <Dataset>  (49) 
ChEMBL_Kinases

>  <Ligand_Instance>  (49) 
nan

>  <PDB_ID>  (49) 
nan

>  <Standardized_SMILES>  (49) 
Cc1cc(C)c2c(n1)sc1c(NC[C@H](C)N)nc(-c3ccncc3)nc12

>  <Name>  (49) 
nan

>  <Pocket>  (49) 
nan

>  <ATP_Site>  (49) 
nan

>  <Peripheral>  (49) 
nan

>  <Num_H_Atoms_ProtBoundConf>  (49) 
nan

>  <Num_Resolved_Atoms>  (49) 
nan

>  <Num_Not_Resolved_Atoms>  (49) 
nan

$$$$
CHEMBL575021
     RDKit          3D

  0  0  0  0  0  0  0  0  0  0999 V3000
M  V30 BEGIN CTAB
M  V30 COUNTS 40 43 0 0 0
M  V30 BEGIN ATOM
M  V30 1 C 2.274546 -6.656292 -0.013744 0
M  V30 2 C 1.835822 -5.248314 0.143632 0
M  V30 3 C 1.334804 -4.676874 1.318801 0
M  V30 4 C 1.081913 -3.374786 0.938411 0
M  V30 5 C 1.417462 -3.209779 -0.374697 0
M  V30 6 C 1.288161 -1.956614 -1.133380 0
M  V30 7 C 1.671959 -1.932706 -2.476430 0
M  V30 8 C 1.533899 -0.736900 -3.150217 0
M  V30 9 C 1.046287 0.425901 -2.590012 0
M  V30 10 O 0.827280 1.649480 -3.012067 0
M  V30 11 C 0.335894 2.360132 -2.004570 0
M  V30 12 C 0.215957 1.597380 -0.859358 0
M  V30 13 C -0.285963 2.043135 0.438894 0
M  V30 14 C 0.392935 1.693345 1.592471 0
M  V30 15 C -0.053824 2.098747 2.847271 0
M  V30 16 C -1.196500 2.866590 2.964171 0
M  V30 17 S -1.716706 3.351909 4.577725 0 CHG=1 VAL=3
M  V30 18 C -2.818445 2.089196 5.207951 0
M  V30 19 O -0.368138 3.343493 5.585922 0 CHG=-1 VAL=1
M  V30 20 C -1.902126 3.234276 1.812593 0
M  V30 21 C -1.432951 2.814693 0.565651 0
M  V30 22 C 0.674942 0.352083 -1.241845 0
M  V30 23 C 0.801620 -0.826451 -0.545499 0
M  V30 24 O 1.861346 -4.347554 -0.809323 0
M  V30 25 H 2.326877 -7.162725 0.980210 0
M  V30 26 H 1.552555 -7.233537 -0.621969 0
M  V30 27 H 3.272868 -6.735503 -0.501673 0
M  V30 28 H 1.224601 -5.241642 2.240462 0
M  V30 29 H 0.673197 -2.657648 1.656044 0
M  V30 30 H 2.059908 -2.821826 -2.956713 0
M  V30 31 H 1.838101 -0.747352 -4.186491 0
M  V30 32 H 0.058797 3.423308 -2.072753 0
M  V30 33 H 1.289202 1.099393 1.596194 0
M  V30 34 H 0.486250 1.819873 3.757948 0
M  V30 35 H -3.732720 2.002923 4.586107 0
M  V30 36 H -3.107624 2.310172 6.242774 0
M  V30 37 H -2.310173 1.093037 5.137984 0
M  V30 38 H -2.797549 3.837098 1.917182 0
M  V30 39 H -1.969745 3.092576 -0.331340 0
M  V30 40 H 0.518759 -0.880685 0.479510 0
M  V30 END ATOM
M  V30 BEGIN BOND
M  V30 1 1 1 2
M  V30 2 2 2 3
M  V30 3 1 3 4
M  V30 4 2 4 5
M  V30 5 1 5 6
M  V30 6 2 6 7
M  V30 7 1 7 8
M  V30 8 2 8 9
M  V30 9 1 9 10
M  V30 10 1 10 11
M  V30 11 2 11 12
M  V30 12 1 12 13
M  V30 13 2 13 14
M  V30 14 1 14 15
M  V30 15 2 15 16
M  V30 16 1 16 17
M  V30 17 1 17 18
M  V30 18 1 17 19 CFG=1
M  V30 19 1 16 20
M  V30 20 2 20 21
M  V30 21 1 12 22
M  V30 22 2 22 23
M  V30 23 1 5 24
M  V30 24 1 24 2
M  V30 25 1 23 6
M  V30 26 1 22 9
M  V30 27 1 21 13
M  V30 28 1 1 25
M  V30 29 1 1 26
M  V30 30 1 1 27
M  V30 31 1 3 28
M  V30 32 1 4 29
M  V30 33 1 7 30
M  V30 34 1 8 31
M  V30 35 1 11 32
M  V30 36 1 14 33
M  V30 37 1 15 34
M  V30 38 1 18 35
M  V30 39 1 18 36
M  V30 40 1 18 37
M  V30 41 1 20 38
M  V30 42 1 21 39
M  V30 43 1 23 40
M  V30 END BOND
M  V30 END CTAB
M  END
>  <Dataset>  (50) 
ChEMBL_Kinases

>  <Ligand_Instance>  (50) 
nan

>  <PDB_ID>  (50) 
nan

>  <Standardized_SMILES>  (50) 
Cc1ccc(-c2ccc3occ(-c4ccc([S@@+](C)[O-])cc4)c3c2)o1

>  <Name>  (50) 
nan

>  <Pocket>  (50) 
nan

>  <ATP_Site>  (50) 
nan

>  <Peripheral>  (50) 
nan

>  <Num_H_Atoms_ProtBoundConf>  (50) 
nan

>  <Num_Resolved_Atoms>  (50) 
nan

>  <Num_Not_Resolved_Atoms>  (50) 
nan

$$$$
CHEMBL520740
     RDKit          3D

  0  0  0  0  0  0  0  0  0  0999 V3000
M  V30 BEGIN CTAB
M  V30 COUNTS 62 65 0 0 0
M  V30 BEGIN ATOM
M  V30 1 O 0.880391 -2.206688 3.748598 0
M  V30 2 C 1.367108 -2.400203 2.577621 0
M  V30 3 O 2.563988 -2.317425 1.850108 0
M  V30 4 C 2.529914 -3.157622 0.730323 0
M  V30 5 C 3.601782 -4.210489 0.904086 0
M  V30 6 O 4.846262 -3.590055 1.006375 0
M  V30 7 C 2.795348 -2.435671 -0.569494 0
M  V30 8 O 1.816978 -1.410743 -0.781873 0
M  V30 9 C 1.976871 -0.692643 -1.955060 0
M  V30 10 O 2.998828 -1.209038 -2.491209 0
M  V30 11 C 1.139596 0.400934 -2.430533 0
M  V30 12 C 1.078895 1.585842 -1.542658 0
M  V30 13 C 1.130400 2.884279 -2.062821 0
M  V30 14 C 1.078623 4.018563 -1.299921 0
M  V30 15 C 0.969459 3.900295 0.061156 0
M  V30 16 C 0.913720 2.645728 0.638356 0
M  V30 17 C 0.969046 1.513595 -0.168767 0
M  V30 18 C -0.244079 -0.016127 -2.822334 0
M  V30 19 C -0.901626 0.428356 -3.954808 0
M  V30 20 C -2.183375 -0.021369 -4.220389 0
M  V30 21 C -2.851884 -0.909984 -3.393680 0
M  V30 22 C -2.203882 -1.369396 -2.246009 0
M  V30 23 C -0.939169 -0.909334 -2.008226 0
M  V30 24 C 1.157786 -3.786486 0.655793 0
M  V30 25 C 0.387946 -2.883108 1.577264 0
M  V30 26 C -0.900318 -2.585486 1.491292 0
M  V30 27 C -1.626492 -1.697107 2.388260 0
M  V30 28 C -2.888184 -2.133025 2.815844 0
M  V30 29 C -3.687514 -1.382942 3.653398 0
M  V30 30 C -5.026323 -1.842294 4.109411 0
M  V30 31 F -5.494401 -2.805057 3.250749 0
M  V30 32 F -5.032611 -2.256565 5.415031 0
M  V30 33 F -5.940637 -0.783243 4.041418 0
M  V30 34 C -3.259857 -0.151814 4.106429 0
M  V30 35 C -2.022170 0.292040 3.695721 0
M  V30 36 C -1.469185 1.618377 4.134566 0
M  V30 37 F -0.108167 1.515534 4.299025 0
M  V30 38 F -2.020977 1.880528 5.373878 0
M  V30 39 F -1.799522 2.552485 3.193276 0
M  V30 40 C -1.237595 -0.463110 2.863070 0
M  V30 41 H 3.446053 -4.769706 1.857421 0
M  V30 42 H 3.632829 -4.948077 0.085241 0
M  V30 43 H 4.779712 -2.729189 1.522286 0
M  V30 44 H 3.816559 -2.046131 -0.633876 0
M  V30 45 H 2.666484 -3.188981 -1.375004 0
M  V30 46 H 1.608783 0.761387 -3.390594 0
M  V30 47 H 1.218401 2.969567 -3.155071 0
M  V30 48 H 1.122802 5.003648 -1.764704 0
M  V30 49 H 0.927787 4.799450 0.673597 0
M  V30 50 H 0.828338 2.603567 1.706066 0
M  V30 51 H 0.926171 0.551999 0.278236 0
M  V30 52 H -0.378831 1.123984 -4.601942 0
M  V30 53 H -2.676198 0.341264 -5.113748 0
M  V30 54 H -3.848554 -1.235956 -3.634661 0
M  V30 55 H -2.719612 -2.058845 -1.602377 0
M  V30 56 H -0.495688 -1.304883 -1.103058 0
M  V30 57 H 0.739723 -3.783349 -0.357468 0
M  V30 58 H 1.208622 -4.769629 1.149125 0
M  V30 59 H -1.504955 -3.029969 0.683925 0
M  V30 60 H -3.331938 -3.083377 2.526077 0
M  V30 61 H -3.840571 0.468470 4.756250 0
M  V30 62 H -0.292072 -0.107015 2.544721 0
M  V30 END ATOM
M  V30 BEGIN BOND
M  V30 1 2 1 2
M  V30 2 1 2 3
M  V30 3 1 3 4
M  V30 4 1 4 5
M  V30 5 1 5 6
M  V30 6 1 4 7
M  V30 7 1 7 8
M  V30 8 1 8 9
M  V30 9 2 9 10
M  V30 10 1 9 11
M  V30 11 1 11 12
M  V30 12 2 12 13
M  V30 13 1 13 14
M  V30 14 2 14 15
M  V30 15 1 15 16
M  V30 16 2 16 17
M  V30 17 1 11 18
M  V30 18 2 18 19
M  V30 19 1 19 20
M  V30 20 2 20 21
M  V30 21 1 21 22
M  V30 22 2 22 23
M  V30 23 1 4 24
M  V30 24 1 24 25
M  V30 25 2 25 26
M  V30 26 1 26 27
M  V30 27 2 27 28
M  V30 28 1 28 29
M  V30 29 1 29 30
M  V30 30 1 30 31
M  V30 31 1 30 32
M  V30 32 1 30 33
M  V30 33 2 29 34
M  V30 34 1 34 35
M  V30 35 1 35 36
M  V30 36 1 36 37
M  V30 37 1 36 38
M  V30 38 1 36 39
M  V30 39 2 35 40
M  V30 40 1 25 2
M  V30 41 1 40 27
M  V30 42 1 17 12
M  V30 43 1 23 18
M  V30 44 1 5 41
M  V30 45 1 5 42
M  V30 46 1 6 43
M  V30 47 1 7 44
M  V30 48 1 7 45
M  V30 49 1 11 46
M  V30 50 1 13 47
M  V30 51 1 14 48
M  V30 52 1 15 49
M  V30 53 1 16 50
M  V30 54 1 17 51
M  V30 55 1 19 52
M  V30 56 1 20 53
M  V30 57 1 21 54
M  V30 58 1 22 55
M  V30 59 1 23 56
M  V30 60 1 24 57
M  V30 61 1 24 58
M  V30 62 1 26 59
M  V30 63 1 28 60
M  V30 64 1 34 61
M  V30 65 1 40 62
M  V30 END BOND
M  V30 END CTAB
M  END
>  <Dataset>  (51) 
ChEMBL_Kinases

>  <Ligand_Instance>  (51) 
nan

>  <PDB_ID>  (51) 
nan

>  <Standardized_SMILES>  (51) 
O=C1OC(CO)(COC(=O)C(c2ccccc2)c2ccccc2)C/C1=C/c1cc(C(F)(F)F)cc(C(F)(F)F)c1

>  <Name>  (51) 
nan

>  <Pocket>  (51) 
nan

>  <ATP_Site>  (51) 
nan

>  <Peripheral>  (51) 
nan

>  <Num_H_Atoms_ProtBoundConf>  (51) 
nan

>  <Num_Resolved_Atoms>  (51) 
nan

>  <Num_Not_Resolved_Atoms>  (51) 
nan

$$$$
CHEMBL3732849
     RDKit          3D

  0  0  0  0  0  0  0  0  0  0999 V3000
M  V30 BEGIN CTAB
M  V30 COUNTS 39 42 0 0 0
M  V30 BEGIN ATOM
M  V30 1 Br 2.588161 -2.972490 5.908013 0
M  V30 2 C 2.818467 -2.486362 4.082608 0
M  V30 3 C 4.116948 -2.733031 3.616111 0
M  V30 4 S 3.998935 -2.142459 1.790117 0
M  V30 5 C 2.240068 -1.652232 1.908621 0
M  V30 6 C 1.400964 -1.114947 0.967251 0
M  V30 7 N 1.947367 -0.888395 -0.317671 0
M  V30 8 C 1.036142 -0.326699 -1.262138 0 CFG=2
M  V30 9 C 1.656321 -0.104772 -2.625086 0
M  V30 10 C 0.467588 0.205890 -3.546068 0
M  V30 11 C -0.267427 1.420612 -3.003854 0
M  V30 12 N 0.394825 1.970108 -1.841694 0
M  V30 13 C 0.519086 1.005496 -0.770858 0
M  V30 14 N 0.141729 -0.857726 1.360257 0
M  V30 15 C -0.228551 -1.138676 2.648410 0
M  V30 16 C -1.593623 -0.861199 3.076227 0
M  V30 17 C -2.000554 -1.128953 4.364584 0
M  V30 18 C -3.329986 -0.828333 4.681637 0
M  V30 19 N -4.168273 -0.300909 3.762796 0
M  V30 20 C -3.729376 -0.055859 2.518037 0
M  V30 21 C -2.417771 -0.324092 2.111336 0
M  V30 22 N 0.623883 -1.660820 3.526932 0
M  V30 23 C 1.899477 -1.954048 3.236308 0
M  V30 24 H 4.997426 -3.087439 3.915243 0
M  V30 25 H 2.915797 -1.103042 -0.570271 0
M  V30 26 H 0.153009 -0.979520 -1.421798 0
M  V30 27 H 2.096007 -1.052613 -3.021877 0
M  V30 28 H 2.372587 0.717631 -2.667909 0
M  V30 29 H 0.762129 0.299662 -4.598087 0
M  V30 30 H -0.233494 -0.651818 -3.442952 0
M  V30 31 H -0.290039 2.208666 -3.776516 0
M  V30 32 H -1.321640 1.201808 -2.729010 0
M  V30 33 H -0.223181 2.729322 -1.486356 0
M  V30 34 H 1.280408 1.400786 -0.062750 0
M  V30 35 H -0.420838 0.894075 -0.232454 0
M  V30 36 H -1.330131 -1.549757 5.096072 0
M  V30 37 H -3.724421 -1.007314 5.663508 0
M  V30 38 H -4.405511 0.364080 1.794981 0
M  V30 39 H -2.155543 -0.095438 1.094418 0
M  V30 END ATOM
M  V30 BEGIN BOND
M  V30 1 1 1 2
M  V30 2 2 2 3
M  V30 3 1 3 4
M  V30 4 1 4 5
M  V30 5 2 5 6
M  V30 6 1 6 7
M  V30 7 1 7 8
M  V30 8 1 8 9
M  V30 9 1 9 10
M  V30 10 1 10 11
M  V30 11 1 11 12
M  V30 12 1 12 13
M  V30 13 1 6 14
M  V30 14 2 14 15
M  V30 15 1 15 16
M  V30 16 2 16 17
M  V30 17 1 17 18
M  V30 18 2 18 19
M  V30 19 1 19 20
M  V30 20 2 20 21
M  V30 21 1 15 22
M  V30 22 2 22 23
M  V30 23 1 23 2
M  V30 24 1 23 5
M  V30 25 1 13 8
M  V30 26 1 21 16
M  V30 27 1 3 24
M  V30 28 1 7 25
M  V30 29 1 8 26 CFG=3
M  V30 30 1 9 27
M  V30 31 1 9 28
M  V30 32 1 10 29
M  V30 33 1 10 30
M  V30 34 1 11 31
M  V30 35 1 11 32
M  V30 36 1 12 33
M  V30 37 1 13 34
M  V30 38 1 13 35
M  V30 39 1 17 36
M  V30 40 1 18 37
M  V30 41 1 20 38
M  V30 42 1 21 39
M  V30 END BOND
M  V30 END CTAB
M  END
>  <Dataset>  (52) 
ChEMBL_Kinases

>  <Ligand_Instance>  (52) 
nan

>  <PDB_ID>  (52) 
nan

>  <Standardized_SMILES>  (52) 
Brc1csc2c(N[C@@H]3CCCNC3)nc(-c3ccncc3)nc12

>  <Name>  (52) 
nan

>  <Pocket>  (52) 
nan

>  <ATP_Site>  (52) 
nan

>  <Peripheral>  (52) 
nan

>  <Num_H_Atoms_ProtBoundConf>  (52) 
nan

>  <Num_Resolved_Atoms>  (52) 
nan

>  <Num_Not_Resolved_Atoms>  (52) 
nan

$$$$
CHEMBL520808
     RDKit          3D

  0  0  0  0  0  0  0  0  0  0999 V3000
M  V30 BEGIN CTAB
M  V30 COUNTS 59 63 0 0 0
M  V30 BEGIN ATOM
M  V30 1 C 7.677058 -0.097194 5.789159 0
M  V30 2 O 6.687043 -0.191907 4.951474 0
M  V30 3 C 5.740029 -0.322172 4.106020 0
M  V30 4 C 5.848369 -1.288100 3.111196 0
M  V30 5 C 4.893291 -1.523517 2.142663 0
M  V30 6 C 3.777771 -0.716136 2.215930 0
M  V30 7 C 2.682706 -0.842859 1.263948 0
M  V30 8 N 1.627529 -0.132341 1.273985 0
M  V30 9 C 0.498845 -0.152707 0.415330 0
M  V30 10 C -0.786804 -0.211576 1.168233 0
M  V30 11 C -1.486550 0.957751 1.486126 0
M  V30 12 C -2.676627 0.982223 2.177152 0
M  V30 13 C -3.225164 -0.220964 2.588639 0
M  V30 14 C -4.508981 -0.110407 3.328166 0
M  V30 15 F -4.984499 -1.341290 3.725616 0
M  V30 16 F -5.422131 0.597966 2.610170 0
M  V30 17 F -4.257167 0.598498 4.509124 0
M  V30 18 C -2.561870 -1.377388 2.290973 0
M  V30 19 C -1.368874 -1.400781 1.598161 0
M  V30 20 F -0.738702 -2.567455 1.320582 0
M  V30 21 C 0.553883 -1.162359 -0.664013 0
M  V30 22 C -0.658950 -1.053825 -1.435116 0
M  V30 23 O -1.620082 -0.224059 -1.223980 0
M  V30 24 N -1.216595 -1.696108 -2.554795 0
M  V30 25 C -2.478817 -1.296068 -3.039672 0
M  V30 26 C -3.520155 -2.000534 -2.448410 0
M  V30 27 C -4.846028 -1.776476 -2.770104 0
M  V30 28 C -5.152535 -0.811317 -3.719933 0
M  V30 29 N -6.294181 -0.332915 -4.270637 0
M  V30 30 N -5.987409 0.607271 -5.147113 0
M  V30 31 C -4.641047 0.780380 -5.204414 0
M  V30 32 C -4.119320 -0.111009 -4.307857 0
M  V30 33 C -2.784078 -0.332120 -3.988232 0
M  V30 34 C 1.637733 -1.900820 -0.684227 0
M  V30 35 C 1.594051 -2.861895 -1.782901 0
M  V30 36 N 2.717212 -1.798338 0.227251 0
M  V30 37 C 3.602662 0.272506 3.186621 0
M  V30 38 C 4.603395 0.465336 4.141570 0
M  V30 39 H 7.561448 0.822521 6.450867 0
M  V30 40 H 7.713580 -1.001893 6.486209 0
M  V30 41 H 8.718536 -0.059790 5.348984 0
M  V30 42 H 6.737796 -1.925758 3.059554 0
M  V30 43 H 5.016875 -2.276507 1.396309 0
M  V30 44 H 0.493192 0.851122 -0.116632 0
M  V30 45 H -1.028757 1.881576 1.148890 0
M  V30 46 H -3.107381 1.962761 2.352862 0
M  V30 47 H -3.019411 -2.291061 2.627333 0
M  V30 48 H -0.618401 -2.452218 -2.951117 0
M  V30 49 H -3.397632 -2.783379 -1.688283 0
M  V30 50 H -5.671290 -2.318643 -2.316942 0
M  V30 51 H -7.230166 -0.699207 -3.995041 0
M  V30 52 H -4.107290 1.489787 -5.841267 0
M  V30 53 H -1.932447 0.158814 -4.389994 0
M  V30 54 H 2.579106 -3.433754 -1.709154 0
M  V30 55 H 1.663275 -2.363504 -2.745295 0
M  V30 56 H 0.846004 -3.652014 -1.657103 0
M  V30 57 H 3.495707 -2.454356 0.073029 0
M  V30 58 H 2.723349 0.885241 3.218007 0
M  V30 59 H 4.427761 1.238028 4.871648 0
M  V30 END ATOM
M  V30 BEGIN BOND
M  V30 1 1 1 2
M  V30 2 1 2 3
M  V30 3 2 3 4
M  V30 4 1 4 5
M  V30 5 2 5 6
M  V30 6 1 6 7
M  V30 7 2 7 8
M  V30 8 1 8 9
M  V30 9 1 9 10
M  V30 10 2 10 11
M  V30 11 1 11 12
M  V30 12 2 12 13
M  V30 13 1 13 14
M  V30 14 1 14 15
M  V30 15 1 14 16
M  V30 16 1 14 17
M  V30 17 1 13 18
M  V30 18 2 18 19
M  V30 19 1 19 20
M  V30 20 1 9 21
M  V30 21 1 21 22
M  V30 22 2 22 23
M  V30 23 1 22 24
M  V30 24 1 24 25
M  V30 25 2 25 26
M  V30 26 1 26 27
M  V30 27 2 27 28
M  V30 28 1 28 29
M  V30 29 1 29 30
M  V30 30 2 30 31
M  V30 31 1 31 32
M  V30 32 2 32 33
M  V30 33 2 21 34
M  V30 34 1 34 35
M  V30 35 1 34 36
M  V30 36 1 6 37
M  V30 37 2 37 38
M  V30 38 1 38 3
M  V30 39 1 36 7
M  V30 40 1 19 10
M  V30 41 1 33 25
M  V30 42 1 32 28
M  V30 43 1 1 39
M  V30 44 1 1 40
M  V30 45 1 1 41
M  V30 46 1 4 42
M  V30 47 1 5 43
M  V30 48 1 9 44
M  V30 49 1 11 45
M  V30 50 1 12 46
M  V30 51 1 18 47
M  V30 52 1 24 48
M  V30 53 1 26 49
M  V30 54 1 27 50
M  V30 55 1 29 51
M  V30 56 1 31 52
M  V30 57 1 33 53
M  V30 58 1 35 54
M  V30 59 1 35 55
M  V30 60 1 35 56
M  V30 61 1 36 57
M  V30 62 1 37 58
M  V30 63 1 38 59
M  V30 END BOND
M  V30 END CTAB
M  END
>  <Dataset>  (53) 
ChEMBL_Kinases

>  <Ligand_Instance>  (53) 
nan

>  <PDB_ID>  (53) 
nan

>  <Standardized_SMILES>  (53) 
COc1ccc(C2=NC(c3ccc(C(F)(F)F)cc3F)C(C(=O)Nc3ccc4[nH]ncc4c3)=C(C)N2)cc1

>  <Name>  (53) 
nan

>  <Pocket>  (53) 
nan

>  <ATP_Site>  (53) 
nan

>  <Peripheral>  (53) 
nan

>  <Num_H_Atoms_ProtBoundConf>  (53) 
nan

>  <Num_Resolved_Atoms>  (53) 
nan

>  <Num_Not_Resolved_Atoms>  (53) 
nan

$$$$
CHEMBL520828
     RDKit          3D

  0  0  0  0  0  0  0  0  0  0999 V3000
M  V30 BEGIN CTAB
M  V30 COUNTS 56 60 0 0 0
M  V30 BEGIN ATOM
M  V30 1 C 8.759190 0.113667 1.207028 0
M  V30 2 O 7.890171 -0.981489 1.104549 0
M  V30 3 C 6.528696 -0.912286 0.896092 0
M  V30 4 C 5.871133 -2.139892 0.828967 0
M  V30 5 C 4.509119 -2.197569 0.623897 0
M  V30 6 C 3.724079 -1.075548 0.474999 0
M  V30 7 C 2.285672 -1.085209 0.257117 0
M  V30 8 N 1.650535 0.022029 0.131690 0
M  V30 9 C 0.232234 0.170519 -0.085835 0
M  V30 10 C -0.308456 1.054538 1.002849 0
M  V30 11 C -0.587035 0.438277 2.222107 0
M  V30 12 C -1.090321 1.190158 3.279534 0
M  V30 13 C -1.325997 2.543639 3.159788 0
M  V30 14 Cl -1.957020 3.554784 4.443394 0
M  V30 15 C -1.048391 3.163988 1.940811 0
M  V30 16 C -0.550598 2.415148 0.898147 0
M  V30 17 F -0.265608 2.981453 -0.308528 0
M  V30 18 C -0.482204 -1.118710 -0.187422 0
M  V30 19 C -1.916283 -1.176509 -0.437868 0
M  V30 20 O -2.562501 -2.266637 -0.530399 0
M  V30 21 N -2.845518 -0.119138 -0.622135 0
M  V30 22 C -4.132502 -0.739261 -0.834182 0
M  V30 23 C -4.493591 -1.040468 -2.142624 0
M  V30 24 C -5.723780 -1.641907 -2.416289 0
M  V30 25 C -6.516182 -1.900425 -1.321645 0
M  V30 26 N -7.752181 -2.473407 -1.281981 0
M  V30 27 N -8.214602 -2.563652 -0.044827 0
M  V30 28 C -7.265430 -2.037510 0.774077 0
M  V30 29 C -6.199363 -1.619990 -0.014123 0
M  V30 30 C -4.976316 -1.024419 0.233994 0
M  V30 31 C 0.095750 -2.318255 -0.067527 0
M  V30 32 C -0.554184 -3.656193 -0.155744 0
M  V30 33 N 1.522353 -2.275982 0.161006 0
M  V30 34 C 4.403427 0.126857 0.546082 0
M  V30 35 C 5.763831 0.217438 0.750018 0
M  V30 36 H 9.648915 -0.104699 0.573943 0
M  V30 37 H 9.171403 0.184105 2.250434 0
M  V30 38 H 8.322025 1.048484 0.846321 0
M  V30 39 H 6.419585 -3.084608 0.937166 0
M  V30 40 H 4.045821 -3.159198 0.579148 0
M  V30 41 H 0.124210 0.693759 -1.080087 0
M  V30 42 H -0.435947 -0.603496 2.405169 0
M  V30 43 H -1.344655 0.831249 4.268396 0
M  V30 44 H -1.216329 4.226686 1.794511 0
M  V30 45 H -2.432823 0.859364 -0.572948 0
M  V30 46 H -3.852607 -0.828163 -2.999225 0
M  V30 47 H -6.060338 -1.900518 -3.420088 0
M  V30 48 H -8.364304 -2.837183 -2.052575 0
M  V30 49 H -7.310390 -1.949166 1.851551 0
M  V30 50 H -4.686622 -0.786860 1.249144 0
M  V30 51 H -1.307860 -3.797078 0.670068 0
M  V30 52 H 0.225760 -4.436946 -0.020066 0
M  V30 53 H -1.006047 -3.857582 -1.154178 0
M  V30 54 H 2.041398 -3.174508 0.264601 0
M  V30 55 H 3.886466 1.085242 0.441995 0
M  V30 56 H 6.287713 1.157211 0.804551 0
M  V30 END ATOM
M  V30 BEGIN BOND
M  V30 1 1 1 2
M  V30 2 1 2 3
M  V30 3 2 3 4
M  V30 4 1 4 5
M  V30 5 2 5 6
M  V30 6 1 6 7
M  V30 7 2 7 8
M  V30 8 1 8 9
M  V30 9 1 9 10
M  V30 10 2 10 11
M  V30 11 1 11 12
M  V30 12 2 12 13
M  V30 13 1 13 14
M  V30 14 1 13 15
M  V30 15 2 15 16
M  V30 16 1 16 17
M  V30 17 1 9 18
M  V30 18 1 18 19
M  V30 19 2 19 20
M  V30 20 1 19 21
M  V30 21 1 21 22
M  V30 22 2 22 23
M  V30 23 1 23 24
M  V30 24 2 24 25
M  V30 25 1 25 26
M  V30 26 1 26 27
M  V30 27 2 27 28
M  V30 28 1 28 29
M  V30 29 2 29 30
M  V30 30 2 18 31
M  V30 31 1 31 32
M  V30 32 1 31 33
M  V30 33 1 6 34
M  V30 34 2 34 35
M  V30 35 1 35 3
M  V30 36 1 33 7
M  V30 37 1 16 10
M  V30 38 1 30 22
M  V30 39 1 29 25
M  V30 40 1 1 36
M  V30 41 1 1 37
M  V30 42 1 1 38
M  V30 43 1 4 39
M  V30 44 1 5 40
M  V30 45 1 9 41
M  V30 46 1 11 42
M  V30 47 1 12 43
M  V30 48 1 15 44
M  V30 49 1 21 45
M  V30 50 1 23 46
M  V30 51 1 24 47
M  V30 52 1 26 48
M  V30 53 1 28 49
M  V30 54 1 30 50
M  V30 55 1 32 51
M  V30 56 1 32 52
M  V30 57 1 32 53
M  V30 58 1 33 54
M  V30 59 1 34 55
M  V30 60 1 35 56
M  V30 END BOND
M  V30 END CTAB
M  END
>  <Dataset>  (54) 
ChEMBL_Kinases

>  <Ligand_Instance>  (54) 
nan

>  <PDB_ID>  (54) 
nan

>  <Standardized_SMILES>  (54) 
COc1ccc(C2=NC(c3ccc(Cl)cc3F)C(C(=O)Nc3ccc4[nH]ncc4c3)=C(C)N2)cc1

>  <Name>  (54) 
nan

>  <Pocket>  (54) 
nan

>  <ATP_Site>  (54) 
nan

>  <Peripheral>  (54) 
nan

>  <Num_H_Atoms_ProtBoundConf>  (54) 
nan

>  <Num_Resolved_Atoms>  (54) 
nan

>  <Num_Not_Resolved_Atoms>  (54) 
nan

$$$$
CHEMBL3732845
     RDKit          3D

  0  0  0  0  0  0  0  0  0  0999 V3000
M  V30 BEGIN CTAB
M  V30 COUNTS 35 37 0 0 0
M  V30 BEGIN ATOM
M  V30 1 C 0.173876 -4.119598 3.444499 0
M  V30 2 N 1.183474 -4.371609 2.481136 0
M  V30 3 C 0.800048 -4.153757 1.125210 0
M  V30 4 C 0.570133 -2.754129 0.711621 0
M  V30 5 N -0.479910 -2.033922 1.363568 0
M  V30 6 C -0.543609 -0.658917 0.922562 0
M  V30 7 N 0.300036 -0.125694 -0.000754 0
M  V30 8 C 0.101995 1.172347 -0.295833 0
M  V30 9 C 0.993797 1.799317 -1.294469 0
M  V30 10 C 1.984910 1.046044 -1.883142 0
M  V30 11 C 2.826211 1.624350 -2.821304 0
M  V30 12 N 2.700411 2.927301 -3.181161 0
M  V30 13 C 1.727322 3.676990 -2.606585 0
M  V30 14 C 0.871062 3.121487 -1.663849 0
M  V30 15 N -0.845107 1.958555 0.242479 0
M  V30 16 C -1.697840 1.460152 1.161074 0
M  V30 17 C -2.688403 2.177121 1.760111 0
M  V30 18 Br -3.172865 4.005459 1.523448 0
M  V30 19 C -3.477506 1.532619 2.674488 0
M  V30 20 S -2.764007 -0.224955 2.689534 0
M  V30 21 C -1.525948 0.154404 1.481844 0
M  V30 22 H -0.861739 -4.392527 3.140237 0
M  V30 23 H 0.233171 -3.065873 3.777309 0
M  V30 24 H 0.396277 -4.730480 4.387515 0
M  V30 25 H 1.675975 -5.266388 2.643859 0
M  V30 26 H -0.078591 -4.827864 0.887294 0
M  V30 27 H 1.609083 -4.606354 0.464962 0
M  V30 28 H 1.560391 -2.214521 0.842438 0
M  V30 29 H 0.404120 -2.750655 -0.400357 0
M  V30 30 H -1.177127 -2.341396 2.067203 0
M  V30 31 H 2.087329 0.002119 -1.596048 0
M  V30 32 H 3.583268 0.954211 -3.235883 0
M  V30 33 H 1.641101 4.719899 -2.907540 0
M  V30 34 H 0.102420 3.704947 -1.207739 0
M  V30 35 H -4.319592 1.729865 3.331564 0
M  V30 END ATOM
M  V30 BEGIN BOND
M  V30 1 1 1 2
M  V30 2 1 2 3
M  V30 3 1 3 4
M  V30 4 1 4 5
M  V30 5 1 5 6
M  V30 6 2 6 7
M  V30 7 1 7 8
M  V30 8 1 8 9
M  V30 9 2 9 10
M  V30 10 1 10 11
M  V30 11 2 11 12
M  V30 12 1 12 13
M  V30 13 2 13 14
M  V30 14 2 8 15
M  V30 15 1 15 16
M  V30 16 1 16 17
M  V30 17 1 17 18
M  V30 18 2 17 19
M  V30 19 1 19 20
M  V30 20 1 20 21
M  V30 21 1 21 6
M  V30 22 1 14 9
M  V30 23 2 21 16
M  V30 24 1 1 22
M  V30 25 1 1 23
M  V30 26 1 1 24
M  V30 27 1 2 25
M  V30 28 1 3 26
M  V30 29 1 3 27
M  V30 30 1 4 28
M  V30 31 1 4 29
M  V30 32 1 5 30
M  V30 33 1 10 31
M  V30 34 1 11 32
M  V30 35 1 13 33
M  V30 36 1 14 34
M  V30 37 1 19 35
M  V30 END BOND
M  V30 END CTAB
M  END
>  <Dataset>  (55) 
ChEMBL_Kinases

>  <Ligand_Instance>  (55) 
nan

>  <PDB_ID>  (55) 
nan

>  <Standardized_SMILES>  (55) 
CNCCNc1nc(-c2ccncc2)nc2c(Br)csc12

>  <Name>  (55) 
nan

>  <Pocket>  (55) 
nan

>  <ATP_Site>  (55) 
nan

>  <Peripheral>  (55) 
nan

>  <Num_H_Atoms_ProtBoundConf>  (55) 
nan

>  <Num_Resolved_Atoms>  (55) 
nan

>  <Num_Not_Resolved_Atoms>  (55) 
nan

$$$$
CHEMBL520949
     RDKit          3D

  0  0  0  0  0  0  0  0  0  0999 V3000
M  V30 BEGIN CTAB
M  V30 COUNTS 43 46 0 0 0
M  V30 BEGIN ATOM
M  V30 1 N 3.686836 -5.235856 2.052690 0
M  V30 2 C 3.733495 -4.330317 1.310153 0
M  V30 3 C 3.784075 -3.213593 0.413429 0
M  V30 4 C 4.957922 -2.588532 0.052314 0
M  V30 5 C 4.997948 -1.507450 -0.816509 0
M  V30 6 C 3.776428 -1.085415 -1.307467 0
M  V30 7 C 2.552028 -1.680407 -0.976861 0
M  V30 8 C 1.356112 -1.076479 -1.617289 0
M  V30 9 N 0.839918 0.049915 -0.868084 0
M  V30 10 C 1.303855 1.310897 -1.115100 0
M  V30 11 N 0.682359 2.197598 -0.298281 0
M  V30 12 C -0.195610 1.513257 0.490234 0
M  V30 13 C -1.074700 2.067688 1.512917 0
M  V30 14 C -0.401736 2.203191 2.717721 0
M  V30 15 C -1.024730 2.711029 3.849524 0
M  V30 16 C -2.348675 3.081326 3.739188 0
M  V30 17 F -3.101417 3.596139 4.755692 0
M  V30 18 C -3.037664 2.953125 2.542965 0
M  V30 19 C -2.397068 2.444395 1.426582 0
M  V30 20 C -0.066788 0.192313 0.106572 0
M  V30 21 C -0.810809 -0.899980 0.669281 0
M  V30 22 C -2.171850 -0.787480 0.365936 0
M  V30 23 C -3.104715 -1.728174 0.807484 0
M  V30 24 N -2.674451 -2.784302 1.554596 0
M  V30 25 C -1.350018 -2.870514 1.834959 0
M  V30 26 N -0.783731 -3.935042 2.610187 0
M  V30 27 N -0.454798 -1.964117 1.408775 0
M  V30 28 C 2.618668 -2.747282 -0.106502 0
M  V30 29 H 5.869744 -2.979627 0.479897 0
M  V30 30 H 5.922960 -1.023353 -1.094249 0
M  V30 31 H 3.824343 -0.235824 -1.988790 0
M  V30 32 H 0.590724 -1.870915 -1.751905 0
M  V30 33 H 1.638912 -0.757087 -2.649747 0
M  V30 34 H 2.057909 1.615479 -1.845784 0
M  V30 35 H 0.647905 1.942434 2.921561 0
M  V30 36 H -0.606102 2.857361 4.819349 0
M  V30 37 H -4.087609 3.228902 2.392896 0
M  V30 38 H -2.813749 2.294196 0.440635 0
M  V30 39 H -2.645302 -0.001501 -0.217146 0
M  V30 40 H -4.161576 -1.670590 0.590401 0
M  V30 41 H -0.357660 -4.591941 1.898723 0
M  V30 42 H -0.879365 -3.884302 3.647125 0
M  V30 43 H 1.682948 -3.188547 0.130718 0
M  V30 END ATOM
M  V30 BEGIN BOND
M  V30 1 3 1 2
M  V30 2 1 2 3
M  V30 3 2 3 4
M  V30 4 1 4 5
M  V30 5 2 5 6
M  V30 6 1 6 7
M  V30 7 1 7 8
M  V30 8 1 8 9
M  V30 9 1 9 10
M  V30 10 2 10 11
M  V30 11 1 11 12
M  V30 12 1 12 13
M  V30 13 2 13 14
M  V30 14 1 14 15
M  V30 15 2 15 16
M  V30 16 1 16 17
M  V30 17 1 16 18
M  V30 18 2 18 19
M  V30 19 2 12 20
M  V30 20 1 20 21
M  V30 21 2 21 22
M  V30 22 1 22 23
M  V30 23 2 23 24
M  V30 24 1 24 25
M  V30 25 1 25 26
M  V30 26 2 25 27
M  V30 27 2 7 28
M  V30 28 1 28 3
M  V30 29 1 20 9
M  V30 30 1 27 21
M  V30 31 1 19 13
M  V30 32 1 4 29
M  V30 33 1 5 30
M  V30 34 1 6 31
M  V30 35 1 8 32
M  V30 36 1 8 33
M  V30 37 1 10 34
M  V30 38 1 14 35
M  V30 39 1 15 36
M  V30 40 1 18 37
M  V30 41 1 19 38
M  V30 42 1 22 39
M  V30 43 1 23 40
M  V30 44 1 26 41
M  V30 45 1 26 42
M  V30 46 1 28 43
M  V30 END BOND
M  V30 END CTAB
M  END
>  <Dataset>  (56) 
ChEMBL_Kinases

>  <Ligand_Instance>  (56) 
nan

>  <PDB_ID>  (56) 
nan

>  <Standardized_SMILES>  (56) 
N#Cc1cccc(Cn2cnc(-c3ccc(F)cc3)c2-c2ccnc(N)n2)c1

>  <Name>  (56) 
nan

>  <Pocket>  (56) 
nan

>  <ATP_Site>  (56) 
nan

>  <Peripheral>  (56) 
nan

>  <Num_H_Atoms_ProtBoundConf>  (56) 
nan

>  <Num_Resolved_Atoms>  (56) 
nan

>  <Num_Not_Resolved_Atoms>  (56) 
nan

$$$$
CHEMBL3732827
     RDKit          3D

  0  0  0  0  0  0  0  0  0  0999 V3000
M  V30 BEGIN CTAB
M  V30 COUNTS 48 51 0 0 0
M  V30 BEGIN ATOM
M  V30 1 C 3.271976 -3.426084 -0.088009 0
M  V30 2 C 2.982806 -1.981130 -0.283805 0
M  V30 3 C 2.831649 -1.196982 0.974401 0 CFG=2
M  V30 4 N 4.068381 -1.294792 1.719746 0
M  V30 5 C 1.740529 -1.701061 1.881637 0
M  V30 6 N 0.433565 -1.704429 1.324776 0
M  V30 7 C -0.240919 -0.490901 0.958345 0
M  V30 8 N 0.464889 0.621943 1.183824 0
M  V30 9 C 0.108106 1.876898 0.944408 0
M  V30 10 C 0.946436 3.032399 1.224065 0
M  V30 11 C 0.460922 4.290203 0.928604 0
M  V30 12 C 1.200040 5.427833 1.166835 0
M  V30 13 N 2.439555 5.264955 1.709870 0
M  V30 14 C 2.894910 4.017149 1.991700 0
M  V30 15 C 2.197313 2.846588 1.773567 0
M  V30 16 N -1.115322 2.009773 0.411155 0
M  V30 17 C -1.887134 0.903030 0.157127 0
M  V30 18 S -3.485552 0.814850 -0.526609 0
M  V30 19 C -3.588729 -1.007995 -0.446284 0
M  V30 20 C -2.359937 -1.377482 0.109863 0
M  V30 21 C -1.498964 -0.358086 0.410814 0
M  V30 22 C -2.507501 -2.842836 0.155324 0
M  V30 23 C -3.782415 -3.096441 0.999975 0
M  V30 24 C -4.925253 -3.049313 -0.022030 0
M  V30 25 C -4.716064 -1.822808 -0.883101 0
M  V30 26 H 2.685290 -4.035910 -0.816404 0
M  V30 27 H 4.343334 -3.682926 -0.307020 0
M  V30 28 H 3.073272 -3.819972 0.926023 0
M  V30 29 H 3.818905 -1.526785 -0.854647 0
M  V30 30 H 2.086353 -1.838444 -0.922393 0
M  V30 31 H 2.642200 -0.140803 0.741290 0
M  V30 32 H 4.114902 -0.560609 2.472170 0
M  V30 33 H 4.235349 -2.254566 2.086193 0
M  V30 34 H 1.745250 -0.962228 2.752011 0
M  V30 35 H 2.056248 -2.633506 2.320781 0
M  V30 36 H 0.211392 -2.708713 1.286283 0
M  V30 37 H -0.539668 4.421876 0.490227 0
M  V30 38 H 0.784334 6.380661 0.922466 0
M  V30 39 H 3.883260 4.029755 2.414822 0
M  V30 40 H 2.616592 1.889410 2.019843 0
M  V30 41 H -1.723374 -3.368288 0.709861 0
M  V30 42 H -2.670195 -3.295151 -0.856292 0
M  V30 43 H -3.749822 -4.060979 1.499613 0
M  V30 44 H -3.863869 -2.278671 1.740419 0
M  V30 45 H -5.902507 -3.055817 0.484340 0
M  V30 46 H -4.847529 -3.990187 -0.603759 0
M  V30 47 H -5.656610 -1.261074 -0.871301 0
M  V30 48 H -4.532369 -2.169567 -1.915998 0
M  V30 END ATOM
M  V30 BEGIN BOND
M  V30 1 1 1 2
M  V30 2 1 2 3
M  V30 3 1 3 4
M  V30 4 1 3 5
M  V30 5 1 5 6
M  V30 6 1 6 7
M  V30 7 2 7 8
M  V30 8 1 8 9
M  V30 9 1 9 10
M  V30 10 2 10 11
M  V30 11 1 11 12
M  V30 12 2 12 13
M  V30 13 1 13 14
M  V30 14 2 14 15
M  V30 15 2 9 16
M  V30 16 1 16 17
M  V30 17 1 17 18
M  V30 18 1 18 19
M  V30 19 2 19 20
M  V30 20 1 20 21
M  V30 21 1 20 22
M  V30 22 1 22 23
M  V30 23 1 23 24
M  V30 24 1 24 25
M  V30 25 1 21 7
M  V30 26 1 15 10
M  V30 27 2 21 17
M  V30 28 1 25 19
M  V30 29 1 1 26
M  V30 30 1 1 27
M  V30 31 1 1 28
M  V30 32 1 2 29
M  V30 33 1 2 30
M  V30 34 1 3 31 CFG=3
M  V30 35 1 4 32
M  V30 36 1 4 33
M  V30 37 1 5 34
M  V30 38 1 5 35
M  V30 39 1 6 36
M  V30 40 1 11 37
M  V30 41 1 12 38
M  V30 42 1 14 39
M  V30 43 1 15 40
M  V30 44 1 22 41
M  V30 45 1 22 42
M  V30 46 1 23 43
M  V30 47 1 23 44
M  V30 48 1 24 45
M  V30 49 1 24 46
M  V30 50 1 25 47
M  V30 51 1 25 48
M  V30 END BOND
M  V30 END CTAB
M  END
>  <Dataset>  (57) 
ChEMBL_Kinases

>  <Ligand_Instance>  (57) 
nan

>  <PDB_ID>  (57) 
nan

>  <Standardized_SMILES>  (57) 
CC[C@H](N)CNc1nc(-c2ccncc2)nc2sc3c(c12)CCCC3

>  <Name>  (57) 
nan

>  <Pocket>  (57) 
nan

>  <ATP_Site>  (57) 
nan

>  <Peripheral>  (57) 
nan

>  <Num_H_Atoms_ProtBoundConf>  (57) 
nan

>  <Num_Resolved_Atoms>  (57) 
nan

>  <Num_Not_Resolved_Atoms>  (57) 
nan

$$$$
CHEMBL3732811
     RDKit          3D

  0  0  0  0  0  0  0  0  0  0999 V3000
M  V30 BEGIN CTAB
M  V30 COUNTS 41 43 0 0 0
M  V30 BEGIN ATOM
M  V30 1 C 1.976996 -1.549374 6.030825 0
M  V30 2 C 1.824620 -1.305893 4.625872 0
M  V30 3 S 3.119534 -1.813366 3.425383 0
M  V30 4 C 2.236973 -1.195873 1.982808 0
M  V30 5 N 2.570859 -1.204829 0.657764 0
M  V30 6 C 1.772577 -0.691994 -0.262643 0
M  V30 7 C 2.204032 -0.742546 -1.646150 0
M  V30 8 C 1.465069 -0.230697 -2.692065 0
M  V30 9 C 1.994002 -0.343482 -3.961165 0
M  V30 10 N 3.177164 -0.917543 -4.239178 0
M  V30 11 C 3.899898 -1.416761 -3.226715 0
M  V30 12 C 3.419478 -1.333553 -1.921222 0
M  V30 13 N 0.657161 -0.189520 0.233533 0
M  V30 14 C 0.262725 -0.140902 1.483198 0
M  V30 15 N -0.981759 0.523333 1.632874 0
M  V30 16 C -1.815832 1.042719 0.572579 0
M  V30 17 C -2.715575 0.014168 -0.037591 0 CFG=2
M  V30 18 C -2.029337 -1.147020 -0.657198 0
M  V30 19 N -3.513227 0.708387 -1.065094 0
M  V30 20 C 1.049915 -0.657285 2.474459 0
M  V30 21 C 0.839431 -0.712607 3.812741 0
M  V30 22 C -0.347641 -0.216010 4.552577 0
M  V30 23 H 1.487563 -2.502486 6.317019 0
M  V30 24 H 3.052459 -1.654043 6.278878 0
M  V30 25 H 1.547591 -0.762489 6.695728 0
M  V30 26 H 0.512291 0.234949 -2.483449 0
M  V30 27 H 1.399856 0.064438 -4.773749 0
M  V30 28 H 4.854547 -1.878924 -3.458934 0
M  V30 29 H 4.050835 -1.754491 -1.157424 0
M  V30 30 H -1.569553 0.783397 2.450824 0
M  V30 31 H -2.331692 1.978770 0.825108 0
M  V30 32 H -1.062475 1.329647 -0.250645 0
M  V30 33 H -3.481553 -0.295662 0.730186 0
M  V30 34 H -2.823901 -1.774504 -1.159097 0
M  V30 35 H -1.559572 -1.791036 0.101958 0
M  V30 36 H -1.380862 -0.830096 -1.485169 0
M  V30 37 H -3.891511 1.589632 -0.659726 0
M  V30 38 H -4.236012 0.059969 -1.448786 0
M  V30 39 H -1.258830 -0.731013 4.135133 0
M  V30 40 H -0.513876 0.860243 4.493765 0
M  V30 41 H -0.309530 -0.501708 5.627872 0
M  V30 END ATOM
M  V30 BEGIN BOND
M  V30 1 1 1 2
M  V30 2 1 2 3
M  V30 3 1 3 4
M  V30 4 2 4 5
M  V30 5 1 5 6
M  V30 6 1 6 7
M  V30 7 2 7 8
M  V30 8 1 8 9
M  V30 9 2 9 10
M  V30 10 1 10 11
M  V30 11 2 11 12
M  V30 12 2 6 13
M  V30 13 1 13 14
M  V30 14 1 14 15
M  V30 15 1 15 16
M  V30 16 1 16 17
M  V30 17 1 17 18
M  V30 18 1 17 19
M  V30 19 2 14 20
M  V30 20 1 20 21
M  V30 21 1 21 22
M  V30 22 2 21 2
M  V30 23 1 20 4
M  V30 24 1 12 7
M  V30 25 1 1 23
M  V30 26 1 1 24
M  V30 27 1 1 25
M  V30 28 1 8 26
M  V30 29 1 9 27
M  V30 30 1 11 28
M  V30 31 1 12 29
M  V30 32 1 15 30
M  V30 33 1 16 31
M  V30 34 1 16 32
M  V30 35 1 17 33 CFG=1
M  V30 36 1 18 34
M  V30 37 1 18 35
M  V30 38 1 18 36
M  V30 39 1 19 37
M  V30 40 1 19 38
M  V30 41 1 22 39
M  V30 42 1 22 40
M  V30 43 1 22 41
M  V30 END BOND
M  V30 END CTAB
M  END
>  <Dataset>  (58) 
ChEMBL_Kinases

>  <Ligand_Instance>  (58) 
nan

>  <PDB_ID>  (58) 
nan

>  <Standardized_SMILES>  (58) 
Cc1sc2nc(-c3ccncc3)nc(NC[C@H](C)N)c2c1C

>  <Name>  (58) 
nan

>  <Pocket>  (58) 
nan

>  <ATP_Site>  (58) 
nan

>  <Peripheral>  (58) 
nan

>  <Num_H_Atoms_ProtBoundConf>  (58) 
nan

>  <Num_Resolved_Atoms>  (58) 
nan

>  <Num_Not_Resolved_Atoms>  (58) 
nan

$$$$
CHEMBL3732791
     RDKit          3D

  0  0  0  0  0  0  0  0  0  0999 V3000
M  V30 BEGIN CTAB
M  V30 COUNTS 52 56 0 0 0
M  V30 BEGIN ATOM
M  V30 1 C -1.185260 -0.473970 2.679680 0
M  V30 2 C 0.156387 -1.152555 2.583346 0 CFG=2
M  V30 3 C 1.205534 -0.506046 3.435628 0
M  V30 4 N 2.442190 -0.293157 2.750261 0
M  V30 5 C 2.912003 -1.413854 2.000274 0 CFG=1
M  V30 6 C 3.749222 -2.368314 2.816839 0
M  V30 7 C 1.852348 -2.116662 1.211463 0
M  V30 8 N 0.673399 -1.225010 1.230068 0
M  V30 9 C -0.035881 -0.459600 0.275364 0
M  V30 10 N 0.183460 0.839912 0.434401 0
M  V30 11 C -0.305374 1.827036 -0.331009 0
M  V30 12 C -0.072842 3.238619 -0.166051 0
M  V30 13 C 0.736010 3.601033 0.891038 0
M  V30 14 C 1.006381 4.925969 1.116742 0
M  V30 15 N 0.507486 5.898405 0.337907 0
M  V30 16 C -0.284025 5.569118 -0.699267 0
M  V30 17 C -0.569812 4.235186 -0.944851 0
M  V30 18 N -1.094344 1.501951 -1.363437 0
M  V30 19 C -1.310583 0.133627 -1.509585 0
M  V30 20 S -2.339271 -0.759082 -2.805262 0
M  V30 21 C -2.007912 -2.347758 -2.184180 0
M  V30 22 C -1.177850 -2.175399 -1.078375 0
M  V30 23 C -0.822477 -0.927440 -0.735876 0
M  V30 24 C -0.884051 -3.497479 -0.484818 0
M  V30 25 C -2.249408 -4.192974 -0.300690 0
M  V30 26 C -2.885776 -4.557110 -1.602324 0
M  V30 27 C -2.493197 -3.624019 -2.721736 0
M  V30 28 H -1.520041 -0.620428 3.730940 0
M  V30 29 H -1.897202 -1.081031 2.067739 0
M  V30 30 H -1.173403 0.580730 2.372268 0
M  V30 31 H 0.000861 -2.188289 2.954608 0
M  V30 32 H 1.368905 -1.061373 4.389611 0
M  V30 33 H 0.795600 0.496425 3.737983 0
M  V30 34 H 3.174493 -0.048782 3.442601 0
M  V30 35 H 3.620275 -0.986686 1.232169 0
M  V30 36 H 3.393112 -2.525287 3.843567 0
M  V30 37 H 3.841744 -3.321338 2.236289 0
M  V30 38 H 4.799855 -1.975128 2.896133 0
M  V30 39 H 1.606620 -3.072479 1.714600 0
M  V30 40 H 2.143362 -2.371616 0.185602 0
M  V30 41 H 1.193150 2.894671 1.585197 0
M  V30 42 H 1.639514 5.286218 1.935691 0
M  V30 43 H -0.731503 6.288446 -1.381616 0
M  V30 44 H -1.207666 3.934886 -1.776543 0
M  V30 45 H -0.230485 -4.104961 -1.132443 0
M  V30 46 H -0.501436 -3.438247 0.568650 0
M  V30 47 H -2.160855 -5.043724 0.391977 0
M  V30 48 H -2.890182 -3.420651 0.174690 0
M  V30 49 H -2.614635 -5.607711 -1.842289 0
M  V30 50 H -4.001222 -4.553581 -1.530417 0
M  V30 51 H -1.651804 -4.154393 -3.260899 0
M  V30 52 H -3.339072 -3.482642 -3.387968 0
M  V30 END ATOM
M  V30 BEGIN BOND
M  V30 1 1 1 2
M  V30 2 1 2 3
M  V30 3 1 3 4
M  V30 4 1 4 5
M  V30 5 1 5 6
M  V30 6 1 5 7
M  V30 7 1 7 8
M  V30 8 1 8 9
M  V30 9 2 9 10
M  V30 10 1 10 11
M  V30 11 1 11 12
M  V30 12 2 12 13
M  V30 13 1 13 14
M  V30 14 2 14 15
M  V30 15 1 15 16
M  V30 16 2 16 17
M  V30 17 2 11 18
M  V30 18 1 18 19
M  V30 19 1 19 20
M  V30 20 1 20 21
M  V30 21 2 21 22
M  V30 22 1 22 23
M  V30 23 1 22 24
M  V30 24 1 24 25
M  V30 25 1 25 26
M  V30 26 1 26 27
M  V30 27 1 8 2
M  V30 28 1 23 9
M  V30 29 1 17 12
M  V30 30 2 23 19
M  V30 31 1 27 21
M  V30 32 1 1 28
M  V30 33 1 1 29
M  V30 34 1 1 30
M  V30 35 1 2 31 CFG=1
M  V30 36 1 3 32
M  V30 37 1 3 33
M  V30 38 1 4 34
M  V30 39 1 5 35 CFG=3
M  V30 40 1 6 36
M  V30 41 1 6 37
M  V30 42 1 6 38
M  V30 43 1 7 39
M  V30 44 1 7 40
M  V30 45 1 13 41
M  V30 46 1 14 42
M  V30 47 1 16 43
M  V30 48 1 17 44
M  V30 49 1 24 45
M  V30 50 1 24 46
M  V30 51 1 25 47
M  V30 52 1 25 48
M  V30 53 1 26 49
M  V30 54 1 26 50
M  V30 55 1 27 51
M  V30 56 1 27 52
M  V30 END BOND
M  V30 END CTAB
M  END
>  <Dataset>  (59) 
ChEMBL_Kinases

>  <Ligand_Instance>  (59) 
nan

>  <PDB_ID>  (59) 
nan

>  <Standardized_SMILES>  (59) 
C[C@@H]1CN[C@@H](C)CN1c1nc(-c2ccncc2)nc2sc3c(c12)CCCC3

>  <Name>  (59) 
nan

>  <Pocket>  (59) 
nan

>  <ATP_Site>  (59) 
nan

>  <Peripheral>  (59) 
nan

>  <Num_H_Atoms_ProtBoundConf>  (59) 
nan

>  <Num_Resolved_Atoms>  (59) 
nan

>  <Num_Not_Resolved_Atoms>  (59) 
nan

$$$$
CHEMBL3732754
     RDKit          3D

  0  0  0  0  0  0  0  0  0  0999 V3000
M  V30 BEGIN CTAB
M  V30 COUNTS 49 53 0 0 0
M  V30 BEGIN ATOM
M  V30 1 C -2.063778 -4.328130 -1.260342 0
M  V30 2 C -1.027797 -3.599764 -0.430801 0 CFG=1
M  V30 3 C -1.588906 -2.381139 0.270630 0
M  V30 4 N -0.415249 -1.611956 0.725534 0
M  V30 5 C 0.268138 -0.376097 0.553100 0
M  V30 6 N 1.427150 -0.573200 -0.088644 0
M  V30 7 C 2.292704 0.364029 -0.440532 0
M  V30 8 C 3.557825 0.172932 -1.138240 0
M  V30 9 C 3.942555 -1.105640 -1.493663 0
M  V30 10 C 5.137898 -1.367648 -2.162427 0
M  V30 11 N 5.939226 -0.335404 -2.468972 0
M  V30 12 C 5.576848 0.914222 -2.128877 0
M  V30 13 C 4.400340 1.215034 -1.465612 0
M  V30 14 N 1.925429 1.610017 -0.098085 0
M  V30 15 C 0.792270 1.881639 0.539345 0
M  V30 16 S 0.044416 3.383038 1.118153 0
M  V30 17 C -1.463402 2.581687 1.832553 0
M  V30 18 C -1.244449 1.216934 1.554019 0
M  V30 19 C -0.101677 0.897034 0.901456 0
M  V30 20 C -2.429486 0.595484 2.143394 0
M  V30 21 C -2.683307 1.012872 3.563360 0
M  V30 22 C -2.802352 2.465232 3.818806 0
M  V30 23 C -2.593495 3.186068 2.503760 0
M  V30 24 C 0.293174 -2.434818 1.720344 0
M  V30 25 C -0.273602 -3.810176 1.840755 0
M  V30 26 N -0.440890 -4.471727 0.563556 0
M  V30 27 H -3.083112 -4.023434 -0.972629 0
M  V30 28 H -1.975620 -5.429168 -1.100927 0
M  V30 29 H -1.981547 -4.114220 -2.348328 0
M  V30 30 H -0.217047 -3.316376 -1.132786 0
M  V30 31 H -2.172375 -2.668432 1.150312 0
M  V30 32 H -2.203438 -1.763685 -0.416899 0
M  V30 33 H 3.275394 -1.919177 -1.233055 0
M  V30 34 H 5.365188 -2.414959 -2.406672 0
M  V30 35 H 6.211394 1.746058 -2.369922 0
M  V30 36 H 4.090778 2.207421 -1.183903 0
M  V30 37 H -2.419409 -0.512101 2.168274 0
M  V30 38 H -3.306294 0.852684 1.510470 0
M  V30 39 H -1.901118 0.591378 4.242902 0
M  V30 40 H -3.618365 0.507051 3.880874 0
M  V30 41 H -1.976985 2.822101 4.481443 0
M  V30 42 H -3.794086 2.722182 4.203741 0
M  V30 43 H -2.370160 4.259809 2.653273 0
M  V30 44 H -3.474193 3.139901 1.843761 0
M  V30 45 H 0.119729 -1.920250 2.690913 0
M  V30 46 H 1.381599 -2.438358 1.551287 0
M  V30 47 H -1.184313 -3.853742 2.484702 0
M  V30 48 H 0.488275 -4.416907 2.387017 0
M  V30 49 H -1.130979 -5.265754 0.689179 0
M  V30 END ATOM
M  V30 BEGIN BOND
M  V30 1 1 1 2
M  V30 2 1 2 3
M  V30 3 1 3 4
M  V30 4 1 4 5
M  V30 5 2 5 6
M  V30 6 1 6 7
M  V30 7 1 7 8
M  V30 8 2 8 9
M  V30 9 1 9 10
M  V30 10 2 10 11
M  V30 11 1 11 12
M  V30 12 2 12 13
M  V30 13 2 7 14
M  V30 14 1 14 15
M  V30 15 1 15 16
M  V30 16 1 16 17
M  V30 17 2 17 18
M  V30 18 1 18 19
M  V30 19 1 18 20
M  V30 20 1 20 21
M  V30 21 1 21 22
M  V30 22 1 22 23
M  V30 23 1 4 24
M  V30 24 1 24 25
M  V30 25 1 25 26
M  V30 26 1 26 2
M  V30 27 1 19 5
M  V30 28 1 13 8
M  V30 29 2 19 15
M  V30 30 1 23 17
M  V30 31 1 1 27
M  V30 32 1 1 28
M  V30 33 1 1 29
M  V30 34 1 2 30 CFG=3
M  V30 35 1 3 31
M  V30 36 1 3 32
M  V30 37 1 9 33
M  V30 38 1 10 34
M  V30 39 1 12 35
M  V30 40 1 13 36
M  V30 41 1 20 37
M  V30 42 1 20 38
M  V30 43 1 21 39
M  V30 44 1 21 40
M  V30 45 1 22 41
M  V30 46 1 22 42
M  V30 47 1 23 43
M  V30 48 1 23 44
M  V30 49 1 24 45
M  V30 50 1 24 46
M  V30 51 1 25 47
M  V30 52 1 25 48
M  V30 53 1 26 49
M  V30 END BOND
M  V30 END CTAB
M  END
>  <Dataset>  (60) 
ChEMBL_Kinases

>  <Ligand_Instance>  (60) 
nan

>  <PDB_ID>  (60) 
nan

>  <Standardized_SMILES>  (60) 
C[C@H]1CN(c2nc(-c3ccncc3)nc3sc4c(c23)CCCC4)CCN1

>  <Name>  (60) 
nan

>  <Pocket>  (60) 
nan

>  <ATP_Site>  (60) 
nan

>  <Peripheral>  (60) 
nan

>  <Num_H_Atoms_ProtBoundConf>  (60) 
nan

>  <Num_Resolved_Atoms>  (60) 
nan

>  <Num_Not_Resolved_Atoms>  (60) 
nan

$$$$
CHEMBL3732747
     RDKit          3D

  0  0  0  0  0  0  0  0  0  0999 V3000
M  V30 BEGIN CTAB
M  V30 COUNTS 51 54 0 0 0
M  V30 BEGIN ATOM
M  V30 1 C 1.968082 -3.927876 3.883572 0
M  V30 2 C 1.213163 -3.175190 2.765204 0 CFG=2
M  V30 3 N 1.428765 -3.964722 1.586304 0
M  V30 4 C 1.949150 -1.841306 2.570062 0
M  V30 5 N 1.400842 -0.991108 1.578793 0
M  V30 6 C 1.062214 0.017067 0.585053 0
M  V30 7 N 1.950140 0.933281 0.176745 0
M  V30 8 C 1.909584 1.861755 -0.741649 0
M  V30 9 C 3.048647 2.730560 -0.969279 0
M  V30 10 C 2.948109 3.695897 -1.955397 0
M  V30 11 C 4.092070 4.475225 -2.094001 0
M  V30 12 N 5.197179 4.312179 -1.343469 0
M  V30 13 C 5.266702 3.375603 -0.401771 0
M  V30 14 C 4.170897 2.544135 -0.186974 0
M  V30 15 N 0.741508 1.842823 -1.350258 0
M  V30 16 C -0.224574 0.962364 -1.015680 0
M  V30 17 S -1.795609 0.889546 -1.777574 0
M  V30 18 C -2.405443 -0.483526 -0.763604 0
M  V30 19 C -1.312666 -0.728087 0.053922 0
M  V30 20 C -0.162556 0.000482 -0.050786 0
M  V30 21 C -1.315747 -1.741469 1.129013 0
M  V30 22 C -2.656498 -2.121657 1.686050 0
M  V30 23 C -3.732432 -1.121256 1.641349 0
M  V30 24 C -4.874268 -1.660438 0.761716 0
M  V30 25 C -4.357112 -1.964180 -0.626073 0
M  V30 26 C -3.773208 -0.746800 -1.231301 0
M  V30 27 H 2.882544 -4.392665 3.457255 0
M  V30 28 H 2.135834 -3.292901 4.756145 0
M  V30 29 H 1.289535 -4.761256 4.150261 0
M  V30 30 H 0.211074 -3.067144 3.127951 0
M  V30 31 H 0.609123 -4.542241 1.297481 0
M  V30 32 H 2.320493 -4.508245 1.611386 0
M  V30 33 H 2.011236 -1.363635 3.594856 0
M  V30 34 H 3.008219 -2.181431 2.324060 0
M  V30 35 H 2.320638 -0.516531 1.835348 0
M  V30 36 H 2.058970 3.811161 -2.543882 0
M  V30 37 H 4.063409 5.255291 -2.862642 0
M  V30 38 H 6.195352 3.311046 0.158950 0
M  V30 39 H 4.242236 1.790937 0.578623 0
M  V30 40 H -0.817078 -1.279106 2.047190 0
M  V30 41 H -0.797819 -2.657260 0.782415 0
M  V30 42 H -2.560321 -2.467795 2.766590 0
M  V30 43 H -2.978618 -3.068564 1.175807 0
M  V30 44 H -4.237067 -1.039329 2.652035 0
M  V30 45 H -3.464886 -0.086823 1.402701 0
M  V30 46 H -5.226754 -2.600136 1.216083 0
M  V30 47 H -5.647938 -0.878996 0.678198 0
M  V30 48 H -5.281522 -2.204864 -1.234182 0
M  V30 49 H -3.669806 -2.803359 -0.678920 0
M  V30 50 H -3.717195 -0.896888 -2.351029 0
M  V30 51 H -4.438896 0.140724 -1.127993 0
M  V30 END ATOM
M  V30 BEGIN BOND
M  V30 1 1 1 2
M  V30 2 1 2 3
M  V30 3 1 2 4
M  V30 4 1 4 5
M  V30 5 1 5 6
M  V30 6 2 6 7
M  V30 7 1 7 8
M  V30 8 1 8 9
M  V30 9 2 9 10
M  V30 10 1 10 11
M  V30 11 2 11 12
M  V30 12 1 12 13
M  V30 13 2 13 14
M  V30 14 2 8 15
M  V30 15 1 15 16
M  V30 16 1 16 17
M  V30 17 1 17 18
M  V30 18 2 18 19
M  V30 19 1 19 20
M  V30 20 1 19 21
M  V30 21 1 21 22
M  V30 22 1 22 23
M  V30 23 1 23 24
M  V30 24 1 24 25
M  V30 25 1 25 26
M  V30 26 1 20 6
M  V30 27 1 14 9
M  V30 28 2 20 16
M  V30 29 1 26 18
M  V30 30 1 1 27
M  V30 31 1 1 28
M  V30 32 1 1 29
M  V30 33 1 2 30 CFG=1
M  V30 34 1 3 31
M  V30 35 1 3 32
M  V30 36 1 4 33
M  V30 37 1 4 34
M  V30 38 1 5 35
M  V30 39 1 10 36
M  V30 40 1 11 37
M  V30 41 1 13 38
M  V30 42 1 14 39
M  V30 43 1 21 40
M  V30 44 1 21 41
M  V30 45 1 22 42
M  V30 46 1 22 43
M  V30 47 1 23 44
M  V30 48 1 23 45
M  V30 49 1 24 46
M  V30 50 1 24 47
M  V30 51 1 25 48
M  V30 52 1 25 49
M  V30 53 1 26 50
M  V30 54 1 26 51
M  V30 END BOND
M  V30 END CTAB
M  END
>  <Dataset>  (61) 
ChEMBL_Kinases

>  <Ligand_Instance>  (61) 
nan

>  <PDB_ID>  (61) 
nan

>  <Standardized_SMILES>  (61) 
C[C@H](N)CNc1nc(-c2ccncc2)nc2sc3c(c12)CCCCCC3

>  <Name>  (61) 
nan

>  <Pocket>  (61) 
nan

>  <ATP_Site>  (61) 
nan

>  <Peripheral>  (61) 
nan

>  <Num_H_Atoms_ProtBoundConf>  (61) 
nan

>  <Num_Resolved_Atoms>  (61) 
nan

>  <Num_Not_Resolved_Atoms>  (61) 
nan

$$$$
CHEMBL520848
     RDKit          3D

  0  0  0  0  0  0  0  0  0  0999 V3000
M  V30 BEGIN CTAB
M  V30 COUNTS 52 56 0 0 0
M  V30 BEGIN ATOM
M  V30 1 C 1.994636 -0.975521 -1.358717 0
M  V30 2 C 0.836163 -1.501807 -0.600222 0
M  V30 3 C 0.382535 -1.019629 0.554752 0
M  V30 4 C 1.122949 0.105160 1.058181 0
M  V30 5 O 2.128758 0.607999 0.446518 0
M  V30 6 N 0.934208 0.860262 2.250324 0
M  V30 7 C 1.929505 1.897671 2.319749 0
M  V30 8 C 1.656041 3.135535 1.758894 0
M  V30 9 C 2.665222 4.092829 1.862975 0
M  V30 10 C 3.864214 3.816545 2.489532 0
M  V30 11 N 4.990029 4.523992 2.733864 0
M  V30 12 N 5.879314 3.791847 3.386135 0
M  V30 13 C 5.372460 2.544838 3.606453 0
M  V30 14 C 4.110508 2.568884 3.041905 0
M  V30 15 C 3.116829 1.587505 2.953219 0
M  V30 16 C -0.805222 -1.567750 1.292633 0
M  V30 17 C -1.956983 -0.584021 1.197362 0
M  V30 18 C -2.457921 -0.448316 -0.082997 0
M  V30 19 C -3.526742 0.390585 -0.417918 0
M  V30 20 C -4.114632 1.124592 0.587647 0
M  V30 21 F -5.154426 1.968393 0.382196 0
M  V30 22 C -3.618448 0.991677 1.863334 0
M  V30 23 C -2.567539 0.164210 2.181448 0
M  V30 24 N -1.355542 -2.731229 0.624480 0
M  V30 25 C -0.953903 -3.221788 -0.466658 0
M  V30 26 C -1.648307 -4.398566 -0.972854 0
M  V30 27 C -1.329167 -5.048414 -2.147355 0
M  V30 28 C -1.999709 -6.162572 -2.609776 0
M  V30 29 C -3.046419 -6.681406 -1.889473 0
M  V30 30 Cl -3.918140 -8.093097 -2.447244 0
M  V30 31 C -3.410861 -6.083112 -0.718188 0
M  V30 32 C -2.707957 -4.974009 -0.302972 0
M  V30 33 N 0.149661 -2.650834 -1.145330 0
M  V30 34 H 1.822174 0.055876 -1.770416 0
M  V30 35 H 2.968131 -1.099546 -0.855630 0
M  V30 36 H 2.118809 -1.579717 -2.306738 0
M  V30 37 H 0.165954 0.577604 2.864431 0
M  V30 38 H 0.730868 3.373211 1.266717 0
M  V30 39 H 2.549099 5.085161 1.458777 0
M  V30 40 H 5.093100 5.525129 2.423112 0
M  V30 41 H 5.866352 1.717036 4.118552 0
M  V30 42 H 3.274281 0.610215 3.370278 0
M  V30 43 H -0.593545 -1.832073 2.329206 0
M  V30 44 H -2.075591 -0.974640 -0.949623 0
M  V30 45 H -3.911852 0.490442 -1.422115 0
M  V30 46 H -4.030660 1.536886 2.701949 0
M  V30 47 H -2.123909 0.002512 3.154996 0
M  V30 48 H -0.512586 -4.679326 -2.751514 0
M  V30 49 H -1.740508 -6.660918 -3.528889 0
M  V30 50 H -4.231697 -6.479715 -0.141199 0
M  V30 51 H -3.041570 -4.537315 0.638082 0
M  V30 52 H 0.476375 -3.057816 -2.048183 0
M  V30 END ATOM
M  V30 BEGIN BOND
M  V30 1 1 1 2
M  V30 2 2 2 3
M  V30 3 1 3 4
M  V30 4 2 4 5
M  V30 5 1 4 6
M  V30 6 1 6 7
M  V30 7 2 7 8
M  V30 8 1 8 9
M  V30 9 2 9 10
M  V30 10 1 10 11
M  V30 11 1 11 12
M  V30 12 2 12 13
M  V30 13 1 13 14
M  V30 14 2 14 15
M  V30 15 1 3 16
M  V30 16 1 16 17
M  V30 17 2 17 18
M  V30 18 1 18 19
M  V30 19 2 19 20
M  V30 20 1 20 21
M  V30 21 1 20 22
M  V30 22 2 22 23
M  V30 23 1 16 24
M  V30 24 2 24 25
M  V30 25 1 25 26
M  V30 26 2 26 27
M  V30 27 1 27 28
M  V30 28 2 28 29
M  V30 29 1 29 30
M  V30 30 1 29 31
M  V30 31 2 31 32
M  V30 32 1 25 33
M  V30 33 1 33 2
M  V30 34 1 15 7
M  V30 35 1 23 17
M  V30 36 1 32 26
M  V30 37 1 14 10
M  V30 38 1 1 34
M  V30 39 1 1 35
M  V30 40 1 1 36
M  V30 41 1 6 37
M  V30 42 1 8 38
M  V30 43 1 9 39
M  V30 44 1 11 40
M  V30 45 1 13 41
M  V30 46 1 15 42
M  V30 47 1 16 43
M  V30 48 1 18 44
M  V30 49 1 19 45
M  V30 50 1 22 46
M  V30 51 1 23 47
M  V30 52 1 27 48
M  V30 53 1 28 49
M  V30 54 1 31 50
M  V30 55 1 32 51
M  V30 56 1 33 52
M  V30 END BOND
M  V30 END CTAB
M  END
>  <Dataset>  (62) 
ChEMBL_Kinases

>  <Ligand_Instance>  (62) 
nan

>  <PDB_ID>  (62) 
nan

>  <Standardized_SMILES>  (62) 
CC1=C(C(=O)Nc2ccc3[nH]ncc3c2)C(c2ccc(F)cc2)N=C(c2ccc(Cl)cc2)N1

>  <Name>  (62) 
nan

>  <Pocket>  (62) 
nan

>  <ATP_Site>  (62) 
nan

>  <Peripheral>  (62) 
nan

>  <Num_H_Atoms_ProtBoundConf>  (62) 
nan

>  <Num_Resolved_Atoms>  (62) 
nan

>  <Num_Not_Resolved_Atoms>  (62) 
nan

$$$$
CHEMBL3732726
     RDKit          3D

  0  0  0  0  0  0  0  0  0  0999 V3000
M  V30 BEGIN CTAB
M  V30 COUNTS 44 46 0 0 0
M  V30 BEGIN ATOM
M  V30 1 O -2.815174 -3.047769 1.458943 0
M  V30 2 C -2.148749 -1.968163 1.499494 0
M  V30 3 C -3.084960 -0.819286 1.475221 0
M  V30 4 N -2.442605 0.451885 1.497402 0
M  V30 5 C -1.615929 0.916073 0.454822 0
M  V30 6 C -1.325624 0.242661 -0.705515 0
M  V30 7 C -0.522094 0.691629 -1.721576 0
M  V30 8 C 0.055359 1.931795 -1.580788 0
M  V30 9 C -0.168228 2.694816 -0.455048 0
M  V30 10 O 0.352538 3.953635 -0.194423 0
M  V30 11 C 1.552585 4.166547 0.468839 0
M  V30 12 C 1.317078 4.912859 1.628562 0
M  V30 13 C 2.357100 5.268759 2.483990 0
M  V30 14 C 3.632821 4.849425 2.132401 0
M  V30 15 F 4.755226 5.113853 2.859747 0
M  V30 16 C 3.870291 4.117846 0.997308 0
M  V30 17 C 2.830901 3.777908 0.168139 0
M  V30 18 F 2.913158 3.070984 -0.967496 0
M  V30 19 C -1.000321 2.167285 0.537692 0
M  V30 20 N -0.731035 -2.069841 1.557147 0
M  V30 21 N -0.176140 -3.356387 1.561369 0
M  V30 22 C 0.212711 -3.983295 0.511491 0
M  V30 23 C 0.783802 -5.335097 0.622048 0
M  V30 24 C 0.879723 -5.886193 1.882539 0
M  V30 25 C 1.431616 -7.171476 1.909166 0
M  V30 26 N 1.835913 -7.818249 0.799089 0
M  V30 27 C 1.724093 -7.243003 -0.412790 0
M  V30 28 C 1.186332 -5.964642 -0.538368 0
M  V30 29 H -3.792334 -0.942923 2.321070 0
M  V30 30 H -3.740251 -0.892416 0.556716 0
M  V30 31 H -2.592446 1.067035 2.325668 0
M  V30 32 H -1.790350 -0.748618 -0.812290 0
M  V30 33 H -0.340161 0.092579 -2.616762 0
M  V30 34 H 0.700061 2.359662 -2.333239 0
M  V30 35 H 0.357489 5.291294 1.996169 0
M  V30 36 H 2.246329 5.834721 3.381263 0
M  V30 37 H 4.850128 3.764097 0.675384 0
M  V30 38 H -1.202474 2.743454 1.447506 0
M  V30 39 H -0.297765 -1.121166 1.593838 0
M  V30 40 H 0.107275 -3.489457 -0.445226 0
M  V30 41 H 0.557857 -5.375198 2.781275 0
M  V30 42 H 1.537883 -7.670054 2.876447 0
M  V30 43 H 2.052459 -7.776199 -1.284125 0
M  V30 44 H 1.083796 -5.472188 -1.515509 0
M  V30 END ATOM
M  V30 BEGIN BOND
M  V30 1 2 1 2
M  V30 2 1 2 3
M  V30 3 1 3 4
M  V30 4 1 4 5
M  V30 5 2 5 6
M  V30 6 1 6 7
M  V30 7 2 7 8
M  V30 8 1 8 9
M  V30 9 1 9 10
M  V30 10 1 10 11
M  V30 11 2 11 12
M  V30 12 1 12 13
M  V30 13 2 13 14
M  V30 14 1 14 15
M  V30 15 1 14 16
M  V30 16 2 16 17
M  V30 17 1 17 18
M  V30 18 2 9 19
M  V30 19 1 2 20
M  V30 20 1 20 21
M  V30 21 2 21 22
M  V30 22 1 22 23
M  V30 23 2 23 24
M  V30 24 1 24 25
M  V30 25 2 25 26
M  V30 26 1 26 27
M  V30 27 2 27 28
M  V30 28 1 19 5
M  V30 29 1 28 23
M  V30 30 1 17 11
M  V30 31 1 3 29
M  V30 32 1 3 30
M  V30 33 1 4 31
M  V30 34 1 6 32
M  V30 35 1 7 33
M  V30 36 1 8 34
M  V30 37 1 12 35
M  V30 38 1 13 36
M  V30 39 1 16 37
M  V30 40 1 19 38
M  V30 41 1 20 39
M  V30 42 1 22 40
M  V30 43 1 24 41
M  V30 44 1 25 42
M  V30 45 1 27 43
M  V30 46 1 28 44
M  V30 END BOND
M  V30 END CTAB
M  END
>  <Dataset>  (63) 
ChEMBL_Kinases

>  <Ligand_Instance>  (63) 
nan

>  <PDB_ID>  (63) 
nan

>  <Standardized_SMILES>  (63) 
O=C(CNc1cccc(Oc2ccc(F)cc2F)c1)N/N=C/c1ccncc1

>  <Name>  (63) 
nan

>  <Pocket>  (63) 
nan

>  <ATP_Site>  (63) 
nan

>  <Peripheral>  (63) 
nan

>  <Num_H_Atoms_ProtBoundConf>  (63) 
nan

>  <Num_Resolved_Atoms>  (63) 
nan

>  <Num_Not_Resolved_Atoms>  (63) 
nan

$$$$
CHEMBL520892
     RDKit          3D

  0  0  0  0  0  0  0  0  0  0999 V3000
M  V30 BEGIN CTAB
M  V30 COUNTS 63 64 0 0 0
M  V30 BEGIN ATOM
M  V30 1 C -1.736303 1.295150 6.260424 0
M  V30 2 C -0.840257 1.798996 5.167248 0
M  V30 3 C -0.417219 0.603363 4.307399 0
M  V30 4 C 0.326663 -0.385554 5.211520 0
M  V30 5 C 0.779038 -1.614390 4.402010 0
M  V30 6 C 1.665592 -1.128329 3.344856 0
M  V30 7 C 1.680677 -1.281885 2.033865 0
M  V30 8 C 2.585753 -0.782834 0.976173 0
M  V30 9 C 1.723040 -1.054222 -0.304060 0
M  V30 10 C 2.711514 -1.271399 -1.381748 0
M  V30 11 O 3.388341 -0.125562 -1.810985 0
M  V30 12 C 0.717196 0.018696 -0.438222 0
M  V30 13 O -0.332863 -0.149418 -1.334572 0
M  V30 14 C -0.208712 -0.229609 -2.686143 0
M  V30 15 O 0.789917 -0.170900 -3.426582 0
M  V30 16 C -1.194882 -0.410732 -3.727764 0
M  V30 17 C -1.512695 -1.688951 -4.119177 0
M  V30 18 C -0.836236 -2.838128 -3.461459 0
M  V30 19 C -2.451066 -1.975585 -5.116339 0
M  V30 20 C -3.081159 -0.905890 -5.728553 0
M  V30 21 C -4.082633 -1.188129 -6.791870 0
M  V30 22 C -2.767404 0.380721 -5.340969 0
M  V30 23 C -1.836931 0.664060 -4.352207 0
M  V30 24 C -1.517857 2.039748 -3.954939 0
M  V30 25 O 1.022135 -2.251765 0.088686 0
M  V30 26 C 0.642743 -2.084494 1.428409 0
M  V30 27 O -0.403761 -2.572275 1.907437 0
M  V30 28 C 1.522663 -2.474481 5.424272 0
M  V30 29 C 0.554910 -2.827342 6.531940 0
M  V30 30 H -2.382051 2.142222 6.586994 0
M  V30 31 H -2.386097 0.487025 5.860608 0
M  V30 32 H -1.105870 0.914716 7.095895 0
M  V30 33 H -1.289270 2.588396 4.539434 0
M  V30 34 H 0.091591 2.248331 5.615688 0
M  V30 35 H 0.260011 1.024271 3.548551 0
M  V30 36 H -1.312999 0.148286 3.861870 0
M  V30 37 H -0.274694 -0.649839 6.083130 0
M  V30 38 H 1.230018 0.150750 5.572452 0
M  V30 39 H -0.138055 -2.111752 4.105913 0
M  V30 40 H 2.471299 -0.512028 3.778830 0
M  V30 41 H 3.535252 -1.326569 0.900982 0
M  V30 42 H 2.692272 0.323448 0.998673 0
M  V30 43 H 3.581509 -1.909937 -0.970492 0
M  V30 44 H 2.347710 -1.909889 -2.205048 0
M  V30 45 H 2.870420 0.697204 -1.667057 0
M  V30 46 H 1.180589 1.042558 -0.528179 0
M  V30 47 H 0.206444 0.087026 0.572782 0
M  V30 48 H -0.880447 -3.725009 -4.126522 0
M  V30 49 H -1.309384 -3.094490 -2.497129 0
M  V30 50 H 0.241239 -2.608739 -3.351886 0
M  V30 51 H -2.653886 -3.004713 -5.375868 0
M  V30 52 H -4.673583 -0.274612 -7.028631 0
M  V30 53 H -4.780420 -1.969406 -6.483892 0
M  V30 54 H -3.593091 -1.455264 -7.764944 0
M  V30 55 H -3.270418 1.227198 -5.830178 0
M  V30 56 H -0.758134 2.472453 -4.633651 0
M  V30 57 H -1.203879 2.123599 -2.897266 0
M  V30 58 H -2.430102 2.683865 -4.104970 0
M  V30 59 H 2.354011 -1.909832 5.893641 0
M  V30 60 H 1.979527 -3.358286 4.950816 0
M  V30 61 H 0.636813 -3.929357 6.740030 0
M  V30 62 H 0.727500 -2.247201 7.447782 0
M  V30 63 H -0.509493 -2.685855 6.223286 0
M  V30 END ATOM
M  V30 BEGIN BOND
M  V30 1 1 1 2
M  V30 2 1 2 3
M  V30 3 1 3 4
M  V30 4 1 4 5
M  V30 5 1 5 6
M  V30 6 2 6 7
M  V30 7 1 7 8
M  V30 8 1 8 9
M  V30 9 1 9 10
M  V30 10 1 10 11
M  V30 11 1 9 12
M  V30 12 1 12 13
M  V30 13 1 13 14
M  V30 14 2 14 15
M  V30 15 1 14 16
M  V30 16 2 16 17
M  V30 17 1 17 18
M  V30 18 1 17 19
M  V30 19 2 19 20
M  V30 20 1 20 21
M  V30 21 1 20 22
M  V30 22 2 22 23
M  V30 23 1 23 24
M  V30 24 1 9 25
M  V30 25 1 25 26
M  V30 26 2 26 27
M  V30 27 1 5 28
M  V30 28 1 28 29
M  V30 29 1 26 7
M  V30 30 1 23 16
M  V30 31 1 1 30
M  V30 32 1 1 31
M  V30 33 1 1 32
M  V30 34 1 2 33
M  V30 35 1 2 34
M  V30 36 1 3 35
M  V30 37 1 3 36
M  V30 38 1 4 37
M  V30 39 1 4 38
M  V30 40 1 5 39
M  V30 41 1 6 40
M  V30 42 1 8 41
M  V30 43 1 8 42
M  V30 44 1 10 43
M  V30 45 1 10 44
M  V30 46 1 11 45
M  V30 47 1 12 46
M  V30 48 1 12 47
M  V30 49 1 18 48
M  V30 50 1 18 49
M  V30 51 1 18 50
M  V30 52 1 19 51
M  V30 53 1 21 52
M  V30 54 1 21 53
M  V30 55 1 21 54
M  V30 56 1 22 55
M  V30 57 1 24 56
M  V30 58 1 24 57
M  V30 59 1 24 58
M  V30 60 1 28 59
M  V30 61 1 28 60
M  V30 62 1 29 61
M  V30 63 1 29 62
M  V30 64 1 29 63
M  V30 END BOND
M  V30 END CTAB
M  END
>  <Dataset>  (64) 
ChEMBL_Kinases

>  <Ligand_Instance>  (64) 
nan

>  <PDB_ID>  (64) 
nan

>  <Standardized_SMILES>  (64) 
CCCCC(/C=C1/CC(CO)(COC(=O)c2c(C)cc(C)cc2C)OC1=O)CC

>  <Name>  (64) 
nan

>  <Pocket>  (64) 
nan

>  <ATP_Site>  (64) 
nan

>  <Peripheral>  (64) 
nan

>  <Num_H_Atoms_ProtBoundConf>  (64) 
nan

>  <Num_Resolved_Atoms>  (64) 
nan

>  <Num_Not_Resolved_Atoms>  (64) 
nan

$$$$
CHEMBL520904
     RDKit          3D

  0  0  0  0  0  0  0  0  0  0999 V3000
M  V30 BEGIN CTAB
M  V30 COUNTS 48 52 0 0 0
M  V30 BEGIN ATOM
M  V30 1 O 3.895508 2.097446 1.666697 0
M  V30 2 C 3.083833 1.344076 2.264035 0
M  V30 3 N 2.973061 1.047360 3.653026 0
M  V30 4 C 1.906817 0.141436 3.873119 0
M  V30 5 O 1.701192 -0.197652 5.023999 0
M  V30 6 C 1.300719 -0.167056 2.605967 0
M  V30 7 C 2.002689 0.547604 1.663794 0
M  V30 8 C 1.664312 0.471135 0.310658 0
M  V30 9 C 2.400634 1.223823 -0.698176 0
M  V30 10 C 3.521293 0.708221 -1.353041 0
M  V30 11 C 4.184252 1.462121 -2.301747 0
M  V30 12 C 3.767792 2.740568 -2.634489 0
M  V30 13 C 2.651524 3.296106 -2.004431 0
M  V30 14 C 2.037871 2.501290 -1.074873 0
M  V30 15 Cl 0.617925 3.169356 -0.252937 0
M  V30 16 C 0.613599 -0.330994 -0.083370 0
M  V30 17 C -0.081652 -1.042194 0.872574 0
M  V30 18 C 0.272625 -0.948691 2.198652 0
M  V30 19 C -0.565236 -1.742314 2.922820 0
M  V30 20 C -0.799789 -2.125219 4.209395 0
M  V30 21 C -1.780718 -2.991773 4.635212 0
M  V30 22 O -1.967113 -3.341821 5.966197 0
M  V30 23 C -2.628612 -3.542500 3.666103 0
M  V30 24 C -2.430192 -3.184463 2.347665 0
M  V30 25 C -1.422625 -2.308611 2.006260 0
M  V30 26 N -1.124125 -1.877175 0.745598 0
M  V30 27 C -1.766975 -2.219282 -0.497840 0
M  V30 28 C -2.893080 -1.249060 -0.782295 0
M  V30 29 O -3.859011 -1.256836 0.204690 0
M  V30 30 C -3.433466 -1.560353 -2.149882 0
M  V30 31 O -2.342891 -1.516300 -3.043672 0
M  V30 32 H 3.655459 1.508691 4.310980 0
M  V30 33 H 3.841929 -0.299197 -1.084601 0
M  V30 34 H 5.061032 1.057669 -2.813539 0
M  V30 35 H 4.300825 3.316612 -3.381310 0
M  V30 36 H 2.288856 4.286787 -2.229188 0
M  V30 37 H 0.360520 -0.383590 -1.126406 0
M  V30 38 H -0.199983 -1.751513 5.002050 0
M  V30 39 H -2.577844 -2.825630 6.603964 0
M  V30 40 H -3.423479 -4.228928 3.904902 0
M  V30 41 H -3.086047 -3.612175 1.609609 0
M  V30 42 H -1.049493 -2.124414 -1.339479 0
M  V30 43 H -2.153796 -3.254314 -0.500317 0
M  V30 44 H -2.496293 -0.215449 -0.825363 0
M  V30 45 H -4.709498 -1.499043 -0.229818 0
M  V30 46 H -3.803920 -2.610123 -2.157458 0
M  V30 47 H -4.223028 -0.829935 -2.451874 0
M  V30 48 H -2.541374 -0.850909 -3.757137 0
M  V30 END ATOM
M  V30 BEGIN BOND
M  V30 1 2 1 2
M  V30 2 1 2 3
M  V30 3 1 3 4
M  V30 4 2 4 5
M  V30 5 1 4 6
M  V30 6 2 6 7
M  V30 7 1 7 8
M  V30 8 1 8 9
M  V30 9 2 9 10
M  V30 10 1 10 11
M  V30 11 2 11 12
M  V30 12 1 12 13
M  V30 13 2 13 14
M  V30 14 1 14 15
M  V30 15 2 8 16
M  V30 16 1 16 17
M  V30 17 2 17 18
M  V30 18 1 18 19
M  V30 19 2 19 20
M  V30 20 1 20 21
M  V30 21 1 21 22
M  V30 22 2 21 23
M  V30 23 1 23 24
M  V30 24 2 24 25
M  V30 25 1 25 26
M  V30 26 1 26 27
M  V30 27 1 27 28
M  V30 28 1 28 29
M  V30 29 1 28 30
M  V30 30 1 30 31
M  V30 31 1 7 2
M  V30 32 1 14 9
M  V30 33 1 26 17
M  V30 34 1 18 6
M  V30 35 1 25 19
M  V30 36 1 3 32
M  V30 37 1 10 33
M  V30 38 1 11 34
M  V30 39 1 12 35
M  V30 40 1 13 36
M  V30 41 1 16 37
M  V30 42 1 20 38
M  V30 43 1 22 39
M  V30 44 1 23 40
M  V30 45 1 24 41
M  V30 46 1 27 42
M  V30 47 1 27 43
M  V30 48 1 28 44
M  V30 49 1 29 45
M  V30 50 1 30 46
M  V30 51 1 30 47
M  V30 52 1 31 48
M  V30 END BOND
M  V30 END CTAB
M  END
>  <Dataset>  (65) 
ChEMBL_Kinases

>  <Ligand_Instance>  (65) 
nan

>  <PDB_ID>  (65) 
nan

>  <Standardized_SMILES>  (65) 
O=C1NC(=O)c2c1c(-c1ccccc1Cl)cc1c2c2cc(O)ccc2n1CC(O)CO

>  <Name>  (65) 
nan

>  <Pocket>  (65) 
nan

>  <ATP_Site>  (65) 
nan

>  <Peripheral>  (65) 
nan

>  <Num_H_Atoms_ProtBoundConf>  (65) 
nan

>  <Num_Resolved_Atoms>  (65) 
nan

>  <Num_Not_Resolved_Atoms>  (65) 
nan

$$$$
CHEMBL3732723
     RDKit          3D

  0  0  0  0  0  0  0  0  0  0999 V3000
M  V30 BEGIN CTAB
M  V30 COUNTS 55 59 0 0 0
M  V30 BEGIN ATOM
M  V30 1 O -3.116004 -2.131804 1.074883 0
M  V30 2 C -2.796197 -3.365143 1.173545 0
M  V30 3 N -1.531351 -3.504155 1.825629 0
M  V30 4 C -1.039219 -2.205336 2.154097 0
M  V30 5 C -0.260921 -1.627097 1.167874 0
M  V30 6 C 0.258230 -0.375816 1.393107 0
M  V30 7 C 1.099417 0.295068 0.374051 0
M  V30 8 N 1.568236 1.535825 0.690580 0
M  V30 9 C 2.332334 2.098379 -0.282904 0
M  V30 10 N 2.896480 3.375219 -0.122570 0
M  V30 11 C 2.602659 4.018519 1.128982 0 CFG=2
M  V30 12 C 3.227384 5.372224 1.245260 0
M  V30 13 C 3.436744 5.484745 2.745774 0
M  V30 14 N 3.944171 4.189358 3.089607 0
M  V30 15 C 3.327427 3.227945 2.202899 0
M  V30 16 C 2.596089 1.439271 -1.489597 0
M  V30 17 S 3.510881 1.903777 -2.868299 0
M  V30 18 C 3.161018 0.280328 -3.816226 0
M  V30 19 C 2.374193 -0.417160 -2.934407 0
M  V30 20 C 2.095366 0.195649 -1.744445 0
M  V30 21 N 1.337497 -0.358014 -0.774495 0
M  V30 22 C 0.027804 0.314358 2.563883 0
M  V30 23 C -0.766578 -0.318361 3.527098 0
M  V30 24 N -1.282987 -1.547770 3.318624 0
M  V30 25 N -3.572679 -4.484944 0.706638 0
M  V30 26 C -3.320031 -5.909108 0.759714 0
M  V30 27 C -3.303794 -6.516709 -0.615783 0
M  V30 28 C -4.111198 -5.706703 -1.606800 0
M  V30 29 C -5.319776 -5.164053 -0.866311 0
M  V30 30 C -4.819396 -4.091254 0.078070 0
M  V30 31 H -1.148473 -4.484727 1.971168 0
M  V30 32 H -0.016669 -2.073437 0.217873 0
M  V30 33 H 3.475496 3.840890 -0.820105 0
M  V30 34 H 1.509401 4.073854 1.322496 0
M  V30 35 H 4.214558 5.402692 0.777984 0
M  V30 36 H 2.586408 6.193437 0.860008 0
M  V30 37 H 2.500014 5.734508 3.270812 0
M  V30 38 H 4.208155 6.255231 2.936908 0
M  V30 39 H 4.982012 4.175975 2.934856 0
M  V30 40 H 2.611941 2.543872 2.729315 0
M  V30 41 H 4.111883 2.557460 1.771562 0
M  V30 42 H 3.542718 0.066787 -4.807143 0
M  V30 43 H 2.063493 -1.386442 -3.294171 0
M  V30 44 H 0.414506 1.311854 2.798416 0
M  V30 45 H -0.967450 0.196655 4.459308 0
M  V30 46 H -2.313458 -6.057669 1.227223 0
M  V30 47 H -4.113905 -6.366230 1.378263 0
M  V30 48 H -3.816527 -7.504443 -0.547038 0
M  V30 49 H -2.284681 -6.631956 -1.037976 0
M  V30 50 H -3.560068 -4.835061 -2.015722 0
M  V30 51 H -4.445316 -6.314580 -2.464988 0
M  V30 52 H -5.997567 -4.690426 -1.598358 0
M  V30 53 H -5.877698 -5.972248 -0.350643 0
M  V30 54 H -4.696538 -3.156717 -0.541407 0
M  V30 55 H -5.592951 -3.827453 0.830131 0
M  V30 END ATOM
M  V30 BEGIN BOND
M  V30 1 2 1 2
M  V30 2 1 2 3
M  V30 3 1 3 4
M  V30 4 2 4 5
M  V30 5 1 5 6
M  V30 6 1 6 7
M  V30 7 2 7 8
M  V30 8 1 8 9
M  V30 9 1 9 10
M  V30 10 1 10 11
M  V30 11 1 11 12
M  V30 12 1 12 13
M  V30 13 1 13 14
M  V30 14 1 14 15
M  V30 15 2 9 16
M  V30 16 1 16 17
M  V30 17 1 17 18
M  V30 18 2 18 19
M  V30 19 1 19 20
M  V30 20 2 20 21
M  V30 21 2 6 22
M  V30 22 1 22 23
M  V30 23 2 23 24
M  V30 24 1 2 25
M  V30 25 1 25 26
M  V30 26 1 26 27
M  V30 27 1 27 28
M  V30 28 1 28 29
M  V30 29 1 29 30
M  V30 30 1 24 4
M  V30 31 1 30 25
M  V30 32 1 21 7
M  V30 33 1 15 11
M  V30 34 1 20 16
M  V30 35 1 3 31
M  V30 36 1 5 32
M  V30 37 1 10 33
M  V30 38 1 11 34 CFG=1
M  V30 39 1 12 35
M  V30 40 1 12 36
M  V30 41 1 13 37
M  V30 42 1 13 38
M  V30 43 1 14 39
M  V30 44 1 15 40
M  V30 45 1 15 41
M  V30 46 1 18 42
M  V30 47 1 19 43
M  V30 48 1 22 44
M  V30 49 1 23 45
M  V30 50 1 26 46
M  V30 51 1 26 47
M  V30 52 1 27 48
M  V30 53 1 27 49
M  V30 54 1 28 50
M  V30 55 1 28 51
M  V30 56 1 29 52
M  V30 57 1 29 53
M  V30 58 1 30 54
M  V30 59 1 30 55
M  V30 END BOND
M  V30 END CTAB
M  END
>  <Dataset>  (66) 
ChEMBL_Kinases

>  <Ligand_Instance>  (66) 
nan

>  <PDB_ID>  (66) 
nan

>  <Standardized_SMILES>  (66) 
O=C(Nc1cc(-c2nc(N[C@@H]3CCNC3)c3sccc3n2)ccn1)N1CCCCC1

>  <Name>  (66) 
nan

>  <Pocket>  (66) 
nan

>  <ATP_Site>  (66) 
nan

>  <Peripheral>  (66) 
nan

>  <Num_H_Atoms_ProtBoundConf>  (66) 
nan

>  <Num_Resolved_Atoms>  (66) 
nan

>  <Num_Not_Resolved_Atoms>  (66) 
nan

$$$$
CHEMBL57481
     RDKit          3D

  0  0  0  0  0  0  0  0  0  0999 V3000
M  V30 BEGIN CTAB
M  V30 COUNTS 18 19 0 0 0
M  V30 BEGIN ATOM
M  V30 1 O -1.484872 -0.066549 1.638608 0
M  V30 2 C -0.110458 0.133051 1.730973 0
M  V30 3 C 0.357736 0.422951 2.997089 0
M  V30 4 C 1.738422 0.626040 3.104254 0
M  V30 5 C 2.531919 0.528746 1.975125 0
M  V30 6 C 1.987759 0.234955 0.743639 0
M  V30 7 C 2.768987 0.131091 -0.412877 0
M  V30 8 N 2.204996 -0.157292 -1.599505 0
M  V30 9 C 0.880296 -0.355399 -1.720415 0
M  V30 10 C 0.027203 -0.270534 -0.616381 0
M  V30 11 C 0.625922 0.024724 0.582768 0
M  V30 12 H -1.971058 -0.736761 2.196581 0
M  V30 13 H -0.303875 0.488263 3.850592 0
M  V30 14 H 2.138138 0.855652 4.085742 0
M  V30 15 H 3.612352 0.688086 2.061251 0
M  V30 16 H 3.819323 0.284906 -0.335043 0
M  V30 17 H 0.410576 -0.589728 -2.676157 0
M  V30 18 H -1.045388 -0.418810 -0.646790 0
M  V30 END ATOM
M  V30 BEGIN BOND
M  V30 1 1 1 2
M  V30 2 2 2 3
M  V30 3 1 3 4
M  V30 4 2 4 5
M  V30 5 1 5 6
M  V30 6 2 6 7
M  V30 7 1 7 8
M  V30 8 2 8 9
M  V30 9 1 9 10
M  V30 10 2 10 11
M  V30 11 1 11 2
M  V30 12 1 11 6
M  V30 13 1 1 12
M  V30 14 1 3 13
M  V30 15 1 4 14
M  V30 16 1 5 15
M  V30 17 1 7 16
M  V30 18 1 9 17
M  V30 19 1 10 18
M  V30 END BOND
M  V30 END CTAB
M  END
>  <Dataset>  (67) 
ChEMBL_Kinases

>  <Ligand_Instance>  (67) 
nan

>  <PDB_ID>  (67) 
nan

>  <Standardized_SMILES>  (67) 
Oc1cccc2cnccc12

>  <Name>  (67) 
nan

>  <Pocket>  (67) 
nan

>  <ATP_Site>  (67) 
nan

>  <Peripheral>  (67) 
nan

>  <Num_H_Atoms_ProtBoundConf>  (67) 
nan

>  <Num_Resolved_Atoms>  (67) 
nan

>  <Num_Not_Resolved_Atoms>  (67) 
nan

$$$$
CHEMBL3732834
     RDKit          3D

  0  0  0  0  0  0  0  0  0  0999 V3000
M  V30 BEGIN CTAB
M  V30 COUNTS 48 52 0 0 0
M  V30 BEGIN ATOM
M  V30 1 C 1.366023 -4.442035 3.271255 0
M  V30 2 C 2.171400 -5.059608 2.339696 0
M  V30 3 C 1.840241 -4.958400 1.011893 0
M  V30 4 C 0.734599 -4.268565 0.517613 0
M  V30 5 N 0.426391 -4.172970 -0.867160 0
M  V30 6 C -0.742520 -3.405591 -1.203018 0
M  V30 7 C -0.743616 -2.062007 -0.921338 0
M  V30 8 C -1.750825 -1.162054 -1.171166 0
M  V30 9 C -1.556509 0.229635 -0.780039 0
M  V30 10 N -0.395525 0.603475 -0.164932 0
M  V30 11 C -0.286017 1.896526 0.176866 0
M  V30 12 N 0.852937 2.400628 0.812942 0
M  V30 13 C 1.923074 1.494662 1.093867 0 CFG=2
M  V30 14 C 1.601474 0.361959 2.003021 0
M  V30 15 C 1.808480 0.931423 3.378986 0
M  V30 16 N 2.625739 2.100870 3.260993 0
M  V30 17 C 2.977200 2.264825 1.889591 0
M  V30 18 C -1.338732 2.751917 -0.110930 0
M  V30 19 S -1.506851 4.528074 0.211669 0
M  V30 20 C -3.246185 4.598390 -0.568756 0
M  V30 21 C -3.467127 3.318371 -0.956619 0
M  V30 22 C -2.507619 2.380815 -0.728446 0
M  V30 23 N -2.562712 1.067114 -1.050641 0
M  V30 24 C -2.891968 -1.682700 -1.778823 0
M  V30 25 C -2.903655 -3.049825 -2.071271 0
M  V30 26 N -1.876098 -3.866040 -1.793890 0
M  V30 27 C -0.007611 -3.688096 1.516759 0
M  V30 28 C 0.248427 -3.737336 2.867993 0
M  V30 29 H 1.594400 -4.494702 4.330473 0
M  V30 30 H 3.016641 -5.587496 2.716653 0
M  V30 31 H 2.504071 -5.463731 0.311126 0
M  V30 32 H 1.072750 -4.667608 -1.514245 0
M  V30 33 H 0.154153 -1.680685 -0.450888 0
M  V30 34 H 0.908579 3.421097 1.073033 0
M  V30 35 H 2.354042 1.159099 0.120753 0
M  V30 36 H 2.432061 -0.392702 1.865910 0
M  V30 37 H 0.615102 -0.109690 1.854441 0
M  V30 38 H 0.837309 1.152859 3.832011 0
M  V30 39 H 2.356099 0.207480 4.038874 0
M  V30 40 H 2.119491 2.941483 3.640483 0
M  V30 41 H 2.962161 3.337771 1.536183 0
M  V30 42 H 3.951646 1.792569 1.624598 0
M  V30 43 H -3.766198 5.506074 -0.600864 0
M  V30 44 H -4.425200 3.160040 -1.432035 0
M  V30 45 H -3.689834 -0.985647 -1.980616 0
M  V30 46 H -3.791010 -3.445236 -2.542872 0
M  V30 47 H -0.898887 -3.122601 1.270873 0
M  V30 48 H -0.355767 -3.269044 3.614720 0
M  V30 END ATOM
M  V30 BEGIN BOND
M  V30 1 2 1 2
M  V30 2 1 2 3
M  V30 3 2 3 4
M  V30 4 1 4 5
M  V30 5 1 5 6
M  V30 6 2 6 7
M  V30 7 1 7 8
M  V30 8 1 8 9
M  V30 9 2 9 10
M  V30 10 1 10 11
M  V30 11 1 11 12
M  V30 12 1 12 13
M  V30 13 1 13 14
M  V30 14 1 14 15
M  V30 15 1 15 16
M  V30 16 1 16 17
M  V30 17 2 11 18
M  V30 18 1 18 19
M  V30 19 1 19 20
M  V30 20 2 20 21
M  V30 21 1 21 22
M  V30 22 2 22 23
M  V30 23 2 8 24
M  V30 24 1 24 25
M  V30 25 2 25 26
M  V30 26 1 4 27
M  V30 27 2 27 28
M  V30 28 1 28 1
M  V30 29 1 26 6
M  V30 30 1 23 9
M  V30 31 1 17 13
M  V30 32 1 22 18
M  V30 33 1 1 29
M  V30 34 1 2 30
M  V30 35 1 3 31
M  V30 36 1 5 32
M  V30 37 1 7 33
M  V30 38 1 12 34
M  V30 39 1 13 35 CFG=3
M  V30 40 1 14 36
M  V30 41 1 14 37
M  V30 42 1 15 38
M  V30 43 1 15 39
M  V30 44 1 16 40
M  V30 45 1 17 41
M  V30 46 1 17 42
M  V30 47 1 20 43
M  V30 48 1 21 44
M  V30 49 1 24 45
M  V30 50 1 25 46
M  V30 51 1 27 47
M  V30 52 1 28 48
M  V30 END BOND
M  V30 END CTAB
M  END
>  <Dataset>  (68) 
ChEMBL_Kinases

>  <Ligand_Instance>  (68) 
nan

>  <PDB_ID>  (68) 
nan

>  <Standardized_SMILES>  (68) 
c1ccc(Nc2cc(-c3nc(N[C@@H]4CCNC4)c4sccc4n3)ccn2)cc1

>  <Name>  (68) 
nan

>  <Pocket>  (68) 
nan

>  <ATP_Site>  (68) 
nan

>  <Peripheral>  (68) 
nan

>  <Num_H_Atoms_ProtBoundConf>  (68) 
nan

>  <Num_Resolved_Atoms>  (68) 
nan

>  <Num_Not_Resolved_Atoms>  (68) 
nan

$$$$
CHEMBL3733037
     RDKit          3D

  0  0  0  0  0  0  0  0  0  0999 V3000
M  V30 BEGIN CTAB
M  V30 COUNTS 44 47 0 0 0
M  V30 BEGIN ATOM
M  V30 1 C -4.090131 -2.371382 0.220635 0
M  V30 2 C -2.730399 -2.371353 0.908589 0 CFG=2
M  V30 3 N -2.984803 -2.022410 2.289605 0
M  V30 4 C -1.894617 -1.274480 0.254227 0
M  V30 5 O -0.666793 -1.101729 0.894904 0
M  V30 6 C 0.318303 -0.206474 0.567297 0
M  V30 7 N 0.120874 0.610001 -0.474187 0
M  V30 8 C 0.961080 1.524333 -0.921019 0
M  V30 9 C 0.725098 2.405065 -2.059958 0
M  V30 10 C -0.465878 2.297695 -2.748014 0
M  V30 11 C -0.622380 3.173579 -3.827677 0
M  V30 12 N 0.275914 4.101117 -4.249696 0
M  V30 13 C 1.427235 4.170303 -3.545976 0
M  V30 14 C 1.682386 3.346192 -2.457011 0
M  V30 15 N 2.124391 1.635604 -0.256004 0
M  V30 16 C 2.397468 0.850481 0.801908 0
M  V30 17 S 3.815299 0.754528 1.869954 0
M  V30 18 C 3.088781 -0.643952 2.932067 0
M  V30 19 C 1.884243 -0.840507 2.333798 0
M  V30 20 C 1.510337 -0.089453 1.245350 0
M  V30 21 C 1.261121 -1.931598 3.123528 0
M  V30 22 C 2.205528 -3.106762 3.072509 0
M  V30 23 C 3.482166 -2.865439 3.804024 0
M  V30 24 C 3.562334 -1.378240 4.070771 0
M  V30 25 H -4.686296 -1.533008 0.647547 0
M  V30 26 H -3.927268 -2.226891 -0.846682 0
M  V30 27 H -4.641316 -3.313496 0.389860 0
M  V30 28 H -2.264147 -3.368908 0.780313 0
M  V30 29 H -2.718136 -1.069613 2.552851 0
M  V30 30 H -2.611856 -2.770816 2.896188 0
M  V30 31 H -1.819374 -1.513430 -0.825238 0
M  V30 32 H -2.488003 -0.340079 0.329295 0
M  V30 33 H -1.245113 1.610410 -2.512525 0
M  V30 34 H -1.547149 3.127235 -4.403692 0
M  V30 35 H 2.232906 4.861844 -3.768303 0
M  V30 36 H 2.610569 3.399395 -1.886629 0
M  V30 37 H 0.299922 -2.258080 2.681559 0
M  V30 38 H 1.102085 -1.654324 4.178404 0
M  V30 39 H 2.401794 -3.426432 2.052020 0
M  V30 40 H 1.669858 -3.953589 3.593068 0
M  V30 41 H 4.326230 -3.224995 3.183505 0
M  V30 42 H 3.558992 -3.431132 4.755752 0
M  V30 43 H 3.097725 -1.092736 5.036309 0
M  V30 44 H 4.658910 -1.157294 4.194359 0
M  V30 END ATOM
M  V30 BEGIN BOND
M  V30 1 1 1 2
M  V30 2 1 2 3
M  V30 3 1 2 4
M  V30 4 1 4 5
M  V30 5 1 5 6
M  V30 6 2 6 7
M  V30 7 1 7 8
M  V30 8 1 8 9
M  V30 9 2 9 10
M  V30 10 1 10 11
M  V30 11 2 11 12
M  V30 12 1 12 13
M  V30 13 2 13 14
M  V30 14 2 8 15
M  V30 15 1 15 16
M  V30 16 1 16 17
M  V30 17 1 17 18
M  V30 18 2 18 19
M  V30 19 1 19 20
M  V30 20 1 19 21
M  V30 21 1 21 22
M  V30 22 1 22 23
M  V30 23 1 23 24
M  V30 24 1 20 6
M  V30 25 1 14 9
M  V30 26 2 20 16
M  V30 27 1 24 18
M  V30 28 1 1 25
M  V30 29 1 1 26
M  V30 30 1 1 27
M  V30 31 1 2 28 CFG=1
M  V30 32 1 3 29
M  V30 33 1 3 30
M  V30 34 1 4 31
M  V30 35 1 4 32
M  V30 36 1 10 33
M  V30 37 1 11 34
M  V30 38 1 13 35
M  V30 39 1 14 36
M  V30 40 1 21 37
M  V30 41 1 21 38
M  V30 42 1 22 39
M  V30 43 1 22 40
M  V30 44 1 23 41
M  V30 45 1 23 42
M  V30 46 1 24 43
M  V30 47 1 24 44
M  V30 END BOND
M  V30 END CTAB
M  END
>  <Dataset>  (69) 
ChEMBL_Kinases

>  <Ligand_Instance>  (69) 
nan

>  <PDB_ID>  (69) 
nan

>  <Standardized_SMILES>  (69) 
C[C@H](N)COc1nc(-c2ccncc2)nc2sc3c(c12)CCCC3

>  <Name>  (69) 
nan

>  <Pocket>  (69) 
nan

>  <ATP_Site>  (69) 
nan

>  <Peripheral>  (69) 
nan

>  <Num_H_Atoms_ProtBoundConf>  (69) 
nan

>  <Num_Resolved_Atoms>  (69) 
nan

>  <Num_Not_Resolved_Atoms>  (69) 
nan

$$$$
CHEMBL513878
     RDKit          3D

  0  0  0  0  0  0  0  0  0  0999 V3000
M  V30 BEGIN CTAB
M  V30 COUNTS 43 46 0 0 0
M  V30 BEGIN ATOM
M  V30 1 C -0.679192 -5.032361 2.064193 0
M  V30 2 O -0.434919 -4.484482 3.349946 0
M  V30 3 C 0.329450 -3.348373 3.550425 0
M  V30 4 C 0.868005 -2.740318 2.409995 0
M  V30 5 C 1.631036 -1.611611 2.570060 0
M  V30 6 C 1.909335 -1.025460 3.785187 0
M  V30 7 C 2.730715 0.197474 3.981906 0
M  V30 8 S 1.768569 1.720084 3.948793 0
M  V30 9 C 1.082272 2.001435 2.324020 0
M  V30 10 N 0.331495 3.116664 2.162008 0
M  V30 11 N -0.075155 3.135225 0.903978 0
M  V30 12 C 0.418954 2.032507 0.273334 0
M  V30 13 C 0.252553 1.599270 -1.121547 0
M  V30 14 C 0.819650 0.482677 -1.552296 0
M  V30 15 C 0.652198 0.055638 -2.938372 0
M  V30 16 C -0.051687 0.733676 -3.819724 0
M  V30 17 N -0.405413 0.610440 -5.190145 0
M  V30 18 C -1.213763 1.746324 -5.486926 0
M  V30 19 C -1.350779 2.502650 -4.409409 0
M  V30 20 N -0.639538 1.917300 -3.320090 0
M  V30 21 C -0.574920 2.481655 -1.986517 0
M  V30 22 O 1.112096 1.379343 1.175184 0
M  V30 23 C 1.360610 -1.653349 4.891134 0
M  V30 24 C 0.589224 -2.786635 4.782809 0
M  V30 25 C -0.037637 -3.523876 5.910001 0
M  V30 26 F 0.438075 -4.825238 5.937432 0
M  V30 27 F -1.405766 -3.582081 5.748943 0
M  V30 28 F 0.319323 -2.854092 7.083791 0
M  V30 29 H -1.090230 -4.271002 1.350409 0
M  V30 30 H -1.313524 -5.919140 2.165955 0
M  V30 31 H 0.274691 -5.383970 1.606657 0
M  V30 32 H 0.698079 -3.136529 1.414571 0
M  V30 33 H 2.045634 -1.147801 1.685675 0
M  V30 34 H 3.481802 0.281602 3.158082 0
M  V30 35 H 3.314865 0.096442 4.901428 0
M  V30 36 H 1.406792 -0.087548 -0.827253 0
M  V30 37 H 1.133603 -0.866702 -3.254296 0
M  V30 38 H -0.044990 -0.221085 -5.707531 0
M  V30 39 H -1.588125 1.826874 -6.515323 0
M  V30 40 H -1.951064 3.405597 -4.511584 0
M  V30 41 H -0.062862 3.472397 -1.986663 0
M  V30 42 H -1.574326 2.626423 -1.521905 0
M  V30 43 H 1.499830 -1.299422 5.902460 0
M  V30 END ATOM
M  V30 BEGIN BOND
M  V30 1 1 1 2
M  V30 2 1 2 3
M  V30 3 2 3 4
M  V30 4 1 4 5
M  V30 5 2 5 6
M  V30 6 1 6 7
M  V30 7 1 7 8
M  V30 8 1 8 9
M  V30 9 2 9 10
M  V30 10 1 10 11
M  V30 11 2 11 12
M  V30 12 1 12 13
M  V30 13 2 13 14
M  V30 14 1 14 15
M  V30 15 2 15 16
M  V30 16 1 16 17
M  V30 17 1 17 18
M  V30 18 2 18 19
M  V30 19 1 19 20
M  V30 20 1 20 21
M  V30 21 1 12 22
M  V30 22 1 6 23
M  V30 23 2 23 24
M  V30 24 1 24 25
M  V30 25 1 25 26
M  V30 26 1 25 27
M  V30 27 1 25 28
M  V30 28 1 24 3
M  V30 29 1 22 9
M  V30 30 1 21 13
M  V30 31 1 20 16
M  V30 32 1 1 29
M  V30 33 1 1 30
M  V30 34 1 1 31
M  V30 35 1 4 32
M  V30 36 1 5 33
M  V30 37 1 7 34
M  V30 38 1 7 35
M  V30 39 1 14 36
M  V30 40 1 15 37
M  V30 41 1 17 38
M  V30 42 1 18 39
M  V30 43 1 19 40
M  V30 44 1 21 41
M  V30 45 1 21 42
M  V30 46 1 23 43
M  V30 END BOND
M  V30 END CTAB
M  END
>  <Dataset>  (70) 
ChEMBL_Kinases

>  <Ligand_Instance>  (70) 
nan

>  <PDB_ID>  (70) 
nan

>  <Standardized_SMILES>  (70) 
COc1ccc(CSc2nnc(C3=CC=C4NC=CN4C3)o2)cc1C(F)(F)F

>  <Name>  (70) 
nan

>  <Pocket>  (70) 
nan

>  <ATP_Site>  (70) 
nan

>  <Peripheral>  (70) 
nan

>  <Num_H_Atoms_ProtBoundConf>  (70) 
nan

>  <Num_Resolved_Atoms>  (70) 
nan

>  <Num_Not_Resolved_Atoms>  (70) 
nan

$$$$
CHEMBL575492
     RDKit          3D

  0  0  0  0  0  0  0  0  0  0999 V3000
M  V30 BEGIN CTAB
M  V30 COUNTS 52 55 0 0 0
M  V30 BEGIN ATOM
M  V30 1 C 0.689997 2.631840 -2.829986 0
M  V30 2 O 1.295460 2.550793 -1.556773 0
M  V30 3 C 2.582896 2.066235 -1.384446 0
M  V30 4 C 3.277971 1.655845 -2.501204 0
M  V30 5 C 4.562511 1.165190 -2.390185 0
M  V30 6 C 5.170148 1.077208 -1.167198 0
M  V30 7 C 4.463498 1.490103 -0.066627 0
M  V30 8 C 3.159901 1.996182 -0.112790 0
M  V30 9 N 2.450312 2.418815 1.042689 0
M  V30 10 C 1.229479 1.963992 1.607632 0
M  V30 11 C 0.546927 0.929336 1.004791 0
M  V30 12 C -0.626482 0.584479 1.653926 0
M  V30 13 O -1.429866 -0.444851 1.165845 0
M  V30 14 C -1.221222 -1.748627 1.598531 0
M  V30 15 C -0.244734 -2.130394 2.509637 0
M  V30 16 C -0.109874 -3.459385 2.883994 0
M  V30 17 C 0.933247 -3.872693 3.858232 0
M  V30 18 C -0.930190 -4.444445 2.372887 0
M  V30 19 C -0.859427 -5.880163 2.713029 0
M  V30 20 N -1.874290 -4.040065 1.485135 0
M  V30 21 C -2.025098 -2.757220 1.106090 0
M  V30 22 C -3.099578 -2.503108 0.136051 0
M  V30 23 C -3.920280 -1.404914 0.396786 0
M  V30 24 C -4.959296 -1.086787 -0.461164 0
M  V30 25 C -5.083095 -1.937342 -1.547840 0
M  V30 26 C -4.285216 -3.028878 -1.827793 0
M  V30 27 N -3.295624 -3.277613 -0.950533 0
M  V30 28 C -1.103077 1.195302 2.800329 0
M  V30 29 C -0.308696 2.228371 3.300876 0
M  V30 30 N 0.845023 2.615219 2.718775 0
M  V30 31 H 1.379880 3.029905 -3.609382 0
M  V30 32 H -0.185548 3.305866 -2.726762 0
M  V30 33 H 0.365237 1.622533 -3.202687 0
M  V30 34 H 2.904075 1.677716 -3.516324 0
M  V30 35 H 5.184191 0.817726 -3.229985 0
M  V30 36 H 6.181951 0.706588 -0.950963 0
M  V30 37 H 4.865887 1.455001 0.931641 0
M  V30 38 H 3.045621 3.172665 1.407494 0
M  V30 39 H 0.868914 0.420949 0.119268 0
M  V30 40 H 0.392585 -1.359700 2.905649 0
M  V30 41 H 1.850527 -4.238015 3.362770 0
M  V30 42 H 0.516290 -4.563355 4.604358 0
M  V30 43 H 1.235680 -2.951934 4.416966 0
M  V30 44 H -0.115963 -6.450689 2.115695 0
M  V30 45 H -1.881972 -6.333963 2.567426 0
M  V30 46 H -0.636004 -6.027624 3.772504 0
M  V30 47 H -3.778345 -0.765515 1.270647 0
M  V30 48 H -5.641880 -0.256210 -0.336039 0
M  V30 49 H -5.898324 -1.707963 -2.243289 0
M  V30 50 H -4.459457 -3.634334 -2.701571 0
M  V30 51 H -2.024219 0.894075 3.274037 0
M  V30 52 H -0.636111 2.737312 4.193538 0
M  V30 END ATOM
M  V30 BEGIN BOND
M  V30 1 1 1 2
M  V30 2 1 2 3
M  V30 3 2 3 4
M  V30 4 1 4 5
M  V30 5 2 5 6
M  V30 6 1 6 7
M  V30 7 2 7 8
M  V30 8 1 8 9
M  V30 9 1 9 10
M  V30 10 2 10 11
M  V30 11 1 11 12
M  V30 12 1 12 13
M  V30 13 1 13 14
M  V30 14 2 14 15
M  V30 15 1 15 16
M  V30 16 1 16 17
M  V30 17 2 16 18
M  V30 18 1 18 19
M  V30 19 1 18 20
M  V30 20 2 20 21
M  V30 21 1 21 22
M  V30 22 2 22 23
M  V30 23 1 23 24
M  V30 24 2 24 25
M  V30 25 1 25 26
M  V30 26 2 26 27
M  V30 27 2 12 28
M  V30 28 1 28 29
M  V30 29 2 29 30
M  V30 30 1 8 3
M  V30 31 1 30 10
M  V30 32 1 21 14
M  V30 33 1 27 22
M  V30 34 1 1 31
M  V30 35 1 1 32
M  V30 36 1 1 33
M  V30 37 1 4 34
M  V30 38 1 5 35
M  V30 39 1 6 36
M  V30 40 1 7 37
M  V30 41 1 9 38
M  V30 42 1 11 39
M  V30 43 1 15 40
M  V30 44 1 17 41
M  V30 45 1 17 42
M  V30 46 1 17 43
M  V30 47 1 19 44
M  V30 48 1 19 45
M  V30 49 1 19 46
M  V30 50 1 23 47
M  V30 51 1 24 48
M  V30 52 1 25 49
M  V30 53 1 26 50
M  V30 54 1 28 51
M  V30 55 1 29 52
M  V30 END BOND
M  V30 END CTAB
M  END
>  <Dataset>  (71) 
ChEMBL_Kinases

>  <Ligand_Instance>  (71) 
nan

>  <PDB_ID>  (71) 
nan

>  <Standardized_SMILES>  (71) 
COc1ccccc1Nc1cc(Oc2cc(C)c(C)nc2-c2ccccn2)ccn1

>  <Name>  (71) 
nan

>  <Pocket>  (71) 
nan

>  <ATP_Site>  (71) 
nan

>  <Peripheral>  (71) 
nan

>  <Num_H_Atoms_ProtBoundConf>  (71) 
nan

>  <Num_Resolved_Atoms>  (71) 
nan

>  <Num_Not_Resolved_Atoms>  (71) 
nan

$$$$
CHEMBL514192
     RDKit          3D

  0  0  0  0  0  0  0  0  0  0999 V3000
M  V30 BEGIN CTAB
M  V30 COUNTS 59 64 0 0 0
M  V30 BEGIN ATOM
M  V30 1 C 1.665994 -3.218289 -0.796730 0
M  V30 2 N 0.834741 -2.572534 0.203000 0
M  V30 3 C 0.932662 -1.297994 0.677516 0
M  V30 4 C 1.864244 -0.357380 0.287252 0
M  V30 5 C 1.852584 0.902469 0.849830 0
M  V30 6 S 3.002229 2.156590 0.409124 0
M  V30 7 O 3.903977 1.653707 -0.681938 0
M  V30 8 O 3.856599 2.535424 1.560898 0
M  V30 9 N 2.205622 3.555463 -0.231459 0
M  V30 10 C 1.474700 3.228435 -1.439173 0
M  V30 11 C 0.773362 4.443272 -2.009544 0
M  V30 12 N 1.725395 5.488128 -2.342088 0
M  V30 13 C 2.358131 5.658225 -3.531153 0
M  V30 14 C 3.177124 6.784459 -3.397515 0
M  V30 15 C 3.035719 7.294842 -2.119391 0
M  V30 16 C 2.116280 6.457135 -1.481731 0
M  V30 17 C 0.886703 1.191832 1.809049 0
M  V30 18 O 0.849954 2.467758 2.400307 0
M  V30 19 C -0.009011 0.204355 2.147833 0
M  V30 20 C -0.037381 -1.050017 1.622165 0
M  V30 21 C -0.734764 -2.214834 1.712337 0
M  V30 22 C -1.801110 -2.540158 2.488571 0
M  V30 23 C -2.357995 -3.792810 2.419185 0
M  V30 24 C -1.824156 -4.731316 1.547649 0
M  V30 25 C -2.353660 -6.084417 1.410871 0
M  V30 26 C -3.351134 -6.489617 0.521637 0
M  V30 27 C -3.725147 -7.798494 0.528861 0
M  V30 28 C -3.202492 -8.775666 1.345043 0
M  V30 29 C -2.208528 -8.377637 2.232850 0
M  V30 30 C -1.798508 -7.047982 2.255910 0
M  V30 31 Cl -0.535579 -6.604730 3.402359 0
M  V30 32 C -0.741241 -4.407595 0.756417 0
M  V30 33 C -0.201326 -3.141021 0.846524 0
M  V30 34 C -3.497918 -3.975461 3.321320 0
M  V30 35 O -4.191269 -5.006363 3.466768 0
M  V30 36 N -3.598223 -2.694466 3.969378 0
M  V30 37 C -2.584163 -1.843238 3.468839 0
M  V30 38 O -2.567408 -0.706350 3.952855 0
M  V30 39 H 2.483450 -3.767223 -0.288101 0
M  V30 40 H 2.067762 -2.477201 -1.534707 0
M  V30 41 H 1.094025 -3.955267 -1.393645 0
M  V30 42 H 2.609407 -0.560536 -0.444000 0
M  V30 43 H 1.626651 4.057554 0.460812 0
M  V30 44 H 2.147113 2.726823 -2.144963 0
M  V30 45 H 0.647667 2.539004 -1.104875 0
M  V30 46 H 0.090408 4.808501 -1.215192 0
M  V30 47 H 0.159941 4.110901 -2.853528 0
M  V30 48 H 2.256552 5.042721 -4.426159 0
M  V30 49 H 3.834547 7.226430 -4.143329 0
M  V30 50 H 3.529895 8.170767 -1.676242 0
M  V30 51 H 1.784078 6.588833 -0.449462 0
M  V30 52 H 0.100671 3.074822 2.087478 0
M  V30 53 H -0.716279 0.492691 2.883722 0
M  V30 54 H -3.751558 -5.719086 -0.110121 0
M  V30 55 H -4.510103 -8.107183 -0.173932 0
M  V30 56 H -3.554794 -9.781490 1.284985 0
M  V30 57 H -1.752760 -9.101703 2.906827 0
M  V30 58 H -0.304284 -5.114888 0.069743 0
M  V30 59 H -4.368525 -2.563132 4.690615 0
M  V30 END ATOM
M  V30 BEGIN BOND
M  V30 1 1 1 2
M  V30 2 1 2 3
M  V30 3 2 3 4
M  V30 4 1 4 5
M  V30 5 1 5 6
M  V30 6 2 6 7
M  V30 7 2 6 8
M  V30 8 1 6 9
M  V30 9 1 9 10
M  V30 10 1 10 11
M  V30 11 1 11 12
M  V30 12 1 12 13
M  V30 13 2 13 14
M  V30 14 1 14 15
M  V30 15 2 15 16
M  V30 16 2 5 17
M  V30 17 1 17 18
M  V30 18 1 17 19
M  V30 19 2 19 20
M  V30 20 1 20 21
M  V30 21 2 21 22
M  V30 22 1 22 23
M  V30 23 2 23 24
M  V30 24 1 24 25
M  V30 25 2 25 26
M  V30 26 1 26 27
M  V30 27 2 27 28
M  V30 28 1 28 29
M  V30 29 2 29 30
M  V30 30 1 30 31
M  V30 31 1 24 32
M  V30 32 2 32 33
M  V30 33 1 23 34
M  V30 34 2 34 35
M  V30 35 1 34 36
M  V30 36 1 36 37
M  V30 37 2 37 38
M  V30 38 1 33 2
M  V30 39 1 20 3
M  V30 40 1 33 21
M  V30 41 1 16 12
M  V30 42 1 37 22
M  V30 43 1 30 25
M  V30 44 1 1 39
M  V30 45 1 1 40
M  V30 46 1 1 41
M  V30 47 1 4 42
M  V30 48 1 9 43
M  V30 49 1 10 44
M  V30 50 1 10 45
M  V30 51 1 11 46
M  V30 52 1 11 47
M  V30 53 1 13 48
M  V30 54 1 14 49
M  V30 55 1 15 50
M  V30 56 1 16 51
M  V30 57 1 18 52
M  V30 58 1 19 53
M  V30 59 1 26 54
M  V30 60 1 27 55
M  V30 61 1 28 56
M  V30 62 1 29 57
M  V30 63 1 32 58
M  V30 64 1 36 59
M  V30 END BOND
M  V30 END CTAB
M  END
>  <Dataset>  (72) 
ChEMBL_Kinases

>  <Ligand_Instance>  (72) 
nan

>  <PDB_ID>  (72) 
nan

>  <Standardized_SMILES>  (72) 
Cn1c2cc(S(=O)(=O)NCCn3cccc3)c(O)cc2c2c3c(c(-c4ccccc4Cl)cc21)C(=O)NC3=O

>  <Name>  (72) 
nan

>  <Pocket>  (72) 
nan

>  <ATP_Site>  (72) 
nan

>  <Peripheral>  (72) 
nan

>  <Num_H_Atoms_ProtBoundConf>  (72) 
nan

>  <Num_Resolved_Atoms>  (72) 
nan

>  <Num_Not_Resolved_Atoms>  (72) 
nan

$$$$
CHEMBL575471
     RDKit          3D

  0  0  0  0  0  0  0  0  0  0999 V3000
M  V30 BEGIN CTAB
M  V30 COUNTS 41 44 0 0 0
M  V30 BEGIN ATOM
M  V30 1 C 1.147130 -5.379895 2.321705 0
M  V30 2 N -0.097033 -4.779832 1.931753 0
M  V30 3 C -0.346351 -3.639447 2.767756 0
M  V30 4 C -0.205009 -4.508949 0.526208 0
M  V30 5 C 0.901150 -3.563390 0.125985 0
M  V30 6 N 0.640657 -2.258338 0.201950 0
M  V30 7 C 1.540534 -1.317902 -0.127087 0
M  V30 8 C 2.728618 -1.869432 -0.539410 0
M  V30 9 S 3.770132 -0.477293 -0.924739 0
M  V30 10 C 2.468239 0.807009 -0.481521 0
M  V30 11 C 2.597463 2.194065 -0.544522 0
M  V30 12 C 1.477468 2.891987 -0.157593 0
M  V30 13 C 0.393540 2.175759 0.234200 0
M  V30 14 C -0.806317 2.947065 0.649068 0
M  V30 15 C -0.569962 4.171733 1.245323 0
M  V30 16 C -1.619913 4.970252 1.670335 0
M  V30 17 Cl -1.316736 6.533034 2.431005 0
M  V30 18 C -2.937640 4.543707 1.499876 0
M  V30 19 C -3.156362 3.311532 0.899420 0
M  V30 20 Cl -4.800675 2.729860 0.663707 0
M  V30 21 C -2.105088 2.511746 0.473841 0
M  V30 22 C 0.303962 0.806776 0.282857 0
M  V30 23 C 1.383012 0.034754 -0.088622 0
M  V30 24 C 3.003705 -3.233810 -0.619736 0
M  V30 25 O 4.156674 -3.530900 -1.022864 0
M  V30 26 N 2.054664 -4.113039 -0.274284 0
M  V30 27 H 1.199319 -6.449136 2.045228 0
M  V30 28 H 2.037746 -4.809351 2.025023 0
M  V30 29 H 1.165503 -5.360886 3.450157 0
M  V30 30 H 0.570776 -3.246069 3.270446 0
M  V30 31 H -0.909154 -2.842236 2.237713 0
M  V30 32 H -1.009361 -3.994225 3.607995 0
M  V30 33 H -0.088752 -5.434655 -0.036780 0
M  V30 34 H -1.175694 -4.004009 0.365404 0
M  V30 35 H 3.544865 2.581714 -0.884104 0
M  V30 36 H 1.550829 3.963543 -0.196624 0
M  V30 37 H 0.411768 4.585469 1.419537 0
M  V30 38 H -3.774354 5.158176 1.828241 0
M  V30 39 H -2.228861 1.546827 0.002851 0
M  V30 40 H -0.624679 0.366024 0.616625 0
M  V30 41 H 2.277020 -5.114290 -0.341242 0
M  V30 END ATOM
M  V30 BEGIN BOND
M  V30 1 1 1 2
M  V30 2 1 2 3
M  V30 3 1 2 4
M  V30 4 1 4 5
M  V30 5 2 5 6
M  V30 6 1 6 7
M  V30 7 2 7 8
M  V30 8 1 8 9
M  V30 9 1 9 10
M  V30 10 2 10 11
M  V30 11 1 11 12
M  V30 12 2 12 13
M  V30 13 1 13 14
M  V30 14 2 14 15
M  V30 15 1 15 16
M  V30 16 1 16 17
M  V30 17 2 16 18
M  V30 18 1 18 19
M  V30 19 1 19 20
M  V30 20 2 19 21
M  V30 21 1 13 22
M  V30 22 2 22 23
M  V30 23 1 8 24
M  V30 24 2 24 25
M  V30 25 1 24 26
M  V30 26 1 26 5
M  V30 27 1 23 7
M  V30 28 1 23 10
M  V30 29 1 21 14
M  V30 30 1 1 27
M  V30 31 1 1 28
M  V30 32 1 1 29
M  V30 33 1 3 30
M  V30 34 1 3 31
M  V30 35 1 3 32
M  V30 36 1 4 33
M  V30 37 1 4 34
M  V30 38 1 11 35
M  V30 39 1 12 36
M  V30 40 1 15 37
M  V30 41 1 18 38
M  V30 42 1 21 39
M  V30 43 1 22 40
M  V30 44 1 26 41
M  V30 END BOND
M  V30 END CTAB
M  END
>  <Dataset>  (73) 
ChEMBL_Kinases

>  <Ligand_Instance>  (73) 
nan

>  <PDB_ID>  (73) 
nan

>  <Standardized_SMILES>  (73) 
CN(C)Cc1nc2c(sc3ccc(-c4cc(Cl)cc(Cl)c4)cc32)c(=O)[nH]1

>  <Name>  (73) 
nan

>  <Pocket>  (73) 
nan

>  <ATP_Site>  (73) 
nan

>  <Peripheral>  (73) 
nan

>  <Num_H_Atoms_ProtBoundConf>  (73) 
nan

>  <Num_Resolved_Atoms>  (73) 
nan

>  <Num_Not_Resolved_Atoms>  (73) 
nan

$$$$
CHEMBL514207
     RDKit          3D

  0  0  0  0  0  0  0  0  0  0999 V3000
M  V30 BEGIN CTAB
M  V30 COUNTS 70 74 0 0 0
M  V30 BEGIN ATOM
M  V30 1 C 3.314266 -3.667620 4.396659 0
M  V30 2 C 3.191262 -3.049921 3.048403 0
M  V30 3 C 4.335460 -2.434651 2.531397 0
M  V30 4 C 4.200939 -1.863840 1.270137 0
M  V30 5 C 3.028635 -1.876302 0.528637 0
M  V30 6 N 3.017242 -1.249509 -0.760420 0
M  V30 7 C 2.656636 0.110459 -0.952515 0
M  V30 8 O 2.344771 0.700844 0.136078 0
M  V30 9 C 2.647205 0.753959 -2.265421 0
M  V30 10 C 3.030518 0.143697 -3.426858 0
M  V30 11 C 2.969061 0.870125 -4.598265 0
M  V30 12 N 2.552932 2.128413 -4.625156 0
M  V30 13 C 2.156981 2.792368 -3.498365 0
M  V30 14 N 1.725191 4.135913 -3.604148 0
M  V30 15 C 1.172447 4.942010 -2.537446 0
M  V30 16 C -0.007944 5.744217 -2.985542 0
M  V30 17 C -0.543507 5.392147 -4.332900 0
M  V30 18 C -1.201002 4.041271 -4.417283 0
M  V30 19 C 0.557067 5.464025 -5.338120 0
M  V30 20 C 1.820608 4.837486 -4.867222 0
M  V30 21 C 2.220070 2.064402 -2.332870 0
M  V30 22 C 1.933921 -2.499000 1.092760 0
M  V30 23 C 1.999888 -3.089852 2.351473 0
M  V30 24 C 0.807566 -3.731057 2.904473 0
M  V30 25 C 0.656252 -4.939540 3.536245 0
M  V30 26 C -0.587321 -5.337271 3.983094 0
M  V30 27 C -1.729846 -4.579753 3.834612 0
M  V30 28 C -2.996475 -5.091971 4.346423 0
M  V30 29 O -2.954078 -6.212210 4.923953 0
M  V30 30 N -4.235243 -4.421497 4.234490 0
M  V30 31 C -5.506018 -4.897283 4.730330 0
M  V30 32 C -6.565894 -3.863141 4.395746 0
M  V30 33 C -7.949881 -4.135757 4.807650 0
M  V30 34 C -7.553378 -4.161769 3.307043 0
M  V30 35 C -1.560709 -3.367332 3.196860 0
M  V30 36 C -0.334046 -2.931162 2.734398 0
M  V30 37 H 3.760248 -4.686421 4.341027 0
M  V30 38 H 2.348832 -3.636180 4.939475 0
M  V30 39 H 4.028191 -3.088732 5.056209 0
M  V30 40 H 5.275869 -2.396284 3.066738 0
M  V30 41 H 5.060603 -1.370007 0.821570 0
M  V30 42 H 3.289146 -1.839602 -1.574915 0
M  V30 43 H 3.369036 -0.891119 -3.376117 0
M  V30 44 H 3.279825 0.358437 -5.506737 0
M  V30 45 H 1.902745 5.652397 -2.089791 0
M  V30 46 H 0.816731 4.218338 -1.759076 0
M  V30 47 H -0.830636 5.654547 -2.253089 0
M  V30 48 H 0.225402 6.844439 -3.021712 0
M  V30 49 H -1.327606 6.140813 -4.572013 0
M  V30 50 H -2.268783 4.066176 -4.066887 0
M  V30 51 H -0.677727 3.240418 -3.867835 0
M  V30 52 H -1.188448 3.758588 -5.506039 0
M  V30 53 H 0.732815 6.491193 -5.722353 0
M  V30 54 H 0.208574 4.886951 -6.232036 0
M  V30 55 H 2.546215 5.678361 -4.667571 0
M  V30 56 H 2.241861 4.138420 -5.623273 0
M  V30 57 H 1.920899 2.550779 -1.437260 0
M  V30 58 H 1.002884 -2.510173 0.508475 0
M  V30 59 H 1.571731 -5.477991 3.620367 0
M  V30 60 H -0.614342 -6.301052 4.468851 0
M  V30 61 H -4.165551 -3.505929 3.741780 0
M  V30 62 H -5.524374 -5.098730 5.815925 0
M  V30 63 H -5.842303 -5.844253 4.250738 0
M  V30 64 H -6.263056 -2.786460 4.416266 0
M  V30 65 H -8.652721 -3.320174 5.077943 0
M  V30 66 H -8.268448 -5.112334 5.214520 0
M  V30 67 H -7.967061 -3.342613 2.691414 0
M  V30 68 H -7.559785 -5.142949 2.815142 0
M  V30 69 H -2.432661 -2.739664 3.058611 0
M  V30 70 H -0.329911 -1.944416 2.241826 0
M  V30 END ATOM
M  V30 BEGIN BOND
M  V30 1 1 1 2
M  V30 2 2 2 3
M  V30 3 1 3 4
M  V30 4 2 4 5
M  V30 5 1 5 6
M  V30 6 1 6 7
M  V30 7 2 7 8
M  V30 8 1 7 9
M  V30 9 2 9 10
M  V30 10 1 10 11
M  V30 11 2 11 12
M  V30 12 1 12 13
M  V30 13 1 13 14
M  V30 14 1 14 15
M  V30 15 1 15 16
M  V30 16 1 16 17
M  V30 17 1 17 18
M  V30 18 1 17 19
M  V30 19 1 19 20
M  V30 20 2 13 21
M  V30 21 1 5 22
M  V30 22 2 22 23
M  V30 23 1 23 24
M  V30 24 2 24 25
M  V30 25 1 25 26
M  V30 26 2 26 27
M  V30 27 1 27 28
M  V30 28 2 28 29
M  V30 29 1 28 30
M  V30 30 1 30 31
M  V30 31 1 31 32
M  V30 32 1 32 33
M  V30 33 1 33 34
M  V30 34 1 27 35
M  V30 35 2 35 36
M  V30 36 1 23 2
M  V30 37 1 36 24
M  V30 38 1 21 9
M  V30 39 1 34 32
M  V30 40 1 20 14
M  V30 41 1 1 37
M  V30 42 1 1 38
M  V30 43 1 1 39
M  V30 44 1 3 40
M  V30 45 1 4 41
M  V30 46 1 6 42
M  V30 47 1 10 43
M  V30 48 1 11 44
M  V30 49 1 15 45
M  V30 50 1 15 46
M  V30 51 1 16 47
M  V30 52 1 16 48
M  V30 53 1 17 49
M  V30 54 1 18 50
M  V30 55 1 18 51
M  V30 56 1 18 52
M  V30 57 1 19 53
M  V30 58 1 19 54
M  V30 59 1 20 55
M  V30 60 1 20 56
M  V30 61 1 21 57
M  V30 62 1 22 58
M  V30 63 1 25 59
M  V30 64 1 26 60
M  V30 65 1 30 61
M  V30 66 1 31 62
M  V30 67 1 31 63
M  V30 68 1 32 64
M  V30 69 1 33 65
M  V30 70 1 33 66
M  V30 71 1 34 67
M  V30 72 1 34 68
M  V30 73 1 35 69
M  V30 74 1 36 70
M  V30 END BOND
M  V30 END CTAB
M  END
>  <Dataset>  (74) 
ChEMBL_Kinases

>  <Ligand_Instance>  (74) 
nan

>  <PDB_ID>  (74) 
nan

>  <Standardized_SMILES>  (74) 
Cc1ccc(NC(=O)c2ccnc(N3CCC(C)CC3)c2)cc1-c1ccc(C(=O)NCC2CC2)cc1

>  <Name>  (74) 
nan

>  <Pocket>  (74) 
nan

>  <ATP_Site>  (74) 
nan

>  <Peripheral>  (74) 
nan

>  <Num_H_Atoms_ProtBoundConf>  (74) 
nan

>  <Num_Resolved_Atoms>  (74) 
nan

>  <Num_Not_Resolved_Atoms>  (74) 
nan

$$$$
CHEMBL514316
     RDKit          3D

  0  0  0  0  0  0  0  0  0  0999 V3000
M  V30 BEGIN CTAB
M  V30 COUNTS 53 58 0 0 0
M  V30 BEGIN ATOM
M  V30 1 N 2.062211 0.717688 4.716992 0
M  V30 2 C 1.521254 -0.340152 4.192861 0
M  V30 3 N 0.237307 -0.997509 4.204421 0
M  V30 4 S 2.451383 -1.414342 3.135031 0
M  V30 5 C 4.143807 -0.896986 2.883454 0
M  V30 6 C 4.337614 0.368408 2.140455 0
M  V30 7 C 3.864818 0.446218 0.742313 0
M  V30 8 N 2.465880 0.201836 0.507811 0
M  V30 9 C 1.788381 -1.027513 0.156757 0
M  V30 10 O 2.334251 -2.141747 -0.032293 0
M  V30 11 C 0.387496 -0.612270 0.095155 0
M  V30 12 C 0.204624 0.693165 0.368645 0
M  V30 13 C 1.513888 1.278006 0.644239 0
M  V30 14 O 1.728044 2.468739 0.934982 0
M  V30 15 N -1.040325 1.419360 0.392457 0
M  V30 16 C -1.119361 2.734053 0.388987 0
M  V30 17 C -2.462936 3.041193 0.406795 0
M  V30 18 C -3.148283 1.843650 0.420670 0
M  V30 19 C -4.515344 1.652530 0.442412 0
M  V30 20 C -4.947293 0.342816 0.455235 0
M  V30 21 C -4.035923 -0.688495 0.446384 0
M  V30 22 C -2.657306 -0.551823 0.424529 0
M  V30 23 C -2.251076 0.782029 0.411860 0
M  V30 24 C -1.914283 -1.818708 0.430720 0
M  V30 25 C -2.510523 -2.949892 -0.317020 0
M  V30 26 C -1.504593 -3.297924 -1.385525 0
M  V30 27 C -1.656796 -4.307665 -2.324562 0
M  V30 28 C -0.648535 -4.467089 -3.282990 0
M  V30 29 C 0.464022 -3.616584 -3.266143 0
M  V30 30 C 0.550194 -2.637658 -2.307625 0
M  V30 31 C -0.413865 -2.456450 -1.356556 0
M  V30 32 N -0.629733 -1.579868 -0.236600 0
M  V30 33 H 1.517765 1.341912 5.333616 0
M  V30 34 H 0.214991 -1.703788 4.972280 0
M  V30 35 H -0.590594 -0.858713 3.590433 0
M  V30 36 H 4.683631 -1.723952 2.349912 0
M  V30 37 H 4.649841 -0.875481 3.892938 0
M  V30 38 H 3.944751 1.256438 2.691693 0
M  V30 39 H 5.455560 0.565260 2.120725 0
M  V30 40 H 4.402174 -0.361413 0.166100 0
M  V30 41 H 4.174152 1.411749 0.252576 0
M  V30 42 H -0.315082 3.425022 0.374980 0
M  V30 43 H -2.904121 4.040953 0.409499 0
M  V30 44 H -5.238378 2.459416 0.449474 0
M  V30 45 H -6.010569 0.185367 0.472110 0
M  V30 46 H -4.487436 -1.664279 0.462337 0
M  V30 47 H -1.773042 -2.180593 1.489477 0
M  V30 48 H -3.425846 -2.678024 -0.915479 0
M  V30 49 H -2.682982 -3.830458 0.310678 0
M  V30 50 H -2.514718 -4.966657 -2.342280 0
M  V30 51 H -0.739631 -5.248675 -4.029244 0
M  V30 52 H 1.212715 -3.783222 -4.029490 0
M  V30 53 H 1.413885 -2.011860 -2.388586 0
M  V30 END ATOM
M  V30 BEGIN BOND
M  V30 1 2 1 2 CFG=2
M  V30 2 1 2 3
M  V30 3 1 2 4
M  V30 4 1 4 5
M  V30 5 1 5 6
M  V30 6 1 6 7
M  V30 7 1 7 8
M  V30 8 1 8 9
M  V30 9 2 9 10
M  V30 10 1 9 11
M  V30 11 2 11 12
M  V30 12 1 12 13
M  V30 13 2 13 14
M  V30 14 1 12 15
M  V30 15 1 15 16
M  V30 16 2 16 17
M  V30 17 1 17 18
M  V30 18 2 18 19
M  V30 19 1 19 20
M  V30 20 2 20 21
M  V30 21 1 21 22
M  V30 22 2 22 23
M  V30 23 1 22 24
M  V30 24 1 24 25
M  V30 25 1 25 26
M  V30 26 2 26 27
M  V30 27 1 27 28
M  V30 28 2 28 29
M  V30 29 1 29 30
M  V30 30 2 30 31
M  V30 31 1 31 32
M  V30 32 1 13 8
M  V30 33 1 23 15
M  V30 34 1 32 24
M  V30 35 1 32 11
M  V30 36 1 23 18
M  V30 37 1 31 26
M  V30 38 1 1 33
M  V30 39 1 3 34
M  V30 40 1 3 35
M  V30 41 1 5 36
M  V30 42 1 5 37
M  V30 43 1 6 38
M  V30 44 1 6 39
M  V30 45 1 7 40
M  V30 46 1 7 41
M  V30 47 1 16 42
M  V30 48 1 17 43
M  V30 49 1 19 44
M  V30 50 1 20 45
M  V30 51 1 21 46
M  V30 52 1 24 47
M  V30 53 1 25 48
M  V30 54 1 25 49
M  V30 55 1 27 50
M  V30 56 1 28 51
M  V30 57 1 29 52
M  V30 58 1 30 53
M  V30 END BOND
M  V30 END CTAB
M  END
>  <Dataset>  (75) 
ChEMBL_Kinases

>  <Ligand_Instance>  (75) 
nan

>  <PDB_ID>  (75) 
nan

>  <Standardized_SMILES>  (75) 
N=C(N)SCCCN1C(=O)C2=C(C1=O)n1ccc3cccc(c31)C1Cc3ccccc3N21

>  <Name>  (75) 
nan

>  <Pocket>  (75) 
nan

>  <ATP_Site>  (75) 
nan

>  <Peripheral>  (75) 
nan

>  <Num_H_Atoms_ProtBoundConf>  (75) 
nan

>  <Num_Resolved_Atoms>  (75) 
nan

>  <Num_Not_Resolved_Atoms>  (75) 
nan

$$$$
CHEMBL514401
     RDKit          3D

  0  0  0  0  0  0  0  0  0  0999 V3000
M  V30 BEGIN CTAB
M  V30 COUNTS 40 43 0 0 0
M  V30 BEGIN ATOM
M  V30 1 C 2.185963 -3.692554 2.981120 0
M  V30 2 O 1.908214 -4.354538 1.763799 0
M  V30 3 C 2.033886 -3.674303 0.561124 0
M  V30 4 C 2.430910 -2.336498 0.497416 0
M  V30 5 C 2.564381 -1.635261 -0.684105 0
M  V30 6 C 2.296802 -2.273231 -1.856824 0
M  V30 7 C 2.416838 -1.588621 -3.183623 0
M  V30 8 S 0.833187 -0.797156 -3.659304 0
M  V30 9 C 0.546177 0.532123 -2.469969 0
M  V30 10 N 0.971209 1.805063 -2.601475 0
M  V30 11 N 0.554791 2.450334 -1.520749 0
M  V30 12 C -0.125714 1.596202 -0.714539 0
M  V30 13 C -0.727262 1.971744 0.567169 0
M  V30 14 C -0.655393 3.250314 1.077025 0
M  V30 15 C -1.239003 3.550720 2.290124 0
M  V30 16 C -1.905036 2.587858 3.020247 0
M  V30 17 C -1.950996 1.312423 2.464661 0
M  V30 18 C -1.384897 0.940400 1.247450 0
M  V30 19 C -2.715999 0.448818 3.424993 0
M  V30 20 C -3.543517 1.500733 4.130657 0
M  V30 21 O -2.581724 2.548426 4.232607 0
M  V30 22 O -0.094439 0.440193 -1.352961 0
M  V30 23 C 1.904593 -3.585561 -1.835741 0
M  V30 24 C 1.765728 -4.303834 -0.658952 0
M  V30 25 F 1.383333 -5.599357 -0.564733 0
M  V30 26 H 1.872573 -4.348350 3.837260 0
M  V30 27 H 1.562608 -2.751110 2.993067 0
M  V30 28 H 3.240177 -3.359875 3.069152 0
M  V30 29 H 2.645892 -1.822604 1.427558 0
M  V30 30 H 2.874433 -0.598916 -0.692548 0
M  V30 31 H 3.202440 -0.815983 -3.054008 0
M  V30 32 H 2.740258 -2.311532 -3.957934 0
M  V30 33 H -0.137840 4.023361 0.522149 0
M  V30 34 H -1.172359 4.564068 2.676796 0
M  V30 35 H -1.475584 -0.077349 0.902067 0
M  V30 36 H -3.406401 -0.230716 2.887749 0
M  V30 37 H -2.056994 -0.074256 4.120629 0
M  V30 38 H -4.306427 1.860642 3.425993 0
M  V30 39 H -3.920806 1.180213 5.098154 0
M  V30 40 H 1.669477 -4.180475 -2.705674 0
M  V30 END ATOM
M  V30 BEGIN BOND
M  V30 1 1 1 2
M  V30 2 1 2 3
M  V30 3 2 3 4
M  V30 4 1 4 5
M  V30 5 2 5 6
M  V30 6 1 6 7
M  V30 7 1 7 8
M  V30 8 1 8 9
M  V30 9 2 9 10
M  V30 10 1 10 11
M  V30 11 2 11 12
M  V30 12 1 12 13
M  V30 13 2 13 14
M  V30 14 1 14 15
M  V30 15 2 15 16
M  V30 16 1 16 17
M  V30 17 2 17 18
M  V30 18 1 17 19
M  V30 19 1 19 20
M  V30 20 1 20 21
M  V30 21 1 12 22
M  V30 22 1 6 23
M  V30 23 2 23 24
M  V30 24 1 24 25
M  V30 25 1 24 3
M  V30 26 1 22 9
M  V30 27 1 18 13
M  V30 28 1 21 16
M  V30 29 1 1 26
M  V30 30 1 1 27
M  V30 31 1 1 28
M  V30 32 1 4 29
M  V30 33 1 5 30
M  V30 34 1 7 31
M  V30 35 1 7 32
M  V30 36 1 14 33
M  V30 37 1 15 34
M  V30 38 1 18 35
M  V30 39 1 19 36
M  V30 40 1 19 37
M  V30 41 1 20 38
M  V30 42 1 20 39
M  V30 43 1 23 40
M  V30 END BOND
M  V30 END CTAB
M  END
>  <Dataset>  (76) 
ChEMBL_Kinases

>  <Ligand_Instance>  (76) 
nan

>  <PDB_ID>  (76) 
nan

>  <Standardized_SMILES>  (76) 
COc1ccc(CSc2nnc(-c3ccc4c(c3)CCO4)o2)cc1F

>  <Name>  (76) 
nan

>  <Pocket>  (76) 
nan

>  <ATP_Site>  (76) 
nan

>  <Peripheral>  (76) 
nan

>  <Num_H_Atoms_ProtBoundConf>  (76) 
nan

>  <Num_Resolved_Atoms>  (76) 
nan

>  <Num_Not_Resolved_Atoms>  (76) 
nan

$$$$
CHEMBL514484
     RDKit          3D

  0  0  0  0  0  0  0  0  0  0999 V3000
M  V30 BEGIN CTAB
M  V30 COUNTS 63 68 0 0 0
M  V30 BEGIN ATOM
M  V30 1 C 6.356999 -0.745553 2.924774 0
M  V30 2 N 5.008311 -0.720629 3.452307 0
M  V30 3 C 4.049296 -0.989802 2.425245 0
M  V30 4 C 3.594918 0.217323 1.658933 0
M  V30 5 N 3.316218 1.310117 2.558898 0
M  V30 6 C 2.975761 2.618157 2.116803 0
M  V30 7 C 3.791829 3.693181 2.484289 0
M  V30 8 C 3.479602 4.956709 2.070151 0
M  V30 9 C 2.377886 5.230243 1.292360 0
M  V30 10 C 1.556862 4.185269 0.916674 0
M  V30 11 N 0.435875 4.104857 0.183897 0
M  V30 12 C 0.036143 2.819154 0.127900 0
M  V30 13 C -1.149582 2.353568 -0.583797 0
M  V30 14 N -1.993435 3.139781 -1.272329 0
M  V30 15 N -2.978567 2.408819 -1.807562 0
M  V30 16 C -2.756106 1.129234 -1.451531 0
M  V30 17 C -3.420899 -0.078886 -1.696925 0
M  V30 18 C -2.907571 -1.244697 -1.166653 0
M  V30 19 C -3.544933 -2.553877 -1.376869 0
M  V30 20 C -4.936174 -2.627372 -1.508332 0
M  V30 21 C -5.513571 -3.881255 -1.706562 0
M  V30 22 C -4.777347 -5.046058 -1.778514 0
M  V30 23 N -5.355863 -6.325780 -1.979368 0
M  V30 24 C -4.516976 -7.502071 -2.043764 0
M  V30 25 C -6.787946 -6.497997 -2.124820 0
M  V30 26 C -3.409408 -4.925487 -1.643641 0
M  V30 27 C -2.765823 -3.708882 -1.443831 0
M  V30 28 C -1.752190 -1.265957 -0.395727 0
M  V30 29 C -1.072215 -0.089613 -0.135172 0
M  V30 30 C -1.610668 1.056995 -0.678963 0
M  V30 31 N 0.918796 2.107133 0.831368 0
M  V30 32 C 1.879984 2.928040 1.336971 0
M  V30 33 C 3.388422 1.056806 3.970847 0
M  V30 34 C 4.761314 0.448855 4.234987 0
M  V30 35 H 6.860105 -1.691926 3.244184 0
M  V30 36 H 6.386144 -0.665984 1.830992 0
M  V30 37 H 6.921376 0.078210 3.450236 0
M  V30 38 H 3.194706 -1.605991 2.780548 0
M  V30 39 H 4.570771 -1.655028 1.676470 0
M  V30 40 H 4.367281 0.458466 0.890851 0
M  V30 41 H 2.679502 -0.085883 1.093184 0
M  V30 42 H 4.685064 3.542249 3.103349 0
M  V30 43 H 4.143549 5.771679 2.379043 0
M  V30 44 H 2.152520 6.242281 0.977822 0
M  V30 45 H -0.051274 4.912220 -0.272550 0
M  V30 46 H -3.775633 2.748528 -2.391734 0
M  V30 47 H -4.313808 -0.098009 -2.286884 0
M  V30 48 H -5.571861 -1.744545 -1.461065 0
M  V30 49 H -6.586859 -3.916561 -1.805588 0
M  V30 50 H -3.835064 -7.495180 -1.144833 0
M  V30 51 H -3.850478 -7.487507 -2.925093 0
M  V30 52 H -5.121155 -8.431361 -2.072897 0
M  V30 53 H -7.319009 -5.782357 -1.445728 0
M  V30 54 H -7.121171 -6.219580 -3.146531 0
M  V30 55 H -7.095705 -7.546293 -1.887176 0
M  V30 56 H -2.744217 -5.770611 -1.684121 0
M  V30 57 H -1.691561 -3.640145 -1.340956 0
M  V30 58 H -1.327494 -2.165613 0.032423 0
M  V30 59 H -0.169352 -0.042994 0.456902 0
M  V30 60 H 2.602389 0.326049 4.253704 0
M  V30 61 H 3.351952 1.985045 4.584466 0
M  V30 62 H 5.523978 1.225265 4.005242 0
M  V30 63 H 4.800897 0.262684 5.333988 0
M  V30 END ATOM
M  V30 BEGIN BOND
M  V30 1 1 1 2
M  V30 2 1 2 3
M  V30 3 1 3 4
M  V30 4 1 4 5
M  V30 5 1 5 6
M  V30 6 2 6 7
M  V30 7 1 7 8
M  V30 8 2 8 9
M  V30 9 1 9 10
M  V30 10 1 10 11
M  V30 11 1 11 12
M  V30 12 1 12 13
M  V30 13 2 13 14
M  V30 14 1 14 15
M  V30 15 1 15 16
M  V30 16 2 16 17
M  V30 17 1 17 18
M  V30 18 1 18 19
M  V30 19 2 19 20
M  V30 20 1 20 21
M  V30 21 2 21 22
M  V30 22 1 22 23
M  V30 23 1 23 24
M  V30 24 1 23 25
M  V30 25 1 22 26
M  V30 26 2 26 27
M  V30 27 2 18 28
M  V30 28 1 28 29
M  V30 29 2 29 30
M  V30 30 2 12 31
M  V30 31 1 31 32
M  V30 32 1 5 33
M  V30 33 1 33 34
M  V30 34 1 34 2
M  V30 35 1 32 6
M  V30 36 2 32 10
M  V30 37 1 30 13
M  V30 38 1 30 16
M  V30 39 1 27 19
M  V30 40 1 1 35
M  V30 41 1 1 36
M  V30 42 1 1 37
M  V30 43 1 3 38
M  V30 44 1 3 39
M  V30 45 1 4 40
M  V30 46 1 4 41
M  V30 47 1 7 42
M  V30 48 1 8 43
M  V30 49 1 9 44
M  V30 50 1 11 45
M  V30 51 1 15 46
M  V30 52 1 17 47
M  V30 53 1 20 48
M  V30 54 1 21 49
M  V30 55 1 24 50
M  V30 56 1 24 51
M  V30 57 1 24 52
M  V30 58 1 25 53
M  V30 59 1 25 54
M  V30 60 1 25 55
M  V30 61 1 26 56
M  V30 62 1 27 57
M  V30 63 1 28 58
M  V30 64 1 29 59
M  V30 65 1 33 60
M  V30 66 1 33 61
M  V30 67 1 34 62
M  V30 68 1 34 63
M  V30 END BOND
M  V30 END CTAB
M  END
>  <Dataset>  (77) 
ChEMBL_Kinases

>  <Ligand_Instance>  (77) 
nan

>  <PDB_ID>  (77) 
nan

>  <Standardized_SMILES>  (77) 
CN1CCN(c2cccc3[nH]c(-c4n[nH]c5cc(-c6ccc(N(C)C)cc6)ccc45)nc23)CC1

>  <Name>  (77) 
nan

>  <Pocket>  (77) 
nan

>  <ATP_Site>  (77) 
nan

>  <Peripheral>  (77) 
nan

>  <Num_H_Atoms_ProtBoundConf>  (77) 
nan

>  <Num_Resolved_Atoms>  (77) 
nan

>  <Num_Not_Resolved_Atoms>  (77) 
nan

$$$$
CHEMBL514509
     RDKit          3D

  0  0  0  0  0  0  0  0  0  0999 V3000
M  V30 BEGIN CTAB
M  V30 COUNTS 63 67 0 0 0
M  V30 BEGIN ATOM
M  V30 1 C 1.488816 -1.605366 5.338316 0
M  V30 2 C 1.212824 -0.488605 4.396950 0
M  V30 3 C 1.086430 0.807870 4.846200 0
M  V30 4 C 0.828788 1.830908 3.962210 0
M  V30 5 C 0.701726 1.532441 2.634324 0
M  V30 6 C 0.427218 2.559410 1.616006 0
M  V30 7 O 0.302939 2.284141 0.374288 0
M  V30 8 N 0.272613 3.940928 1.888856 0
M  V30 9 C 0.016579 4.612078 0.636647 0
M  V30 10 C 1.097643 5.083310 -0.096573 0
M  V30 11 C 0.869221 5.732170 -1.304949 0
M  V30 12 C -0.450510 5.889159 -1.743623 0
M  V30 13 C -1.527676 5.425889 -1.024399 0
M  V30 14 C -2.864693 5.639141 -1.566936 0
M  V30 15 C -4.008860 5.219380 -0.934038 0
M  V30 16 C -5.237135 5.458933 -1.511312 0
M  V30 17 C -5.307290 6.117537 -2.718688 0
M  V30 18 C -4.143266 6.542571 -3.358887 0
M  V30 19 N -2.953790 6.284344 -2.752014 0
M  V30 20 C -1.269190 4.792939 0.158397 0
M  V30 21 C 0.826825 0.240239 2.179327 0
M  V30 22 C 1.088874 -0.814184 3.062419 0
M  V30 23 C 1.206068 -2.147943 2.482249 0
M  V30 24 C 2.175767 -3.093978 2.749439 0
M  V30 25 C 2.149184 -4.324417 2.112518 0
M  V30 26 C 1.170467 -4.656427 1.197952 0
M  V30 27 C 1.224922 -5.976658 0.577915 0
M  V30 28 O 2.164744 -6.734455 0.923029 0
M  V30 29 N 0.256697 -6.381286 -0.372049 0
M  V30 30 C 0.111475 -7.586863 -1.088493 0
M  V30 31 C -0.619211 -8.701394 -0.661778 0
M  V30 32 C -0.684328 -9.841361 -1.468980 0
M  V30 33 C -0.019265 -9.837370 -2.678004 0
M  V30 34 C 0.712476 -8.754238 -3.132113 0
M  V30 35 C 1.397849 -8.784392 -4.404448 0
M  V30 36 N 1.952192 -8.798928 -5.442552 0
M  V30 37 C 0.766417 -7.633804 -2.320532 0
M  V30 38 C 0.208262 -3.705696 0.938814 0
M  V30 39 C 0.218234 -2.472771 1.564272 0
M  V30 40 H 2.566607 -1.726576 5.575824 0
M  V30 41 H 1.098326 -2.582060 5.002551 0
M  V30 42 H 1.001192 -1.410432 6.338694 0
M  V30 43 H 1.199607 0.969083 5.910561 0
M  V30 44 H 0.728344 2.852505 4.309433 0
M  V30 45 H 0.358352 4.258618 2.881182 0
M  V30 46 H 2.122084 4.948617 0.267758 0
M  V30 47 H 1.730592 6.092335 -1.861249 0
M  V30 48 H -0.557034 6.408309 -2.701294 0
M  V30 49 H -3.955651 4.711414 -0.002830 0
M  V30 50 H -6.165427 5.138569 -1.034646 0
M  V30 51 H -6.257562 6.319086 -3.194978 0
M  V30 52 H -4.133988 7.072035 -4.321992 0
M  V30 53 H -2.077693 4.422595 0.739692 0
M  V30 54 H 0.722915 0.018701 1.119175 0
M  V30 55 H 2.923958 -2.802802 3.465713 0
M  V30 56 H 2.957813 -5.004891 2.389527 0
M  V30 57 H -0.531984 -5.765059 -0.671675 0
M  V30 58 H -1.097842 -8.594718 0.296830 0
M  V30 59 H -1.263137 -10.674064 -1.090456 0
M  V30 60 H -0.083552 -10.740641 -3.294044 0
M  V30 61 H 1.352617 -6.781320 -2.698012 0
M  V30 62 H -0.563831 -3.940483 0.230674 0
M  V30 63 H -0.580205 -1.774638 1.304097 0
M  V30 END ATOM
M  V30 BEGIN BOND
M  V30 1 1 1 2
M  V30 2 2 2 3
M  V30 3 1 3 4
M  V30 4 2 4 5
M  V30 5 1 5 6
M  V30 6 2 6 7
M  V30 7 1 6 8
M  V30 8 1 8 9
M  V30 9 2 9 10
M  V30 10 1 10 11
M  V30 11 2 11 12
M  V30 12 1 12 13
M  V30 13 1 13 14
M  V30 14 2 14 15
M  V30 15 1 15 16
M  V30 16 2 16 17
M  V30 17 1 17 18
M  V30 18 2 18 19
M  V30 19 2 13 20
M  V30 20 1 5 21
M  V30 21 2 21 22
M  V30 22 1 22 23
M  V30 23 2 23 24
M  V30 24 1 24 25
M  V30 25 2 25 26
M  V30 26 1 26 27
M  V30 27 2 27 28
M  V30 28 1 27 29
M  V30 29 1 29 30
M  V30 30 2 30 31
M  V30 31 1 31 32
M  V30 32 2 32 33
M  V30 33 1 33 34
M  V30 34 1 34 35
M  V30 35 3 35 36
M  V30 36 2 34 37
M  V30 37 1 26 38
M  V30 38 2 38 39
M  V30 39 1 22 2
M  V30 40 1 39 23
M  V30 41 1 20 9
M  V30 42 1 37 30
M  V30 43 1 19 14
M  V30 44 1 1 40
M  V30 45 1 1 41
M  V30 46 1 1 42
M  V30 47 1 3 43
M  V30 48 1 4 44
M  V30 49 1 8 45
M  V30 50 1 10 46
M  V30 51 1 11 47
M  V30 52 1 12 48
M  V30 53 1 15 49
M  V30 54 1 16 50
M  V30 55 1 17 51
M  V30 56 1 18 52
M  V30 57 1 20 53
M  V30 58 1 21 54
M  V30 59 1 24 55
M  V30 60 1 25 56
M  V30 61 1 29 57
M  V30 62 1 31 58
M  V30 63 1 32 59
M  V30 64 1 33 60
M  V30 65 1 37 61
M  V30 66 1 38 62
M  V30 67 1 39 63
M  V30 END BOND
M  V30 END CTAB
M  END
>  <Dataset>  (78) 
ChEMBL_Kinases

>  <Ligand_Instance>  (78) 
nan

>  <PDB_ID>  (78) 
nan

>  <Standardized_SMILES>  (78) 
Cc1ccc(C(=O)Nc2cccc(-c3ccccn3)c2)cc1-c1ccc(C(=O)Nc2cccc(C#N)c2)cc1

>  <Name>  (78) 
nan

>  <Pocket>  (78) 
nan

>  <ATP_Site>  (78) 
nan

>  <Peripheral>  (78) 
nan

>  <Num_H_Atoms_ProtBoundConf>  (78) 
nan

>  <Num_Resolved_Atoms>  (78) 
nan

>  <Num_Not_Resolved_Atoms>  (78) 
nan

$$$$
CHEMBL518503
     RDKit          3D

  0  0  0  0  0  0  0  0  0  0999 V3000
M  V30 BEGIN CTAB
M  V30 COUNTS 57 58 0 0 0
M  V30 BEGIN ATOM
M  V30 1 C 1.307855 -4.625543 2.854019 0
M  V30 2 C 0.846219 -4.717296 1.365284 0
M  V30 3 C 0.528409 -3.284700 1.015991 0
M  V30 4 C 1.727639 -2.405900 1.209247 0
M  V30 5 O 2.929678 -2.386974 1.571916 0
M  V30 6 O 1.370680 -1.137563 0.851811 0
M  V30 7 C 2.188641 0.016711 0.878623 0
M  V30 8 C 1.344159 1.172598 0.382292 0
M  V30 9 C 0.901243 0.902164 -1.017525 0
M  V30 10 O 1.935550 0.676514 -1.907895 0
M  V30 11 C 2.060935 2.508054 0.473655 0
M  V30 12 C 0.865542 3.415644 0.277727 0
M  V30 13 C 0.578729 4.506124 -0.409860 0
M  V30 14 C -0.703797 5.193353 -0.415309 0
M  V30 15 C -1.855632 4.430416 -0.549033 0
M  V30 16 C -3.133850 4.981937 -0.555381 0
M  V30 17 C -3.233779 6.353299 -0.421809 0
M  V30 18 Cl -4.787822 7.173978 -0.413820 0
M  V30 19 C -2.115399 7.149768 -0.286870 0
M  V30 20 C -0.870206 6.557207 -0.285867 0
M  V30 21 C -0.088615 2.752620 1.194414 0
M  V30 22 O -0.983653 3.409457 1.846804 0
M  V30 23 O 0.192979 1.381595 1.178654 0
M  V30 24 C -0.322323 -5.628466 1.405434 0
M  V30 25 C -1.051361 -5.978042 0.181542 0
M  V30 26 C -1.711968 -4.858089 -0.572689 0
M  V30 27 C -2.187153 -6.929781 0.591372 0
M  V30 28 C -0.218381 -6.746740 -0.829928 0
M  V30 29 H 1.303268 -5.696545 3.190748 0
M  V30 30 H 2.297560 -4.179290 2.924266 0
M  V30 31 H 0.495821 -4.117046 3.387915 0
M  V30 32 H 1.724743 -5.101892 0.851730 0
M  V30 33 H 0.256279 -3.287069 -0.076385 0
M  V30 34 H -0.330057 -2.869272 1.556428 0
M  V30 35 H 3.106962 -0.064944 0.295581 0
M  V30 36 H 2.493011 0.294388 1.918855 0
M  V30 37 H 0.350215 1.782296 -1.382372 0
M  V30 38 H 0.172913 0.056522 -1.013132 0
M  V30 39 H 2.827543 0.866799 -1.536434 0
M  V30 40 H 2.451190 2.669018 1.477347 0
M  V30 41 H 2.799685 2.681171 -0.307079 0
M  V30 42 H 1.450262 4.843156 -0.995686 0
M  V30 43 H -1.902811 3.338411 -0.674801 0
M  V30 44 H -4.045662 4.418562 -0.655902 0
M  V30 45 H -2.210725 8.240319 -0.181182 0
M  V30 46 H 0.049243 7.112759 -0.186131 0
M  V30 47 H -1.083200 -5.112835 2.086841 0
M  V30 48 H -0.088062 -6.554781 2.026581 0
M  V30 49 H -2.719284 -5.181698 -0.971460 0
M  V30 50 H -1.154745 -4.501488 -1.455247 0
M  V30 51 H -1.944451 -3.978200 0.064649 0
M  V30 52 H -1.887656 -7.515280 1.476181 0
M  V30 53 H -3.011440 -6.266015 0.934202 0
M  V30 54 H -2.585419 -7.506021 -0.240364 0
M  V30 55 H 0.617558 -6.147138 -1.214699 0
M  V30 56 H -0.905764 -6.863542 -1.719223 0
M  V30 57 H 0.020717 -7.756440 -0.502933 0
M  V30 END ATOM
M  V30 BEGIN BOND
M  V30 1 1 1 2
M  V30 2 1 2 3
M  V30 3 1 3 4
M  V30 4 2 4 5
M  V30 5 1 4 6
M  V30 6 1 6 7
M  V30 7 1 7 8
M  V30 8 1 8 9
M  V30 9 1 9 10
M  V30 10 1 8 11
M  V30 11 1 11 12
M  V30 12 2 12 13
M  V30 13 1 13 14
M  V30 14 2 14 15
M  V30 15 1 15 16
M  V30 16 2 16 17
M  V30 17 1 17 18
M  V30 18 1 17 19
M  V30 19 2 19 20
M  V30 20 1 12 21
M  V30 21 2 21 22
M  V30 22 1 21 23
M  V30 23 1 2 24
M  V30 24 1 24 25
M  V30 25 1 25 26
M  V30 26 1 25 27
M  V30 27 1 25 28
M  V30 28 1 23 8
M  V30 29 1 20 14
M  V30 30 1 1 29
M  V30 31 1 1 30
M  V30 32 1 1 31
M  V30 33 1 2 32
M  V30 34 1 3 33
M  V30 35 1 3 34
M  V30 36 1 7 35
M  V30 37 1 7 36
M  V30 38 1 9 37
M  V30 39 1 9 38
M  V30 40 1 10 39
M  V30 41 1 11 40
M  V30 42 1 11 41
M  V30 43 1 13 42
M  V30 44 1 15 43
M  V30 45 1 16 44
M  V30 46 1 19 45
M  V30 47 1 20 46
M  V30 48 1 24 47
M  V30 49 1 24 48
M  V30 50 1 26 49
M  V30 51 1 26 50
M  V30 52 1 26 51
M  V30 53 1 27 52
M  V30 54 1 27 53
M  V30 55 1 27 54
M  V30 56 1 28 55
M  V30 57 1 28 56
M  V30 58 1 28 57
M  V30 END BOND
M  V30 END CTAB
M  END
>  <Dataset>  (79) 
ChEMBL_Kinases

>  <Ligand_Instance>  (79) 
nan

>  <PDB_ID>  (79) 
nan

>  <Standardized_SMILES>  (79) 
CC(CC(=O)OCC1(CO)C/C(=C/c2ccc(Cl)cc2)C(=O)O1)CC(C)(C)C

>  <Name>  (79) 
nan

>  <Pocket>  (79) 
nan

>  <ATP_Site>  (79) 
nan

>  <Peripheral>  (79) 
nan

>  <Num_H_Atoms_ProtBoundConf>  (79) 
nan

>  <Num_Resolved_Atoms>  (79) 
nan

>  <Num_Not_Resolved_Atoms>  (79) 
nan

$$$$
CHEMBL514582
     RDKit          3D

  0  0  0  0  0  0  0  0  0  0999 V3000
M  V30 BEGIN CTAB
M  V30 COUNTS 47 49 0 0 0
M  V30 BEGIN ATOM
M  V30 1 N 2.814653 -1.822281 7.531629 0
M  V30 2 C 3.229551 -0.855049 6.605348 0
M  V30 3 O 4.249124 -0.341347 7.096825 0
M  V30 4 C 2.641086 -0.484493 5.330781 0
M  V30 5 C 3.256912 0.510958 4.624319 0
M  V30 6 C 2.707010 0.882328 3.396609 0
M  V30 7 C 1.571926 0.248633 2.927385 0
M  V30 8 C 0.988788 0.632220 1.643089 0
M  V30 9 C 1.052674 1.921456 1.155764 0
M  V30 10 C 0.515048 2.329688 -0.052810 0
M  V30 11 C 0.607752 3.707939 -0.527894 0
M  V30 12 N 1.277460 4.660275 0.286555 0
M  V30 13 O 0.079231 3.954068 -1.641189 0
M  V30 14 C -0.122003 1.361508 -0.800035 0
M  V30 15 N -0.703068 1.684923 -2.051130 0
M  V30 16 C -0.225330 0.053230 -0.378177 0
M  V30 17 C -0.886490 -1.019366 -1.118359 0
M  V30 18 C -0.418061 -2.297447 -1.336404 0
M  V30 19 C -1.148644 -3.219092 -2.056193 0
M  V30 20 C -2.394505 -2.864909 -2.583495 0
M  V30 21 S -3.216450 -4.128998 -3.474533 0
M  V30 22 N -4.220058 -5.073090 -2.401766 0
M  V30 23 O -2.292720 -4.995947 -4.247358 0
M  V30 24 O -4.203248 -3.424512 -4.396323 0
M  V30 25 C -2.864934 -1.587025 -2.366647 0
M  V30 26 C -2.133415 -0.665933 -1.646489 0
M  V30 27 C 0.341567 -0.267913 0.844562 0
M  V30 28 C 0.997408 -0.757847 3.701160 0
M  V30 29 C 1.508329 -1.148599 4.909283 0
M  V30 30 H 2.185076 -1.570140 8.316710 0
M  V30 31 H 2.857168 -2.809751 7.828737 0
M  V30 32 H 4.140830 0.997911 4.999389 0
M  V30 33 H 3.208129 1.681442 2.838168 0
M  V30 34 H 1.568917 2.658704 1.783508 0
M  V30 35 H 2.151711 5.022705 -0.152130 0
M  V30 36 H 1.114924 5.093984 1.222757 0
M  V30 37 H -1.509628 2.265646 -2.347756 0
M  V30 38 H -0.454350 1.407262 -3.037326 0
M  V30 39 H 0.553823 -2.496450 -0.896860 0
M  V30 40 H -0.656435 -4.185387 -2.148433 0
M  V30 41 H -4.943236 -5.553586 -2.997210 0
M  V30 42 H -3.628838 -5.858242 -1.993823 0
M  V30 43 H -3.839519 -1.381668 -2.805107 0
M  V30 44 H -2.623670 0.293558 -1.555477 0
M  V30 45 H 0.273952 -1.297308 1.202193 0
M  V30 46 H 0.098866 -1.278696 3.358117 0
M  V30 47 H 1.082774 -1.927632 5.531629 0
M  V30 END ATOM
M  V30 BEGIN BOND
M  V30 1 1 1 2
M  V30 2 2 2 3
M  V30 3 1 2 4
M  V30 4 2 4 5
M  V30 5 1 5 6
M  V30 6 2 6 7
M  V30 7 1 7 8
M  V30 8 2 8 9
M  V30 9 1 9 10
M  V30 10 1 10 11
M  V30 11 1 11 12
M  V30 12 2 11 13
M  V30 13 2 10 14
M  V30 14 1 14 15
M  V30 15 1 14 16
M  V30 16 1 16 17
M  V30 17 2 17 18
M  V30 18 1 18 19
M  V30 19 2 19 20
M  V30 20 1 20 21
M  V30 21 1 21 22
M  V30 22 2 21 23
M  V30 23 2 21 24
M  V30 24 1 20 25
M  V30 25 2 25 26
M  V30 26 2 16 27
M  V30 27 1 7 28
M  V30 28 2 28 29
M  V30 29 1 29 4
M  V30 30 1 27 8
M  V30 31 1 26 17
M  V30 32 1 1 30
M  V30 33 1 1 31
M  V30 34 1 5 32
M  V30 35 1 6 33
M  V30 36 1 9 34
M  V30 37 1 12 35
M  V30 38 1 12 36
M  V30 39 1 15 37
M  V30 40 1 15 38
M  V30 41 1 18 39
M  V30 42 1 19 40
M  V30 43 1 22 41
M  V30 44 1 22 42
M  V30 45 1 25 43
M  V30 46 1 26 44
M  V30 47 1 27 45
M  V30 48 1 28 46
M  V30 49 1 29 47
M  V30 END BOND
M  V30 END CTAB
M  END
>  <Dataset>  (80) 
ChEMBL_Kinases

>  <Ligand_Instance>  (80) 
nan

>  <PDB_ID>  (80) 
nan

>  <Standardized_SMILES>  (80) 
NC(=O)c1ccc(-c2cc(C(N)=O)c(N)c(-c3ccc(S(N)(=O)=O)cc3)c2)cc1

>  <Name>  (80) 
nan

>  <Pocket>  (80) 
nan

>  <ATP_Site>  (80) 
nan

>  <Peripheral>  (80) 
nan

>  <Num_H_Atoms_ProtBoundConf>  (80) 
nan

>  <Num_Resolved_Atoms>  (80) 
nan

>  <Num_Not_Resolved_Atoms>  (80) 
nan

$$$$
CHEMBL515063
     RDKit          3D

  0  0  0  0  0  0  0  0  0  0999 V3000
M  V30 BEGIN CTAB
M  V30 COUNTS 59 61 0 0 0
M  V30 BEGIN ATOM
M  V30 1 C 0.906702 3.841763 4.695489 0
M  V30 2 C 1.182000 2.411439 4.313167 0
M  V30 3 C 0.499016 1.489692 5.295622 0
M  V30 4 C 1.893525 1.869805 3.307964 0
M  V30 5 C 2.489341 0.835181 2.468921 0
M  V30 6 C 2.155827 0.852157 1.049877 0
M  V30 7 C 3.148922 1.397114 0.216715 0
M  V30 8 C 3.094905 1.541976 -1.134500 0
M  V30 9 C 1.942909 1.110990 -1.772292 0
M  V30 10 O 1.854157 1.243782 -3.147758 0
M  V30 11 C 0.946722 0.570058 -0.979495 0
M  V30 12 C -0.225246 0.182395 -1.721980 0
M  V30 13 O -0.331772 0.318891 -2.946849 0
M  V30 14 C 1.022929 0.431332 0.390284 0
M  V30 15 C -0.029984 -0.116788 1.190036 0
M  V30 16 O -0.011054 0.094536 2.428807 0
M  V30 17 C -1.223091 -0.921561 0.957438 0
M  V30 18 C -2.470876 -0.488320 1.422794 0
M  V30 19 C -3.688796 -1.106784 1.257032 0
M  V30 20 C -4.926625 -0.510373 1.818378 0
M  V30 21 C -3.640956 -2.285911 0.547288 0
M  V30 22 C -2.448565 -2.778391 0.056754 0
M  V30 23 C -1.245642 -2.131529 0.242015 0
M  V30 24 O -0.042387 -2.612522 -0.240453 0
M  V30 25 C 0.055668 -3.888052 -0.777576 0
M  V30 26 C 0.485872 -3.957774 -2.217228 0
M  V30 27 C -0.480106 -3.334482 -3.185027 0
M  V30 28 C 1.837661 -3.370882 -2.434981 0
M  V30 29 O 0.523826 -5.325026 -2.543009 0
M  V30 30 C -1.166566 -4.697211 -0.524447 0
M  V30 31 O -2.365076 -3.966532 -0.662563 0
M  V30 32 H -0.145856 4.092898 4.569802 0
M  V30 33 H 1.304971 4.006327 5.704908 0
M  V30 34 H 1.541077 4.459417 4.003719 0
M  V30 35 H 0.673068 1.819529 6.320482 0
M  V30 36 H -0.588666 1.417075 5.087303 0
M  V30 37 H 0.989232 0.474180 5.220676 0
M  V30 38 H 2.264839 2.759070 2.763083 0
M  V30 39 H 2.224174 -0.208322 2.834216 0
M  V30 40 H 3.613246 0.832689 2.601882 0
M  V30 41 H 4.094195 1.762362 0.650916 0
M  V30 42 H 3.899591 1.971241 -1.712558 0
M  V30 43 H 2.326834 0.526106 -3.714285 0
M  V30 44 H -1.195676 -0.203633 -1.897851 0
M  V30 45 H -2.451455 0.449888 1.978146 0
M  V30 46 H -5.115528 -0.956960 2.826863 0
M  V30 47 H -4.841484 0.590481 1.860762 0
M  V30 48 H -5.813640 -0.739846 1.191628 0
M  V30 49 H -4.567707 -2.825789 0.379500 0
M  V30 50 H 0.888816 -4.400269 -0.208706 0
M  V30 51 H -1.257210 -4.066915 -3.529318 0
M  V30 52 H 0.092960 -3.098288 -4.111063 0
M  V30 53 H -0.930618 -2.389273 -2.843634 0
M  V30 54 H 2.518413 -3.442229 -1.584346 0
M  V30 55 H 1.729704 -2.322303 -2.824556 0
M  V30 56 H 2.301747 -3.928638 -3.294453 0
M  V30 57 H -0.313399 -5.593196 -2.995533 0
M  V30 58 H -1.128624 -5.078041 0.517043 0
M  V30 59 H -1.187378 -5.621472 -1.155501 0
M  V30 END ATOM
M  V30 BEGIN BOND
M  V30 1 1 1 2
M  V30 2 1 2 3
M  V30 3 2 2 4 CFG=2
M  V30 4 1 4 5
M  V30 5 1 5 6
M  V30 6 2 6 7
M  V30 7 1 7 8
M  V30 8 2 8 9
M  V30 9 1 9 10
M  V30 10 1 9 11
M  V30 11 1 11 12
M  V30 12 2 12 13
M  V30 13 2 11 14
M  V30 14 1 14 15
M  V30 15 2 15 16
M  V30 16 1 15 17
M  V30 17 2 17 18
M  V30 18 1 18 19
M  V30 19 1 19 20
M  V30 20 2 19 21
M  V30 21 1 21 22
M  V30 22 2 22 23
M  V30 23 1 23 24
M  V30 24 1 24 25
M  V30 25 1 25 26
M  V30 26 1 26 27
M  V30 27 1 26 28
M  V30 28 1 26 29
M  V30 29 1 25 30
M  V30 30 1 30 31
M  V30 31 1 14 6
M  V30 32 1 23 17
M  V30 33 1 31 22
M  V30 34 1 1 32
M  V30 35 1 1 33
M  V30 36 1 1 34
M  V30 37 1 3 35
M  V30 38 1 3 36
M  V30 39 1 3 37
M  V30 40 1 4 38
M  V30 41 1 5 39
M  V30 42 1 5 40
M  V30 43 1 7 41
M  V30 44 1 8 42
M  V30 45 1 10 43
M  V30 46 1 12 44
M  V30 47 1 18 45
M  V30 48 1 20 46
M  V30 49 1 20 47
M  V30 50 1 20 48
M  V30 51 1 21 49
M  V30 52 1 25 50
M  V30 53 1 27 51
M  V30 54 1 27 52
M  V30 55 1 27 53
M  V30 56 1 28 54
M  V30 57 1 28 55
M  V30 58 1 28 56
M  V30 59 1 29 57
M  V30 60 1 30 58
M  V30 61 1 30 59
M  V30 END BOND
M  V30 END CTAB
M  END
>  <Dataset>  (81) 
ChEMBL_Kinases

>  <Ligand_Instance>  (81) 
nan

>  <PDB_ID>  (81) 
nan

>  <Standardized_SMILES>  (81) 
CC(C)=CCc1ccc(O)c(C=O)c1C(=O)c1cc(C)cc2c1OC(C(C)(C)O)CO2

>  <Name>  (81) 
TENELLONE B

>  <Pocket>  (81) 
nan

>  <ATP_Site>  (81) 
nan

>  <Peripheral>  (81) 
nan

>  <Num_H_Atoms_ProtBoundConf>  (81) 
nan

>  <Num_Resolved_Atoms>  (81) 
nan

>  <Num_Not_Resolved_Atoms>  (81) 
nan

$$$$
CHEMBL515318
     RDKit          3D

  0  0  0  0  0  0  0  0  0  0999 V3000
M  V30 BEGIN CTAB
M  V30 COUNTS 60 63 0 0 0
M  V30 BEGIN ATOM
M  V30 1 C -0.986095 -4.043822 4.599427 0
M  V30 2 C -0.439850 -2.722907 4.221931 0
M  V30 3 C 0.205518 -1.854031 5.072605 0
M  V30 4 C 0.710512 -0.614899 4.692794 0
M  V30 5 C 0.551808 -0.232698 3.364552 0
M  V30 6 N 0.995471 1.001130 2.767999 0
M  V30 7 C 2.330345 1.154426 2.257186 0
M  V30 8 O 3.018213 0.129479 2.403999 0
M  V30 9 C 2.675389 2.441276 1.664638 0
M  V30 10 C 4.034545 2.708189 1.444641 0
M  V30 11 C 4.394219 3.900242 0.850875 0
M  V30 12 N 3.441977 4.791380 0.489619 0
M  V30 13 C 2.141504 4.537375 0.699702 0
M  V30 14 N 1.238290 5.537779 0.257468 0
M  V30 15 C 1.161061 6.662033 1.172823 0
M  V30 16 C 0.432426 5.502755 -0.973031 0
M  V30 17 C 1.734716 3.368408 1.287311 0
M  V30 18 C -0.107686 -1.134282 2.522209 0
M  V30 19 C -0.616824 -2.379327 2.901853 0
M  V30 20 C -1.250448 -3.128815 1.817814 0
M  V30 21 C -2.189406 -2.367576 1.119117 0
M  V30 22 C -2.862656 -2.922654 0.020460 0
M  V30 23 C -2.509860 -4.243846 -0.278696 0
M  V30 24 C -3.265814 -4.695717 -1.472001 0
M  V30 25 O -4.448984 -5.053596 -1.785527 0
M  V30 26 N -2.431541 -4.750712 -2.653915 0
M  V30 27 C -2.612180 -5.094377 -4.019691 0
M  V30 28 C -1.440943 -4.991024 -4.928459 0
M  V30 29 C -0.790896 -3.648313 -5.068540 0
M  V30 30 C -0.025360 -4.798372 -4.457928 0
M  V30 31 C -1.591177 -5.015689 0.394243 0
M  V30 32 C -0.963752 -4.424015 1.458722 0
M  V30 33 H -0.228246 -4.854318 4.584356 0
M  V30 34 H -1.337443 -3.926970 5.660883 0
M  V30 35 H -1.912628 -4.298831 4.034144 0
M  V30 36 H 0.330768 -2.152902 6.110877 0
M  V30 37 H 1.211315 0.075703 5.323955 0
M  V30 38 H 0.237562 1.720836 2.766287 0
M  V30 39 H 4.805969 1.995937 1.730716 0
M  V30 40 H 5.439821 4.157108 0.661330 0
M  V30 41 H 1.048106 6.263918 2.200241 0
M  V30 42 H 2.119967 7.230413 1.194010 0
M  V30 43 H 0.293915 7.309720 0.974544 0
M  V30 44 H 0.192414 6.507211 -1.321288 0
M  V30 45 H 0.957506 4.939705 -1.767139 0
M  V30 46 H -0.530345 4.978828 -0.739676 0
M  V30 47 H 0.690937 3.192498 1.442896 0
M  V30 48 H -0.224134 -0.812600 1.471094 0
M  V30 49 H -2.438374 -1.327083 1.382468 0
M  V30 50 H -3.580629 -2.309473 -0.499275 0
M  V30 51 H -1.440386 -4.468645 -2.518920 0
M  V30 52 H -3.029678 -6.124993 -4.103406 0
M  V30 53 H -3.397980 -4.397182 -4.445992 0
M  V30 54 H -1.615171 -5.482047 -5.916810 0
M  V30 55 H -1.073550 -2.815870 -4.360568 0
M  V30 56 H -0.449312 -3.294805 -6.044528 0
M  V30 57 H 0.775640 -5.242923 -5.116986 0
M  V30 58 H 0.211507 -4.836551 -3.389457 0
M  V30 59 H -1.411372 -6.027560 0.066464 0
M  V30 60 H -0.222023 -4.961893 2.040449 0
M  V30 END ATOM
M  V30 BEGIN BOND
M  V30 1 1 1 2
M  V30 2 2 2 3
M  V30 3 1 3 4
M  V30 4 2 4 5
M  V30 5 1 5 6
M  V30 6 1 6 7
M  V30 7 2 7 8
M  V30 8 1 7 9
M  V30 9 2 9 10
M  V30 10 1 10 11
M  V30 11 2 11 12
M  V30 12 1 12 13
M  V30 13 1 13 14
M  V30 14 1 14 15
M  V30 15 1 14 16
M  V30 16 2 13 17
M  V30 17 1 5 18
M  V30 18 2 18 19
M  V30 19 1 19 20
M  V30 20 2 20 21
M  V30 21 1 21 22
M  V30 22 2 22 23
M  V30 23 1 23 24
M  V30 24 2 24 25
M  V30 25 1 24 26
M  V30 26 1 26 27
M  V30 27 1 27 28
M  V30 28 1 28 29
M  V30 29 1 29 30
M  V30 30 1 23 31
M  V30 31 2 31 32
M  V30 32 1 19 2
M  V30 33 1 32 20
M  V30 34 1 17 9
M  V30 35 1 30 28
M  V30 36 1 1 33
M  V30 37 1 1 34
M  V30 38 1 1 35
M  V30 39 1 3 36
M  V30 40 1 4 37
M  V30 41 1 6 38
M  V30 42 1 10 39
M  V30 43 1 11 40
M  V30 44 1 15 41
M  V30 45 1 15 42
M  V30 46 1 15 43
M  V30 47 1 16 44
M  V30 48 1 16 45
M  V30 49 1 16 46
M  V30 50 1 17 47
M  V30 51 1 18 48
M  V30 52 1 21 49
M  V30 53 1 22 50
M  V30 54 1 26 51
M  V30 55 1 27 52
M  V30 56 1 27 53
M  V30 57 1 28 54
M  V30 58 1 29 55
M  V30 59 1 29 56
M  V30 60 1 30 57
M  V30 61 1 30 58
M  V30 62 1 31 59
M  V30 63 1 32 60
M  V30 END BOND
M  V30 END CTAB
M  END
>  <Dataset>  (82) 
ChEMBL_Kinases

>  <Ligand_Instance>  (82) 
nan

>  <PDB_ID>  (82) 
nan

>  <Standardized_SMILES>  (82) 
Cc1ccc(NC(=O)c2ccnc(N(C)C)c2)cc1-c1ccc(C(=O)NCC2CC2)cc1

>  <Name>  (82) 
nan

>  <Pocket>  (82) 
nan

>  <ATP_Site>  (82) 
nan

>  <Peripheral>  (82) 
nan

>  <Num_H_Atoms_ProtBoundConf>  (82) 
nan

>  <Num_Resolved_Atoms>  (82) 
nan

>  <Num_Not_Resolved_Atoms>  (82) 
nan

$$$$
CHEMBL515352
     RDKit          3D

  0  0  0  0  0  0  0  0  0  0999 V3000
M  V30 BEGIN CTAB
M  V30 COUNTS 60 65 0 0 0
M  V30 BEGIN ATOM
M  V30 1 O 1.394796 1.823090 2.610679 0
M  V30 2 C 0.850490 0.788115 3.073070 0
M  V30 3 C -0.367142 -0.028392 3.180407 0
M  V30 4 C -1.563125 0.482340 2.469002 0
M  V30 5 N -1.457958 0.637602 1.053803 0
M  V30 6 C -1.128628 1.611056 0.186401 0
M  V30 7 C -0.775109 2.904379 0.535769 0
M  V30 8 C -0.453384 3.857992 -0.407561 0
M  V30 9 C -0.496836 3.468864 -1.749907 0
M  V30 10 O -0.175361 4.417826 -2.711233 0
M  V30 11 C -0.854820 2.171555 -2.037151 0
M  V30 12 C -1.177287 1.209789 -1.128422 0
M  V30 13 C -1.560782 -0.096249 -1.087534 0
M  V30 14 C -1.767760 -0.984512 -2.095069 0
M  V30 15 C -2.158174 -2.270592 -1.817748 0
M  V30 16 C -2.344883 -2.675142 -0.507688 0
M  V30 17 C -2.759065 -4.030645 -0.164138 0
M  V30 18 C -1.811430 -5.025299 0.062867 0
M  V30 19 C -2.274764 -6.295042 0.386223 0
M  V30 20 C -3.632288 -6.554040 0.477522 0
M  V30 21 C -4.533814 -5.531591 0.242716 0
M  V30 22 C -4.130096 -4.254019 -0.081380 0
M  V30 23 Cl -5.269086 -2.961991 -0.378100 0
M  V30 24 C -2.125458 -1.746726 0.486651 0
M  V30 25 C -1.726597 -0.426604 0.238138 0
M  V30 26 C -2.336625 -3.095197 -3.012887 0
M  V30 27 O -2.685658 -4.301315 -3.079855 0
M  V30 28 N -2.016426 -2.192440 -4.088722 0
M  V30 29 C -1.680114 -0.940712 -3.524173 0
M  V30 30 O -1.379654 -0.058483 -4.336938 0
M  V30 31 N 1.915293 0.168162 3.804324 0
M  V30 32 S 3.486403 0.904489 3.863581 0
M  V30 33 O 3.407425 2.381476 3.744706 0
M  V30 34 O 4.192395 0.477221 5.108454 0
M  V30 35 C 4.402462 0.267151 2.490596 0
M  V30 36 C 5.152061 -0.885167 2.655066 0
M  V30 37 C 5.855022 -1.356951 1.566229 0
M  V30 38 C 5.833617 -0.728519 0.345637 0
M  V30 39 C 5.068770 0.431671 0.209606 0
M  V30 40 C 4.339003 0.952187 1.277198 0
M  V30 41 H -0.142306 -1.090671 2.857020 0
M  V30 42 H -0.620842 -0.142678 4.274557 0
M  V30 43 H -2.415859 -0.206841 2.742435 0
M  V30 44 H -1.831405 1.492214 2.903511 0
M  V30 45 H -0.732654 3.235746 1.571934 0
M  V30 46 H -0.181015 4.859961 -0.107298 0
M  V30 47 H -0.880990 4.532073 -3.444752 0
M  V30 48 H -0.859068 1.972429 -3.079814 0
M  V30 49 H -0.767474 -4.809560 -0.011443 0
M  V30 50 H -1.532798 -7.064674 0.561697 0
M  V30 51 H -3.982845 -7.553388 0.731733 0
M  V30 52 H -5.600036 -5.768182 0.322630 0
M  V30 53 H -2.278342 -2.087702 1.505064 0
M  V30 54 H -2.069812 -2.553165 -5.082889 0
M  V30 55 H 1.856755 -0.750405 4.349863 0
M  V30 56 H 5.150067 -1.357928 3.626116 0
M  V30 57 H 6.432936 -2.265326 1.733817 0
M  V30 58 H 6.396510 -1.121658 -0.494882 0
M  V30 59 H 5.015423 0.969175 -0.732085 0
M  V30 60 H 3.745016 1.850281 1.177518 0
M  V30 END ATOM
M  V30 BEGIN BOND
M  V30 1 2 1 2
M  V30 2 1 2 3
M  V30 3 1 3 4
M  V30 4 1 4 5
M  V30 5 1 5 6
M  V30 6 2 6 7
M  V30 7 1 7 8
M  V30 8 2 8 9
M  V30 9 1 9 10
M  V30 10 1 9 11
M  V30 11 2 11 12
M  V30 12 1 12 13
M  V30 13 2 13 14
M  V30 14 1 14 15
M  V30 15 2 15 16
M  V30 16 1 16 17
M  V30 17 2 17 18
M  V30 18 1 18 19
M  V30 19 2 19 20
M  V30 20 1 20 21
M  V30 21 2 21 22
M  V30 22 1 22 23
M  V30 23 1 16 24
M  V30 24 2 24 25
M  V30 25 1 15 26
M  V30 26 2 26 27
M  V30 27 1 26 28
M  V30 28 1 28 29
M  V30 29 2 29 30
M  V30 30 1 2 31
M  V30 31 1 31 32
M  V30 32 2 32 33
M  V30 33 2 32 34
M  V30 34 1 32 35
M  V30 35 2 35 36
M  V30 36 1 36 37
M  V30 37 2 37 38
M  V30 38 1 38 39
M  V30 39 2 39 40
M  V30 40 1 25 5
M  V30 41 1 40 35
M  V30 42 1 12 6
M  V30 43 1 25 13
M  V30 44 1 29 14
M  V30 45 1 22 17
M  V30 46 1 3 41
M  V30 47 1 3 42
M  V30 48 1 4 43
M  V30 49 1 4 44
M  V30 50 1 7 45
M  V30 51 1 8 46
M  V30 52 1 10 47
M  V30 53 1 11 48
M  V30 54 1 18 49
M  V30 55 1 19 50
M  V30 56 1 20 51
M  V30 57 1 21 52
M  V30 58 1 24 53
M  V30 59 1 28 54
M  V30 60 1 31 55
M  V30 61 1 36 56
M  V30 62 1 37 57
M  V30 63 1 38 58
M  V30 64 1 39 59
M  V30 65 1 40 60
M  V30 END BOND
M  V30 END CTAB
M  END
>  <Dataset>  (83) 
ChEMBL_Kinases

>  <Ligand_Instance>  (83) 
nan

>  <PDB_ID>  (83) 
nan

>  <Standardized_SMILES>  (83) 
O=C(CCn1c2ccc(O)cc2c2c3c(c(-c4ccccc4Cl)cc21)C(=O)NC3=O)NS(=O)(=O)c1ccccc1

>  <Name>  (83) 
nan

>  <Pocket>  (83) 
nan

>  <ATP_Site>  (83) 
nan

>  <Peripheral>  (83) 
nan

>  <Num_H_Atoms_ProtBoundConf>  (83) 
nan

>  <Num_Resolved_Atoms>  (83) 
nan

>  <Num_Not_Resolved_Atoms>  (83) 
nan

$$$$
CHEMBL515407
     RDKit          3D

  0  0  0  0  0  0  0  0  0  0999 V3000
M  V30 BEGIN CTAB
M  V30 COUNTS 40 43 0 0 0
M  V30 BEGIN ATOM
M  V30 1 O 2.590939 -2.845747 2.032300 0
M  V30 2 C 2.051448 -2.544554 0.914352 0
M  V30 3 C 2.309937 -3.467138 -0.211223 0
M  V30 4 C 2.678342 -4.725275 0.278395 0
M  V30 5 C 2.951909 -5.694574 -0.648782 0
M  V30 6 C 2.859034 -5.410581 -1.994628 0
M  V30 7 C 2.491922 -4.155981 -2.450254 0
M  V30 8 C 2.201275 -3.128832 -1.563395 0
M  V30 9 C 1.821884 -1.835468 -2.150860 0
M  V30 10 C 0.551609 -1.240961 -1.623757 0
M  V30 11 C 0.608034 -0.787376 -0.229514 0
M  V30 12 C -0.112460 0.371753 -0.070715 0
M  V30 13 C -0.255440 1.057215 1.138623 0
M  V30 14 N -0.992192 2.256668 1.250402 0
M  V30 15 C -1.810339 2.819199 2.243286 0
M  V30 16 C -2.156257 2.256844 3.447389 0
M  V30 17 C -2.949957 2.838702 4.411091 0
M  V30 18 C -3.444864 4.098276 4.148968 0
M  V30 19 F -4.232682 4.715937 5.066938 0
M  V30 20 C -3.125189 4.702666 2.953580 0
M  V30 21 C -2.329634 4.064303 2.041243 0
M  V30 22 F -2.077784 4.762353 0.885827 0
M  V30 23 C 0.411077 0.444014 2.175032 0
M  V30 24 C 1.151079 -0.715126 2.094090 0
M  V30 25 C 1.241183 -1.327809 0.866884 0
M  V30 26 H 2.726207 -4.861704 1.337490 0
M  V30 27 H 3.237191 -6.669117 -0.279934 0
M  V30 28 H 3.074020 -6.172561 -2.731668 0
M  V30 29 H 2.405998 -3.887952 -3.500602 0
M  V30 30 H 2.601237 -1.061669 -2.124664 0
M  V30 31 H 1.632577 -2.034492 -3.236669 0
M  V30 32 H -0.330287 -1.912988 -1.774290 0
M  V30 33 H 0.340153 -0.365479 -2.279138 0
M  V30 34 H -0.616055 0.798199 -0.952155 0
M  V30 35 H -0.854036 2.810755 0.359963 0
M  V30 36 H -1.804710 1.274461 3.689151 0
M  V30 37 H -3.183963 2.340625 5.339659 0
M  V30 38 H -3.523517 5.691619 2.766012 0
M  V30 39 H 0.406627 0.861073 3.162684 0
M  V30 40 H 1.659165 -1.167724 2.924715 0
M  V30 END ATOM
M  V30 BEGIN BOND
M  V30 1 2 1 2
M  V30 2 1 2 3
M  V30 3 2 3 4
M  V30 4 1 4 5
M  V30 5 2 5 6
M  V30 6 1 6 7
M  V30 7 2 7 8
M  V30 8 1 8 9
M  V30 9 1 9 10
M  V30 10 1 10 11
M  V30 11 2 11 12
M  V30 12 1 12 13
M  V30 13 1 13 14
M  V30 14 1 14 15
M  V30 15 2 15 16
M  V30 16 1 16 17
M  V30 17 2 17 18
M  V30 18 1 18 19
M  V30 19 1 18 20
M  V30 20 2 20 21
M  V30 21 1 21 22
M  V30 22 2 13 23
M  V30 23 1 23 24
M  V30 24 2 24 25
M  V30 25 1 25 2
M  V30 26 1 8 3
M  V30 27 1 25 11
M  V30 28 1 21 15
M  V30 29 1 4 26
M  V30 30 1 5 27
M  V30 31 1 6 28
M  V30 32 1 7 29
M  V30 33 1 9 30
M  V30 34 1 9 31
M  V30 35 1 10 32
M  V30 36 1 10 33
M  V30 37 1 12 34
M  V30 38 1 14 35
M  V30 39 1 16 36
M  V30 40 1 17 37
M  V30 41 1 20 38
M  V30 42 1 23 39
M  V30 43 1 24 40
M  V30 END BOND
M  V30 END CTAB
M  END
>  <Dataset>  (84) 
ChEMBL_Kinases

>  <Ligand_Instance>  (84) 
nan

>  <PDB_ID>  (84) 
nan

>  <Standardized_SMILES>  (84) 
O=C1c2ccccc2CCc2cc(Nc3ccc(F)cc3F)ccc21

>  <Name>  (84) 
nan

>  <Pocket>  (84) 
nan

>  <ATP_Site>  (84) 
nan

>  <Peripheral>  (84) 
nan

>  <Num_H_Atoms_ProtBoundConf>  (84) 
nan

>  <Num_Resolved_Atoms>  (84) 
nan

>  <Num_Not_Resolved_Atoms>  (84) 
nan

$$$$
CHEMBL575469
     RDKit          3D

  0  0  0  0  0  0  0  0  0  0999 V3000
M  V30 BEGIN CTAB
M  V30 COUNTS 35 38 0 0 0
M  V30 BEGIN ATOM
M  V30 1 O 3.992216 0.359963 2.626599 0
M  V30 2 C 2.830865 -0.032170 2.359910 0
M  V30 3 N 2.437208 -1.299627 2.136928 0
M  V30 4 C 1.123991 -1.509369 1.862671 0
M  V30 5 C 0.867031 -2.960001 1.655508 0
M  V30 6 N 1.058832 -3.368302 0.285106 0
M  V30 7 C 0.359338 -3.075869 -0.895596 0
M  V30 8 C -0.769566 -2.295362 -0.992073 0
M  V30 9 C -1.458792 -1.994080 -2.147063 0
M  V30 10 C -0.958013 -2.533572 -3.310141 0
M  V30 11 C 0.167375 -3.322653 -3.280086 0
M  V30 12 C 0.800157 -3.578112 -2.088862 0
M  V30 13 N 0.249851 -0.532062 1.810613 0
M  V30 14 C 0.509759 0.768062 2.011988 0
M  V30 15 C 1.842854 0.938363 2.285432 0
M  V30 16 S 1.977562 2.762452 2.524617 0
M  V30 17 C 0.251262 3.078157 2.233313 0
M  V30 18 C -0.397660 4.269577 2.249423 0
M  V30 19 C -1.749497 4.327903 1.999194 0
M  V30 20 C -2.318396 3.099793 1.747217 0
M  V30 21 Cl -4.063217 3.122493 1.418107 0
M  V30 22 C -1.668148 1.899879 1.730366 0
M  V30 23 C -0.313014 1.859586 1.983329 0
M  V30 24 H 3.199731 -2.007711 2.199199 0
M  V30 25 H 1.384624 -3.588014 2.385913 0
M  V30 26 H -0.234966 -3.125990 1.884371 0
M  V30 27 H 1.895402 -4.005375 0.202436 0
M  V30 28 H -1.191916 -1.864826 -0.097284 0
M  V30 29 H -2.342249 -1.370510 -2.144969 0
M  V30 30 H -1.429648 -2.351682 -4.252058 0
M  V30 31 H 0.563934 -3.750253 -4.202512 0
M  V30 32 H 1.689054 -4.211097 -2.125777 0
M  V30 33 H 0.163195 5.163641 2.460760 0
M  V30 34 H -2.313763 5.247001 1.999520 0
M  V30 35 H -2.261231 1.008310 1.513192 0
M  V30 END ATOM
M  V30 BEGIN BOND
M  V30 1 2 1 2
M  V30 2 1 2 3
M  V30 3 1 3 4
M  V30 4 1 4 5
M  V30 5 1 5 6
M  V30 6 1 6 7
M  V30 7 2 7 8
M  V30 8 1 8 9
M  V30 9 2 9 10
M  V30 10 1 10 11
M  V30 11 2 11 12
M  V30 12 2 4 13
M  V30 13 1 13 14
M  V30 14 2 14 15
M  V30 15 1 15 16
M  V30 16 1 16 17
M  V30 17 2 17 18
M  V30 18 1 18 19
M  V30 19 2 19 20
M  V30 20 1 20 21
M  V30 21 1 20 22
M  V30 22 2 22 23
M  V30 23 1 15 2
M  V30 24 1 23 17
M  V30 25 1 12 7
M  V30 26 1 23 14
M  V30 27 1 3 24
M  V30 28 1 5 25
M  V30 29 1 5 26
M  V30 30 1 6 27
M  V30 31 1 8 28
M  V30 32 1 9 29
M  V30 33 1 10 30
M  V30 34 1 11 31
M  V30 35 1 12 32
M  V30 36 1 18 33
M  V30 37 1 19 34
M  V30 38 1 22 35
M  V30 END BOND
M  V30 END CTAB
M  END
>  <Dataset>  (85) 
ChEMBL_Kinases

>  <Ligand_Instance>  (85) 
nan

>  <PDB_ID>  (85) 
nan

>  <Standardized_SMILES>  (85) 
O=c1[nH]c(CNc2ccccc2)nc2c1sc1ccc(Cl)cc12

>  <Name>  (85) 
nan

>  <Pocket>  (85) 
nan

>  <ATP_Site>  (85) 
nan

>  <Peripheral>  (85) 
nan

>  <Num_H_Atoms_ProtBoundConf>  (85) 
nan

>  <Num_Resolved_Atoms>  (85) 
nan

>  <Num_Not_Resolved_Atoms>  (85) 
nan

$$$$
CHEMBL515466
     RDKit          3D

  0  0  0  0  0  0  0  0  0  0999 V3000
M  V30 BEGIN CTAB
M  V30 COUNTS 65 68 0 0 0
M  V30 BEGIN ATOM
M  V30 1 C -3.536103 -0.423058 4.131952 0
M  V30 2 C -2.239588 -0.063423 3.507823 0
M  V30 3 C -1.512361 0.997002 4.006937 0
M  V30 4 C -0.316943 1.288196 3.384631 0
M  V30 5 C 0.175690 0.582253 2.307462 0
M  V30 6 C 1.442108 0.880524 1.638553 0
M  V30 7 O 1.831888 0.181900 0.643683 0
M  V30 8 N 2.276444 1.944946 2.064176 0
M  V30 9 C 3.522256 2.300910 1.468572 0
M  V30 10 C 4.761912 1.809788 1.823212 0
M  V30 11 C 5.900622 2.247427 1.153098 0
M  V30 12 C 5.743715 3.185953 0.126103 0
M  V30 13 C 4.513855 3.687714 -0.241923 0
M  V30 14 C 4.499129 4.673617 -1.344829 0
M  V30 15 C 3.065237 5.098300 -1.585459 0
M  V30 16 C 4.995572 4.102411 -2.642924 0
M  V30 17 C 5.289484 5.917942 -1.003352 0
M  V30 18 C 3.394829 3.228410 0.449474 0
M  V30 19 C -0.588172 -0.470101 1.844381 0
M  V30 20 C -1.809599 -0.813824 2.434379 0
M  V30 21 C -2.511178 -1.948575 1.848528 0
M  V30 22 C -3.070750 -2.987945 2.556756 0
M  V30 23 C -3.739374 -4.054484 1.942657 0
M  V30 24 C -3.826106 -4.037763 0.569891 0
M  V30 25 C -4.528466 -5.165339 -0.011675 0
M  V30 26 O -4.988248 -6.045451 0.752650 0
M  V30 27 N -4.778161 -5.423199 -1.371014 0
M  V30 28 C -5.377708 -6.346942 -2.286150 0
M  V30 29 C -4.790888 -7.709732 -2.295164 0
M  V30 30 C -4.755712 -8.637935 -1.161038 0
M  V30 31 C -3.512368 -7.937339 -1.544082 0
M  V30 32 C -3.262572 -2.993221 -0.127904 0
M  V30 33 C -2.601564 -1.936815 0.463154 0
M  V30 34 H -4.188970 -0.923334 3.398396 0
M  V30 35 H -3.445812 -1.087098 5.009230 0
M  V30 36 H -4.084260 0.475482 4.494876 0
M  V30 37 H -1.880136 1.557780 4.844656 0
M  V30 38 H 0.249188 2.108525 3.767843 0
M  V30 39 H 2.021064 2.556779 2.869869 0
M  V30 40 H 4.758585 1.084908 2.635778 0
M  V30 41 H 6.841549 1.839530 1.461695 0
M  V30 42 H 6.652609 3.512267 -0.383319 0
M  V30 43 H 2.631118 5.544811 -0.645912 0
M  V30 44 H 2.992345 5.868935 -2.381680 0
M  V30 45 H 2.440780 4.251769 -1.957694 0
M  V30 46 H 5.938181 3.566979 -2.469036 0
M  V30 47 H 4.214493 3.486754 -3.165791 0
M  V30 48 H 5.209191 4.945650 -3.338845 0
M  V30 49 H 6.363583 5.715870 -0.884979 0
M  V30 50 H 4.892587 6.426104 -0.101288 0
M  V30 51 H 5.182496 6.629882 -1.844265 0
M  V30 52 H 2.455999 3.656434 0.118094 0
M  V30 53 H -0.218848 -1.037270 0.999139 0
M  V30 54 H -2.988171 -2.979982 3.620593 0
M  V30 55 H -4.137921 -4.811756 2.591128 0
M  V30 56 H -4.341484 -4.600688 -1.887217 0
M  V30 57 H -6.498809 -6.404381 -2.109203 0
M  V30 58 H -5.328524 -5.938577 -3.325306 0
M  V30 59 H -4.793848 -8.177151 -3.334073 0
M  V30 60 H -4.781970 -9.756439 -1.414961 0
M  V30 61 H -5.199546 -8.459264 -0.180690 0
M  V30 62 H -3.083871 -7.124934 -0.922425 0
M  V30 63 H -2.704105 -8.532631 -2.028487 0
M  V30 64 H -3.337375 -2.991561 -1.205368 0
M  V30 65 H -2.178061 -1.143345 -0.128529 0
M  V30 END ATOM
M  V30 BEGIN BOND
M  V30 1 1 1 2
M  V30 2 2 2 3
M  V30 3 1 3 4
M  V30 4 2 4 5
M  V30 5 1 5 6
M  V30 6 2 6 7
M  V30 7 1 6 8
M  V30 8 1 8 9
M  V30 9 2 9 10
M  V30 10 1 10 11
M  V30 11 2 11 12
M  V30 12 1 12 13
M  V30 13 1 13 14
M  V30 14 1 14 15
M  V30 15 1 14 16
M  V30 16 1 14 17
M  V30 17 2 13 18
M  V30 18 1 5 19
M  V30 19 2 19 20
M  V30 20 1 20 21
M  V30 21 2 21 22
M  V30 22 1 22 23
M  V30 23 2 23 24
M  V30 24 1 24 25
M  V30 25 2 25 26
M  V30 26 1 25 27
M  V30 27 1 27 28
M  V30 28 1 28 29
M  V30 29 1 29 30
M  V30 30 1 30 31
M  V30 31 1 24 32
M  V30 32 2 32 33
M  V30 33 1 20 2
M  V30 34 1 33 21
M  V30 35 1 18 9
M  V30 36 1 31 29
M  V30 37 1 1 34
M  V30 38 1 1 35
M  V30 39 1 1 36
M  V30 40 1 3 37
M  V30 41 1 4 38
M  V30 42 1 8 39
M  V30 43 1 10 40
M  V30 44 1 11 41
M  V30 45 1 12 42
M  V30 46 1 15 43
M  V30 47 1 15 44
M  V30 48 1 15 45
M  V30 49 1 16 46
M  V30 50 1 16 47
M  V30 51 1 16 48
M  V30 52 1 17 49
M  V30 53 1 17 50
M  V30 54 1 17 51
M  V30 55 1 18 52
M  V30 56 1 19 53
M  V30 57 1 22 54
M  V30 58 1 23 55
M  V30 59 1 27 56
M  V30 60 1 28 57
M  V30 61 1 28 58
M  V30 62 1 29 59
M  V30 63 1 30 60
M  V30 64 1 30 61
M  V30 65 1 31 62
M  V30 66 1 31 63
M  V30 67 1 32 64
M  V30 68 1 33 65
M  V30 END BOND
M  V30 END CTAB
M  END
>  <Dataset>  (86) 
ChEMBL_Kinases

>  <Ligand_Instance>  (86) 
nan

>  <PDB_ID>  (86) 
nan

>  <Standardized_SMILES>  (86) 
Cc1ccc(C(=O)Nc2cccc(C(C)(C)C)c2)cc1-c1ccc(C(=O)NCC2CC2)cc1

>  <Name>  (86) 
nan

>  <Pocket>  (86) 
nan

>  <ATP_Site>  (86) 
nan

>  <Peripheral>  (86) 
nan

>  <Num_H_Atoms_ProtBoundConf>  (86) 
nan

>  <Num_Resolved_Atoms>  (86) 
nan

>  <Num_Not_Resolved_Atoms>  (86) 
nan

$$$$
CHEMBL515727
     RDKit          3D

  0  0  0  0  0  0  0  0  0  0999 V3000
M  V30 BEGIN CTAB
M  V30 COUNTS 38 41 0 0 0
M  V30 BEGIN ATOM
M  V30 1 O 0.683019 -3.059804 2.646891 0
M  V30 2 C 0.293649 -2.965052 1.451720 0
M  V30 3 C 0.142554 -4.128265 0.719477 0
M  V30 4 C 0.738812 -5.170002 1.418064 0
M  V30 5 C 0.673006 -6.399661 0.817827 0
M  V30 6 C 0.063785 -6.633633 -0.401080 0
M  V30 7 C -0.522211 -5.551127 -1.064802 0
M  V30 8 C -0.486418 -4.278577 -0.503443 0
M  V30 9 C -1.107271 -3.318472 -1.279291 0
M  V30 10 C -1.329196 -1.963049 -1.018821 0
M  V30 11 C -0.656430 -1.209137 -0.074714 0
M  V30 12 C -0.804138 0.129180 -0.384977 0
M  V30 13 C -0.180119 1.010933 0.478229 0
M  V30 14 N -0.286467 2.409121 0.225120 0
M  V30 15 C 0.232228 3.540490 0.914889 0
M  V30 16 C -0.499260 4.567482 1.478785 0
M  V30 17 C 0.138522 5.607821 2.121346 0
M  V30 18 C 1.513157 5.661399 2.223865 0
M  V30 19 F 2.087006 6.718122 2.872723 0
M  V30 20 C 2.246223 4.617835 1.650340 0
M  V30 21 C 1.613324 3.576137 1.007233 0
M  V30 22 F 2.513226 2.674804 0.525654 0
M  V30 23 C 0.542274 0.586504 1.576479 0
M  V30 24 C 0.674347 -0.764689 1.864479 0
M  V30 25 C 0.063684 -1.671323 1.022746 0
M  V30 26 H 1.221429 -5.009045 2.374185 0
M  V30 27 H 1.132182 -7.241653 1.340333 0
M  V30 28 H 0.022753 -7.614135 -0.858519 0
M  V30 29 H -1.014569 -5.701393 -2.034799 0
M  V30 30 H -1.482170 -3.680463 -2.248126 0
M  V30 31 H -2.106831 -1.485844 -1.629282 0
M  V30 32 H -1.371656 0.430180 -1.245556 0
M  V30 33 H -0.822441 2.770685 -0.592508 0
M  V30 34 H -1.585379 4.487699 1.375844 0
M  V30 35 H -0.446883 6.401872 2.556313 0
M  V30 36 H 3.316004 4.746626 1.781160 0
M  V30 37 H 1.041380 1.233419 2.270897 0
M  V30 38 H 1.223595 -1.146121 2.703500 0
M  V30 END ATOM
M  V30 BEGIN BOND
M  V30 1 2 1 2
M  V30 2 1 2 3
M  V30 3 2 3 4
M  V30 4 1 4 5
M  V30 5 2 5 6
M  V30 6 1 6 7
M  V30 7 2 7 8
M  V30 8 1 8 9
M  V30 9 2 9 10
M  V30 10 1 10 11
M  V30 11 2 11 12
M  V30 12 1 12 13
M  V30 13 1 13 14
M  V30 14 1 14 15
M  V30 15 2 15 16
M  V30 16 1 16 17
M  V30 17 2 17 18
M  V30 18 1 18 19
M  V30 19 1 18 20
M  V30 20 2 20 21
M  V30 21 1 21 22
M  V30 22 2 13 23
M  V30 23 1 23 24
M  V30 24 2 24 25
M  V30 25 1 25 2
M  V30 26 1 8 3
M  V30 27 1 25 11
M  V30 28 1 21 15
M  V30 29 1 4 26
M  V30 30 1 5 27
M  V30 31 1 6 28
M  V30 32 1 7 29
M  V30 33 1 9 30
M  V30 34 1 10 31
M  V30 35 1 12 32
M  V30 36 1 14 33
M  V30 37 1 16 34
M  V30 38 1 17 35
M  V30 39 1 20 36
M  V30 40 1 23 37
M  V30 41 1 24 38
M  V30 END BOND
M  V30 END CTAB
M  END
>  <Dataset>  (87) 
ChEMBL_Kinases

>  <Ligand_Instance>  (87) 
nan

>  <PDB_ID>  (87) 
nan

>  <Standardized_SMILES>  (87) 
O=c1c2ccccc2ccc2cc(Nc3ccc(F)cc3F)ccc12

>  <Name>  (87) 
nan

>  <Pocket>  (87) 
nan

>  <ATP_Site>  (87) 
nan

>  <Peripheral>  (87) 
nan

>  <Num_H_Atoms_ProtBoundConf>  (87) 
nan

>  <Num_Resolved_Atoms>  (87) 
nan

>  <Num_Not_Resolved_Atoms>  (87) 
nan

$$$$
CHEMBL3733036
     RDKit          3D

  0  0  0  0  0  0  0  0  0  0999 V3000
M  V30 BEGIN CTAB
M  V30 COUNTS 52 55 0 0 0
M  V30 BEGIN ATOM
M  V30 1 C 0.611453 -1.398940 4.482385 0
M  V30 2 C 1.463008 -0.337649 3.893830 0
M  V30 3 C 2.500537 0.171724 4.705940 0
M  V30 4 C 2.949238 -0.124632 6.054073 0
M  V30 5 N 4.041856 0.571820 6.601998 0
M  V30 6 O 2.639849 -0.884751 6.984504 0
M  V30 7 S 3.313775 1.429995 3.681419 0
M  V30 8 C 2.263720 1.202611 2.301823 0
M  V30 9 N 2.321903 1.861429 1.127819 0
M  V30 10 C 1.442015 1.573559 0.158676 0
M  V30 11 C 1.429580 2.228062 -1.128923 0
M  V30 12 C 2.390603 3.204794 -1.351466 0
M  V30 13 C 2.446530 3.873262 -2.547516 0
M  V30 14 N 1.571391 3.595746 -3.528545 0
M  V30 15 C 0.639748 2.652545 -3.319907 0
M  V30 16 C 0.531864 1.945414 -2.139183 0
M  V30 17 N 0.584421 0.635295 0.486483 0
M  V30 18 C 0.490344 -0.043438 1.636694 0
M  V30 19 N -0.568724 -1.022855 1.679137 0
M  V30 20 C -1.433185 -1.202766 0.532504 0
M  V30 21 C -2.440689 -2.263842 0.817504 0 CFG=1
M  V30 22 N -3.261898 -1.929644 1.944584 0
M  V30 23 C -3.337280 -2.577661 -0.329060 0
M  V30 24 C -2.619059 -3.054964 -1.528066 0
M  V30 25 C -2.137045 -2.223805 -2.543299 0
M  V30 26 C -1.471260 -2.754226 -3.638658 0
M  V30 27 C -1.277682 -4.125889 -3.734505 0
M  V30 28 C -1.728066 -4.991303 -2.769654 0
M  V30 29 C -2.383405 -4.414486 -1.701486 0
M  V30 30 C 1.381986 0.233302 2.648644 0
M  V30 31 H -0.454401 -1.122416 4.592326 0
M  V30 32 H 0.680373 -2.374444 3.971921 0
M  V30 33 H 0.941042 -1.558983 5.553631 0
M  V30 34 H 4.229500 1.503567 7.054881 0
M  V30 35 H 5.068003 0.464448 6.780199 0
M  V30 36 H 3.115562 3.448583 -0.565664 0
M  V30 37 H 3.226550 4.639140 -2.676126 0
M  V30 38 H -0.053309 2.445848 -4.122120 0
M  V30 39 H -0.208758 1.181912 -1.946851 0
M  V30 40 H -0.847540 -1.671346 2.430813 0
M  V30 41 H -1.908412 -0.207348 0.319975 0
M  V30 42 H -0.825734 -1.411352 -0.372551 0
M  V30 43 H -1.846674 -3.188518 1.080940 0
M  V30 44 H -3.934815 -2.670508 2.168318 0
M  V30 45 H -3.633678 -0.974774 1.935009 0
M  V30 46 H -4.010728 -1.757678 -0.576512 0
M  V30 47 H -3.999478 -3.428615 0.007380 0
M  V30 48 H -2.308799 -1.167363 -2.428895 0
M  V30 49 H -1.104806 -2.123555 -4.410269 0
M  V30 50 H -0.757930 -4.604845 -4.577737 0
M  V30 51 H -1.603167 -6.070170 -2.796045 0
M  V30 52 H -2.753991 -5.076835 -0.916682 0
M  V30 END ATOM
M  V30 BEGIN BOND
M  V30 1 1 1 2
M  V30 2 2 2 3
M  V30 3 1 3 4
M  V30 4 1 4 5
M  V30 5 2 4 6
M  V30 6 1 3 7
M  V30 7 1 7 8
M  V30 8 2 8 9
M  V30 9 1 9 10
M  V30 10 1 10 11
M  V30 11 2 11 12
M  V30 12 1 12 13
M  V30 13 2 13 14
M  V30 14 1 14 15
M  V30 15 2 15 16
M  V30 16 2 10 17
M  V30 17 1 17 18
M  V30 18 1 18 19
M  V30 19 1 19 20
M  V30 20 1 20 21
M  V30 21 1 21 22
M  V30 22 1 21 23
M  V30 23 1 23 24
M  V30 24 2 24 25
M  V30 25 1 25 26
M  V30 26 2 26 27
M  V30 27 1 27 28
M  V30 28 2 28 29
M  V30 29 2 18 30
M  V30 30 1 30 2
M  V30 31 1 30 8
M  V30 32 1 16 11
M  V30 33 1 29 24
M  V30 34 1 1 31
M  V30 35 1 1 32
M  V30 36 1 1 33
M  V30 37 1 5 34
M  V30 38 1 5 35
M  V30 39 1 12 36
M  V30 40 1 13 37
M  V30 41 1 15 38
M  V30 42 1 16 39
M  V30 43 1 19 40
M  V30 44 1 20 41
M  V30 45 1 20 42
M  V30 46 1 21 43 CFG=1
M  V30 47 1 22 44
M  V30 48 1 22 45
M  V30 49 1 23 46
M  V30 50 1 23 47
M  V30 51 1 25 48
M  V30 52 1 26 49
M  V30 53 1 27 50
M  V30 54 1 28 51
M  V30 55 1 29 52
M  V30 END BOND
M  V30 END CTAB
M  END
>  <Dataset>  (88) 
ChEMBL_Kinases

>  <Ligand_Instance>  (88) 
nan

>  <PDB_ID>  (88) 
nan

>  <Standardized_SMILES>  (88) 
Cc1c(C(N)=O)sc2nc(-c3ccncc3)nc(NC[C@@H](N)Cc3ccccc3)c12

>  <Name>  (88) 
nan

>  <Pocket>  (88) 
nan

>  <ATP_Site>  (88) 
nan

>  <Peripheral>  (88) 
nan

>  <Num_H_Atoms_ProtBoundConf>  (88) 
nan

>  <Num_Resolved_Atoms>  (88) 
nan

>  <Num_Not_Resolved_Atoms>  (88) 
nan

$$$$
CHEMBL515757
     RDKit          3D

  0  0  0  0  0  0  0  0  0  0999 V3000
M  V30 BEGIN CTAB
M  V30 COUNTS 39 40 0 0 0
M  V30 BEGIN ATOM
M  V30 1 C -1.137324 -2.708376 4.135015 0
M  V30 2 C 0.172088 -2.956461 3.448618 0
M  V30 3 C 1.061137 -3.820332 4.050063 0
M  V30 4 C 2.271218 -4.066748 3.434746 0
M  V30 5 C 2.540709 -3.434308 2.237374 0
M  V30 6 C 1.646076 -2.564987 1.630930 0
M  V30 7 N 1.956689 -1.940161 0.396415 0
M  V30 8 C 1.097341 -0.993610 -0.165722 0
M  V30 9 N 1.288213 0.341798 0.067899 0
M  V30 10 C 0.417234 1.231087 -0.502520 0
M  V30 11 N 0.627601 2.612937 -0.250411 0
M  V30 12 C -0.267593 3.588110 -0.848573 0
M  V30 13 C 0.105215 4.996028 -0.454351 0
M  V30 14 N 0.037880 5.156828 0.977220 0
M  V30 15 N -0.604182 0.831947 -1.274105 0
M  V30 16 C -0.889652 -0.444193 -1.572236 0
M  V30 17 C 0.009310 -1.292657 -0.978336 0
M  V30 18 C -0.090512 -2.729371 -1.151328 0
M  V30 19 N -1.168432 -3.219241 -1.944894 0
M  V30 20 O 0.109357 -3.946953 -1.097968 0
M  V30 21 C 0.412407 -2.299782 2.236724 0
M  V30 22 H -1.840342 -3.509483 3.876238 0
M  V30 23 H -1.564775 -1.756924 3.763132 0
M  V30 24 H -1.034220 -2.689623 5.228058 0
M  V30 25 H 0.792131 -4.287247 4.990978 0
M  V30 26 H 2.943907 -4.750355 3.934801 0
M  V30 27 H 3.497259 -3.654316 1.792056 0
M  V30 28 H 2.852633 -2.204590 -0.091664 0
M  V30 29 H 1.410846 2.941242 0.355104 0
M  V30 30 H -1.284183 3.390209 -0.436259 0
M  V30 31 H -0.360515 3.470624 -1.945404 0
M  V30 32 H 1.097539 5.270620 -0.886702 0
M  V30 33 H -0.639105 5.688358 -0.902749 0
M  V30 34 H -0.493719 4.366786 1.433252 0
M  V30 35 H -0.274387 6.092118 1.289370 0
M  V30 36 H -1.681705 -0.828023 -2.175325 0
M  V30 37 H -1.925776 -3.586596 -2.539799 0
M  V30 38 H -2.202189 -3.307794 -2.099192 0
M  V30 39 H -0.301217 -1.627368 1.785660 0
M  V30 END ATOM
M  V30 BEGIN BOND
M  V30 1 1 1 2
M  V30 2 2 2 3
M  V30 3 1 3 4
M  V30 4 2 4 5
M  V30 5 1 5 6
M  V30 6 1 6 7
M  V30 7 1 7 8
M  V30 8 2 8 9
M  V30 9 1 9 10
M  V30 10 1 10 11
M  V30 11 1 11 12
M  V30 12 1 12 13
M  V30 13 1 13 14
M  V30 14 2 10 15
M  V30 15 1 15 16
M  V30 16 2 16 17
M  V30 17 1 17 18
M  V30 18 1 18 19
M  V30 19 2 18 20
M  V30 20 2 6 21
M  V30 21 1 21 2
M  V30 22 1 17 8
M  V30 23 1 1 22
M  V30 24 1 1 23
M  V30 25 1 1 24
M  V30 26 1 3 25
M  V30 27 1 4 26
M  V30 28 1 5 27
M  V30 29 1 7 28
M  V30 30 1 11 29
M  V30 31 1 12 30
M  V30 32 1 12 31
M  V30 33 1 13 32
M  V30 34 1 13 33
M  V30 35 1 14 34
M  V30 36 1 14 35
M  V30 37 1 16 36
M  V30 38 1 19 37
M  V30 39 1 19 38
M  V30 40 1 21 39
M  V30 END BOND
M  V30 END CTAB
M  END
>  <Dataset>  (89) 
ChEMBL_Kinases

>  <Ligand_Instance>  (89) 
nan

>  <PDB_ID>  (89) 
nan

>  <Standardized_SMILES>  (89) 
Cc1cccc(Nc2nc(NCCN)ncc2C(N)=O)c1

>  <Name>  (89) 
nan

>  <Pocket>  (89) 
nan

>  <ATP_Site>  (89) 
nan

>  <Peripheral>  (89) 
nan

>  <Num_H_Atoms_ProtBoundConf>  (89) 
nan

>  <Num_Resolved_Atoms>  (89) 
nan

>  <Num_Not_Resolved_Atoms>  (89) 
nan

$$$$
CHEMBL516075
     RDKit          3D

  0  0  0  0  0  0  0  0  0  0999 V3000
M  V30 BEGIN CTAB
M  V30 COUNTS 45 48 0 0 0
M  V30 BEGIN ATOM
M  V30 1 C -0.490019 -6.099012 0.194623 0
M  V30 2 O -0.552545 -4.682888 0.114236 0
M  V30 3 C 0.362747 -4.057152 -0.722095 0
M  V30 4 C 1.294122 -4.792746 -1.443606 0
M  V30 5 C 2.183816 -4.128239 -2.261950 0
M  V30 6 C 2.188643 -2.737290 -2.397366 0
M  V30 7 C 1.268222 -1.994821 -1.685825 0
M  V30 8 C 1.192741 -0.527156 -1.760753 0
M  V30 9 C 1.517534 0.170733 -2.926079 0
M  V30 10 C 1.435820 1.545037 -2.961631 0
M  V30 11 C 1.028713 2.253158 -1.836371 0
M  V30 12 N 0.942301 3.602343 -1.851508 0
M  V30 13 C 0.538485 4.260560 -0.726339 0
M  V30 14 N 0.221244 3.609872 0.405125 0
M  V30 15 C 0.293423 2.284968 0.460113 0
M  V30 16 N -0.049498 1.615253 1.676769 0
M  V30 17 C -0.469580 2.401764 2.825552 0
M  V30 18 C -0.794231 1.591650 4.013411 0
M  V30 19 C -2.082766 1.137644 4.202472 0
M  V30 20 C -2.392810 0.379981 5.313201 0
M  V30 21 C -1.441796 0.054406 6.259062 0
M  V30 22 C -0.138356 0.515668 6.064460 0
M  V30 23 C 0.168872 1.276320 4.947495 0
M  V30 24 C 0.699934 1.600391 -0.667913 0
M  V30 25 C 0.790940 0.233101 -0.663416 0
M  V30 26 C 0.372822 -2.681494 -0.860544 0
M  V30 27 H -0.566667 -6.572899 -0.809467 0
M  V30 28 H -1.348872 -6.489568 0.799435 0
M  V30 29 H 0.469146 -6.410262 0.697211 0
M  V30 30 H 1.323409 -5.871820 -1.366605 0
M  V30 31 H 2.924529 -4.676591 -2.838881 0
M  V30 32 H 2.882043 -2.202760 -3.036611 0
M  V30 33 H 1.831894 -0.401968 -3.789822 0
M  V30 34 H 1.687690 2.095910 -3.866899 0
M  V30 35 H 0.494448 5.337421 -0.816737 0
M  V30 36 H -0.039742 0.597782 1.863163 0
M  V30 37 H -1.315760 3.069834 2.553149 0
M  V30 38 H 0.407815 3.037332 3.100092 0
M  V30 39 H -2.855545 1.368225 3.489402 0
M  V30 40 H -3.413674 0.035784 5.437871 0
M  V30 41 H -1.718965 -0.541304 7.118402 0
M  V30 42 H 0.616791 0.268440 6.796860 0
M  V30 43 H 1.169342 1.651052 4.763871 0
M  V30 44 H 0.553798 -0.344257 0.201172 0
M  V30 45 H -0.361626 -2.155407 -0.286585 0
M  V30 END ATOM
M  V30 BEGIN BOND
M  V30 1 1 1 2
M  V30 2 1 2 3
M  V30 3 2 3 4
M  V30 4 1 4 5
M  V30 5 2 5 6
M  V30 6 1 6 7
M  V30 7 1 7 8
M  V30 8 2 8 9
M  V30 9 1 9 10
M  V30 10 2 10 11
M  V30 11 1 11 12
M  V30 12 2 12 13
M  V30 13 1 13 14
M  V30 14 2 14 15
M  V30 15 1 15 16
M  V30 16 1 16 17
M  V30 17 1 17 18
M  V30 18 2 18 19
M  V30 19 1 19 20
M  V30 20 2 20 21
M  V30 21 1 21 22
M  V30 22 2 22 23
M  V30 23 1 15 24
M  V30 24 2 24 25
M  V30 25 2 7 26
M  V30 26 1 26 3
M  V30 27 1 25 8
M  V30 28 1 24 11
M  V30 29 1 23 18
M  V30 30 1 1 27
M  V30 31 1 1 28
M  V30 32 1 1 29
M  V30 33 1 4 30
M  V30 34 1 5 31
M  V30 35 1 6 32
M  V30 36 1 9 33
M  V30 37 1 10 34
M  V30 38 1 13 35
M  V30 39 1 16 36
M  V30 40 1 17 37
M  V30 41 1 17 38
M  V30 42 1 19 39
M  V30 43 1 20 40
M  V30 44 1 21 41
M  V30 45 1 22 42
M  V30 46 1 23 43
M  V30 47 1 25 44
M  V30 48 1 26 45
M  V30 END BOND
M  V30 END CTAB
M  END
>  <Dataset>  (90) 
ChEMBL_Kinases

>  <Ligand_Instance>  (90) 
nan

>  <PDB_ID>  (90) 
nan

>  <Standardized_SMILES>  (90) 
COc1cccc(-c2ccc3ncnc(NCc4ccccc4)c3c2)c1

>  <Name>  (90) 
nan

>  <Pocket>  (90) 
nan

>  <ATP_Site>  (90) 
nan

>  <Peripheral>  (90) 
nan

>  <Num_H_Atoms_ProtBoundConf>  (90) 
nan

>  <Num_Resolved_Atoms>  (90) 
nan

>  <Num_Not_Resolved_Atoms>  (90) 
nan

$$$$
CHEMBL514554
     RDKit          3D

  0  0  0  0  0  0  0  0  0  0999 V3000
M  V30 BEGIN CTAB
M  V30 COUNTS 54 57 0 0 0
M  V30 BEGIN ATOM
M  V30 1 C 4.949996 -3.922056 0.548596 0
M  V30 2 S 3.378409 -3.561952 -0.179795 0
M  V30 3 O 3.543506 -3.431579 -1.667852 0
M  V30 4 O 2.423604 -4.698210 0.070701 0
M  V30 5 C 2.696280 -2.099661 0.497419 0
M  V30 6 C 1.897904 -2.248222 1.628664 0
M  V30 7 C 1.335765 -1.127516 2.200241 0
M  V30 8 C 1.582612 0.093735 1.634626 0
M  V30 9 C 2.360415 0.312539 0.518564 0
M  V30 10 C 2.642781 1.594866 -0.122396 0
M  V30 11 N 1.731985 1.949819 -1.195138 0
M  V30 12 C 0.344598 2.156171 -1.217497 0
M  V30 13 N -0.263086 2.002502 -0.038165 0
M  V30 14 C -1.579579 2.148250 0.186298 0
M  V30 15 N -2.119194 1.957754 1.507608 0
M  V30 16 C -2.520613 0.655574 1.921849 0
M  V30 17 C -3.059834 0.402051 3.185431 0
M  V30 18 C -3.440014 -0.885790 3.560981 0
M  V30 19 C -3.281803 -1.934516 2.668498 0
M  V30 20 C -2.753835 -1.731214 1.410497 0
M  V30 21 C -2.396620 -0.435633 1.097149 0
M  V30 22 C -2.551840 -2.793532 0.401422 0
M  V30 23 C -2.306339 -4.127806 1.102737 0
M  V30 24 C -3.468136 -4.317914 2.043538 0
M  V30 25 O -4.266193 -5.288497 2.060886 0
M  V30 26 N -3.652383 -3.272377 2.998490 0
M  V30 27 N -2.365292 2.480824 -0.875224 0
M  V30 28 C -1.801511 2.651723 -2.106859 0
M  V30 29 C -0.455814 2.498190 -2.314177 0
M  V30 30 C 0.253640 2.656741 -3.592319 0
M  V30 31 F 0.915206 1.557914 -4.039159 0
M  V30 32 F 1.073117 3.774708 -3.510143 0
M  V30 33 F -0.709494 2.946837 -4.554474 0
M  V30 34 C 2.904906 -0.836799 -0.023086 0
M  V30 35 H 4.868647 -4.849500 1.157452 0
M  V30 36 H 5.206910 -3.083525 1.229977 0
M  V30 37 H 5.724360 -4.007208 -0.229478 0
M  V30 38 H 1.723624 -3.228671 2.048998 0
M  V30 39 H 0.709727 -1.217961 3.082633 0
M  V30 40 H 1.131815 0.949644 2.110243 0
M  V30 41 H 2.686644 2.443169 0.627375 0
M  V30 42 H 3.671415 1.549809 -0.535722 0
M  V30 43 H 2.130419 2.094663 -2.172609 0
M  V30 44 H -2.239301 2.732579 2.201420 0
M  V30 45 H -3.178286 1.229739 3.872348 0
M  V30 46 H -3.854423 -1.107822 4.517747 0
M  V30 47 H -1.972379 -0.218484 0.109940 0
M  V30 48 H -1.708330 -2.554184 -0.278499 0
M  V30 49 H -3.467345 -2.942421 -0.203104 0
M  V30 50 H -2.345154 -4.945029 0.353174 0
M  V30 51 H -1.349360 -4.109004 1.645002 0
M  V30 52 H -4.054346 -3.453653 3.943498 0
M  V30 53 H -2.386856 2.913471 -2.966252 0
M  V30 54 H 3.550033 -0.845987 -0.913356 0
M  V30 END ATOM
M  V30 BEGIN BOND
M  V30 1 1 1 2
M  V30 2 2 2 3
M  V30 3 2 2 4
M  V30 4 1 2 5
M  V30 5 2 5 6
M  V30 6 1 6 7
M  V30 7 2 7 8
M  V30 8 1 8 9
M  V30 9 1 9 10
M  V30 10 1 10 11
M  V30 11 1 11 12
M  V30 12 2 12 13
M  V30 13 1 13 14
M  V30 14 1 14 15
M  V30 15 1 15 16
M  V30 16 2 16 17
M  V30 17 1 17 18
M  V30 18 2 18 19
M  V30 19 1 19 20
M  V30 20 2 20 21
M  V30 21 1 20 22
M  V30 22 1 22 23
M  V30 23 1 23 24
M  V30 24 2 24 25
M  V30 25 1 24 26
M  V30 26 2 14 27
M  V30 27 1 27 28
M  V30 28 2 28 29
M  V30 29 1 29 30
M  V30 30 1 30 31
M  V30 31 1 30 32
M  V30 32 1 30 33
M  V30 33 2 9 34
M  V30 34 1 34 5
M  V30 35 1 29 12
M  V30 36 1 21 16
M  V30 37 1 26 19
M  V30 38 1 1 35
M  V30 39 1 1 36
M  V30 40 1 1 37
M  V30 41 1 6 38
M  V30 42 1 7 39
M  V30 43 1 8 40
M  V30 44 1 10 41
M  V30 45 1 10 42
M  V30 46 1 11 43
M  V30 47 1 15 44
M  V30 48 1 17 45
M  V30 49 1 18 46
M  V30 50 1 21 47
M  V30 51 1 22 48
M  V30 52 1 22 49
M  V30 53 1 23 50
M  V30 54 1 23 51
M  V30 55 1 26 52
M  V30 56 1 28 53
M  V30 57 1 34 54
M  V30 END BOND
M  V30 END CTAB
M  END
>  <Dataset>  (91) 
ChEMBL_Kinases

>  <Ligand_Instance>  (91) 
nan

>  <PDB_ID>  (91) 
nan

>  <Standardized_SMILES>  (91) 
CS(=O)(=O)c1cccc(CNc2nc(Nc3ccc4c(c3)CCC(=O)N4)ncc2C(F)(F)F)c1

>  <Name>  (91) 
nan

>  <Pocket>  (91) 
nan

>  <ATP_Site>  (91) 
nan

>  <Peripheral>  (91) 
nan

>  <Num_H_Atoms_ProtBoundConf>  (91) 
nan

>  <Num_Resolved_Atoms>  (91) 
nan

>  <Num_Not_Resolved_Atoms>  (91) 
nan

$$$$
CHEMBL512908
     RDKit          3D

  0  0  0  0  0  0  0  0  0  0999 V3000
M  V30 BEGIN CTAB
M  V30 COUNTS 26 28 0 0 0
M  V30 BEGIN ATOM
M  V30 1 O -1.956892 -2.475026 2.304063 0
M  V30 2 C -1.029373 -1.771825 1.827902 0
M  V30 3 C 0.327009 -1.811028 2.412275 0
M  V30 4 C 0.867850 -2.525673 3.483762 0
M  V30 5 C 2.201179 -2.327920 3.776302 0
M  V30 6 C 3.032207 -1.478455 3.087379 0
M  V30 7 C 2.479139 -0.774750 2.023468 0
M  V30 8 C 1.136535 -0.952881 1.704140 0
M  V30 9 C 0.340936 -0.334672 0.647735 0
M  V30 10 C 0.643245 0.587137 -0.336695 0
M  V30 11 C -0.371726 0.965255 -1.190885 0
M  V30 12 N 0.031092 1.914006 -2.170810 0 CHG=1 VAL=4
M  V30 13 O -0.147677 2.310375 -3.313260 0
M  V30 14 O 1.024130 2.851011 -1.886675 0 CHG=-1 VAL=1
M  V30 15 C -1.663421 0.488189 -1.130252 0
M  V30 16 N -2.639794 0.931225 -2.040911 0 CHG=1 VAL=4
M  V30 17 O -3.610342 0.174007 -2.328407 0
M  V30 18 O -2.706379 2.124801 -2.701474 0 CHG=-1 VAL=1
M  V30 19 C -1.983112 -0.440310 -0.145088 0
M  V30 20 C -0.954663 -0.824406 0.721138 0
M  V30 21 H 0.258501 -3.211229 4.061032 0
M  V30 22 H 2.665330 -2.853651 4.592397 0
M  V30 23 H 4.077855 -1.337741 3.334683 0
M  V30 24 H 3.077263 -0.075074 1.422661 0
M  V30 25 H 1.653765 0.968791 -0.394634 0
M  V30 26 H -2.976701 -0.857085 -0.041703 0
M  V30 END ATOM
M  V30 BEGIN BOND
M  V30 1 2 1 2
M  V30 2 1 2 3
M  V30 3 2 3 4
M  V30 4 1 4 5
M  V30 5 2 5 6
M  V30 6 1 6 7
M  V30 7 2 7 8
M  V30 8 1 8 9
M  V30 9 2 9 10
M  V30 10 1 10 11
M  V30 11 1 11 12
M  V30 12 2 12 13
M  V30 13 1 12 14
M  V30 14 2 11 15
M  V30 15 1 15 16
M  V30 16 2 16 17
M  V30 17 1 16 18
M  V30 18 1 15 19
M  V30 19 2 19 20
M  V30 20 1 20 2
M  V30 21 1 8 3
M  V30 22 1 20 9
M  V30 23 1 4 21
M  V30 24 1 5 22
M  V30 25 1 6 23
M  V30 26 1 7 24
M  V30 27 1 10 25
M  V30 28 1 19 26
M  V30 END BOND
M  V30 END CTAB
M  END
>  <Dataset>  (92) 
ChEMBL_Kinases

>  <Ligand_Instance>  (92) 
nan

>  <PDB_ID>  (92) 
nan

>  <Standardized_SMILES>  (92) 
O=C1c2ccccc2-c2cc([N+](=O)[O-])c([N+](=O)[O-])cc21

>  <Name>  (92) 
nan

>  <Pocket>  (92) 
nan

>  <ATP_Site>  (92) 
nan

>  <Peripheral>  (92) 
nan

>  <Num_H_Atoms_ProtBoundConf>  (92) 
nan

>  <Num_Resolved_Atoms>  (92) 
nan

>  <Num_Not_Resolved_Atoms>  (92) 
nan

$$$$
CHEMBL513040
     RDKit          3D

  0  0  0  0  0  0  0  0  0  0999 V3000
M  V30 BEGIN CTAB
M  V30 COUNTS 36 39 0 0 0
M  V30 BEGIN ATOM
M  V30 1 Cl 2.779938 -0.180409 2.558982 0
M  V30 2 C 2.863268 -1.592044 1.529257 0
M  V30 3 C 2.050094 -2.661040 1.837729 0
M  V30 4 C 2.128140 -3.790315 1.052670 0
M  V30 5 C 2.996285 -3.826916 0.001662 0
M  V30 6 C 3.798149 -2.725935 -0.274358 0
M  V30 7 C 3.759198 -1.560844 0.485209 0
M  V30 8 C 4.630649 -0.450618 0.079590 0
M  V30 9 S 3.853002 0.814205 -0.921269 0
M  V30 10 C 2.591232 1.653151 0.006718 0
M  V30 11 N 2.427301 2.707208 0.839449 0
M  V30 12 N 1.143492 2.726870 1.152245 0
M  V30 13 C 0.487366 1.713988 0.540685 0
M  V30 14 C -0.953498 1.455309 0.680690 0
M  V30 15 C -1.790786 2.225780 1.459481 0
M  V30 16 C -3.133117 1.842599 1.484774 0
M  V30 17 C -3.605041 0.742211 0.763636 0
M  V30 18 C -2.739898 -0.008395 -0.006926 0
M  V30 19 C -1.410529 0.353126 -0.045381 0
M  V30 20 C -3.470686 -1.105958 -0.667154 0
M  V30 21 C -4.733821 -1.161542 0.176311 0
M  V30 22 O -4.885348 0.185672 0.643424 0
M  V30 23 O 1.407860 1.071072 -0.157763 0
M  V30 24 H 1.370700 -2.591770 2.686047 0
M  V30 25 H 1.462800 -4.603062 1.342121 0
M  V30 26 H 3.002381 -4.744313 -0.566582 0
M  V30 27 H 4.435397 -2.895394 -1.133946 0
M  V30 28 H 4.994953 0.036775 1.034342 0
M  V30 29 H 5.583776 -0.835199 -0.387816 0
M  V30 30 H -1.389991 3.061049 1.996886 0
M  V30 31 H -3.829192 2.424697 2.088688 0
M  V30 32 H -0.748816 -0.245260 -0.652577 0
M  V30 33 H -2.895430 -2.040561 -0.659761 0
M  V30 34 H -3.738423 -0.783425 -1.714782 0
M  V30 35 H -4.638861 -1.888239 1.005190 0
M  V30 36 H -5.588877 -1.449344 -0.462486 0
M  V30 END ATOM
M  V30 BEGIN BOND
M  V30 1 1 1 2
M  V30 2 2 2 3
M  V30 3 1 3 4
M  V30 4 2 4 5
M  V30 5 1 5 6
M  V30 6 2 6 7
M  V30 7 1 7 8
M  V30 8 1 8 9
M  V30 9 1 9 10
M  V30 10 2 10 11
M  V30 11 1 11 12
M  V30 12 2 12 13
M  V30 13 1 13 14
M  V30 14 2 14 15
M  V30 15 1 15 16
M  V30 16 2 16 17
M  V30 17 1 17 18
M  V30 18 2 18 19
M  V30 19 1 18 20
M  V30 20 1 20 21
M  V30 21 1 21 22
M  V30 22 1 13 23
M  V30 23 1 7 2
M  V30 24 1 23 10
M  V30 25 1 19 14
M  V30 26 1 22 17
M  V30 27 1 3 24
M  V30 28 1 4 25
M  V30 29 1 5 26
M  V30 30 1 6 27
M  V30 31 1 8 28
M  V30 32 1 8 29
M  V30 33 1 15 30
M  V30 34 1 16 31
M  V30 35 1 19 32
M  V30 36 1 20 33
M  V30 37 1 20 34
M  V30 38 1 21 35
M  V30 39 1 21 36
M  V30 END BOND
M  V30 END CTAB
M  END
>  <Dataset>  (93) 
ChEMBL_Kinases

>  <Ligand_Instance>  (93) 
nan

>  <PDB_ID>  (93) 
nan

>  <Standardized_SMILES>  (93) 
Clc1ccccc1CSc1nnc(-c2ccc3c(c2)CCO3)o1

>  <Name>  (93) 
nan

>  <Pocket>  (93) 
nan

>  <ATP_Site>  (93) 
nan

>  <Peripheral>  (93) 
nan

>  <Num_H_Atoms_ProtBoundConf>  (93) 
nan

>  <Num_Resolved_Atoms>  (93) 
nan

>  <Num_Not_Resolved_Atoms>  (93) 
nan

$$$$
CHEMBL513048
     RDKit          3D

  0  0  0  0  0  0  0  0  0  0999 V3000
M  V30 BEGIN CTAB
M  V30 COUNTS 55 56 0 0 0
M  V30 BEGIN ATOM
M  V30 1 C 2.369030 -1.475389 7.629164 0
M  V30 2 C 1.800782 -1.489359 6.233101 0
M  V30 3 C 2.585286 -2.332569 5.287359 0
M  V30 4 C 2.020568 -2.355508 3.873885 0
M  V30 5 C 1.976284 -0.994439 3.261147 0
M  V30 6 C 1.405641 -1.053022 1.842929 0
M  V30 7 C 1.361235 0.292685 1.235796 0
M  V30 8 C 0.370057 1.034387 0.776104 0
M  V30 9 C 0.273571 2.388710 0.158250 0
M  V30 10 C -1.169134 2.547838 -0.136532 0
M  V30 11 C -1.626214 3.959232 0.256397 0
M  V30 12 O -2.994900 4.114479 0.089823 0
M  V30 13 C -1.649465 2.294213 -1.517506 0
M  V30 14 O -1.498635 1.068022 -2.089691 0
M  V30 15 C -0.513007 0.264323 -2.474112 0
M  V30 16 O 0.691350 0.554883 -2.360907 0
M  V30 17 C -0.880955 -1.032591 -3.062052 0
M  V30 18 C -2.174620 -1.473146 -3.243121 0
M  V30 19 C -2.457028 -2.699803 -3.800021 0
M  V30 20 C -1.441966 -3.545669 -4.203259 0
M  V30 21 O -1.664585 -4.795611 -4.771772 0
M  V30 22 C -3.013952 -5.207484 -4.938847 0
M  V30 23 C -0.130853 -3.150679 -4.043330 0
M  V30 24 C 0.100670 -1.917026 -3.482426 0
M  V30 25 O -1.854618 1.596532 0.701571 0
M  V30 26 C -0.984012 0.500860 0.841286 0
M  V30 27 O -1.367961 -0.685026 0.990337 0
M  V30 28 H 2.896959 -2.424173 7.860908 0
M  V30 29 H 3.007657 -0.590851 7.737062 0
M  V30 30 H 1.508710 -1.403630 8.331630 0
M  V30 31 H 0.766549 -1.924269 6.267150 0
M  V30 32 H 1.763909 -0.443350 5.866275 0
M  V30 33 H 3.636872 -1.938176 5.188902 0
M  V30 34 H 2.674984 -3.351827 5.700901 0
M  V30 35 H 0.994393 -2.746321 3.887303 0
M  V30 36 H 2.664115 -3.017505 3.271334 0
M  V30 37 H 2.981555 -0.526167 3.241580 0
M  V30 38 H 1.329347 -0.315578 3.881772 0
M  V30 39 H 0.508643 -1.652263 1.782956 0
M  V30 40 H 2.190687 -1.642796 1.273901 0
M  V30 41 H 2.354678 0.765783 1.152925 0
M  V30 42 H 0.972020 2.573160 -0.656725 0
M  V30 43 H 0.503955 3.086924 1.034804 0
M  V30 44 H -1.310582 4.175434 1.302092 0
M  V30 45 H -1.106755 4.672082 -0.410786 0
M  V30 46 H -3.194215 4.836293 -0.554378 0
M  V30 47 H -2.770301 2.486946 -1.486888 0
M  V30 48 H -1.283119 3.147256 -2.162104 0
M  V30 49 H -2.972364 -0.808715 -2.926401 0
M  V30 50 H -3.484995 -3.009860 -3.925607 0
M  V30 51 H -3.431085 -5.380676 -3.926025 0
M  V30 52 H -3.083474 -6.139067 -5.536284 0
M  V30 53 H -3.545479 -4.382544 -5.436995 0
M  V30 54 H 0.699720 -3.778432 -4.343772 0
M  V30 55 H 1.140126 -1.617459 -3.361855 0
M  V30 END ATOM
M  V30 BEGIN BOND
M  V30 1 1 1 2
M  V30 2 1 2 3
M  V30 3 1 3 4
M  V30 4 1 4 5
M  V30 5 1 5 6
M  V30 6 1 6 7
M  V30 7 2 7 8
M  V30 8 1 8 9
M  V30 9 1 9 10
M  V30 10 1 10 11
M  V30 11 1 11 12
M  V30 12 1 10 13
M  V30 13 1 13 14
M  V30 14 1 14 15
M  V30 15 2 15 16
M  V30 16 1 15 17
M  V30 17 2 17 18
M  V30 18 1 18 19
M  V30 19 2 19 20
M  V30 20 1 20 21
M  V30 21 1 21 22
M  V30 22 1 20 23
M  V30 23 2 23 24
M  V30 24 1 10 25
M  V30 25 1 25 26
M  V30 26 2 26 27
M  V30 27 1 26 8
M  V30 28 1 24 17
M  V30 29 1 1 28
M  V30 30 1 1 29
M  V30 31 1 1 30
M  V30 32 1 2 31
M  V30 33 1 2 32
M  V30 34 1 3 33
M  V30 35 1 3 34
M  V30 36 1 4 35
M  V30 37 1 4 36
M  V30 38 1 5 37
M  V30 39 1 5 38
M  V30 40 1 6 39
M  V30 41 1 6 40
M  V30 42 1 7 41
M  V30 43 1 9 42
M  V30 44 1 9 43
M  V30 45 1 11 44
M  V30 46 1 11 45
M  V30 47 1 12 46
M  V30 48 1 13 47
M  V30 49 1 13 48
M  V30 50 1 18 49
M  V30 51 1 19 50
M  V30 52 1 22 51
M  V30 53 1 22 52
M  V30 54 1 22 53
M  V30 55 1 23 54
M  V30 56 1 24 55
M  V30 END BOND
M  V30 END CTAB
M  END
>  <Dataset>  (94) 
ChEMBL_Kinases

>  <Ligand_Instance>  (94) 
nan

>  <PDB_ID>  (94) 
nan

>  <Standardized_SMILES>  (94) 
CCCCCC/C=C1/CC(CO)(COC(=O)c2ccc(OC)cc2)OC1=O

>  <Name>  (94) 
nan

>  <Pocket>  (94) 
nan

>  <ATP_Site>  (94) 
nan

>  <Peripheral>  (94) 
nan

>  <Num_H_Atoms_ProtBoundConf>  (94) 
nan

>  <Num_Resolved_Atoms>  (94) 
nan

>  <Num_Not_Resolved_Atoms>  (94) 
nan

$$$$
CHEMBL513069
     RDKit          3D

  0  0  0  0  0  0  0  0  0  0999 V3000
M  V30 BEGIN CTAB
M  V30 COUNTS 53 55 0 0 0
M  V30 BEGIN ATOM
M  V30 1 C 2.403601 -4.091413 4.336866 0
M  V30 2 N 1.765087 -3.060215 3.554998 0
M  V30 3 C 0.381006 -3.097939 3.129516 0
M  V30 4 C 2.530965 -1.928516 3.171365 0
M  V30 5 C 3.868864 -1.813311 3.544443 0
M  V30 6 C 4.616846 -0.715546 3.171145 0
M  V30 7 C 4.072253 0.312288 2.413861 0
M  V30 8 C 2.749267 0.212259 2.036976 0
M  V30 9 C 2.218655 1.308359 1.240046 0
M  V30 10 O 2.974167 2.259284 0.943085 0
M  V30 11 O 0.933489 1.440204 0.747312 0
M  V30 12 C 0.545094 2.560709 -0.021092 0
M  V30 13 C -0.909237 2.422310 -0.407654 0
M  V30 14 C -1.289180 3.549255 -1.334866 0
M  V30 15 O -1.151017 4.769639 -0.714668 0
M  V30 16 C -1.169164 1.112006 -1.116801 0
M  V30 17 C -1.679231 0.261152 -0.011747 0
M  V30 18 C -2.144644 -0.964886 -0.164557 0
M  V30 19 C -2.287058 -1.782218 -1.354493 0
M  V30 20 C -1.412767 -1.918040 -2.390712 0
M  V30 21 C -1.612393 -2.703401 -3.498428 0
M  V30 22 C -2.788432 -3.418569 -3.583154 0
M  V30 23 C -3.742388 -3.356707 -2.594480 0
M  V30 24 C -3.450761 -2.541874 -1.523510 0
M  V30 25 N -4.459216 -2.502687 -0.522177 0 CHG=1 VAL=4
M  V30 26 O -5.674851 -2.697556 -0.704455 0
M  V30 27 O -4.667256 -2.296670 0.816343 0 CHG=-1 VAL=1
M  V30 28 C -1.565803 1.036840 1.215751 0
M  V30 29 O -1.404426 0.471423 2.349210 0
M  V30 30 O -1.681226 2.363134 0.746921 0
M  V30 31 C 2.018239 -0.891679 2.419588 0
M  V30 32 H 1.729414 -4.984357 4.422685 0
M  V30 33 H 2.733152 -3.768935 5.339052 0
M  V30 34 H 3.346724 -4.444331 3.826885 0
M  V30 35 H -0.125201 -4.052919 3.364219 0
M  V30 36 H -0.205229 -2.294626 3.623453 0
M  V30 37 H 0.353276 -2.907846 2.036358 0
M  V30 38 H 4.290559 -2.629153 4.142591 0
M  V30 39 H 5.646297 -0.717789 3.510214 0
M  V30 40 H 4.713064 1.120481 2.168707 0
M  V30 41 H 0.587551 3.476787 0.633451 0
M  V30 42 H 1.165530 2.651441 -0.910949 0
M  V30 43 H -0.559688 3.549952 -2.190511 0
M  V30 44 H -2.298641 3.400742 -1.766655 0
M  V30 45 H -1.234913 4.669485 0.266891 0
M  V30 46 H -0.188257 0.810808 -1.510713 0
M  V30 47 H -1.946560 1.291672 -1.889394 0
M  V30 48 H -2.488834 -1.488760 0.744306 0
M  V30 49 H -0.484513 -1.370444 -2.339011 0
M  V30 50 H -0.869985 -2.751256 -4.267073 0
M  V30 51 H -2.910736 -4.022703 -4.464114 0
M  V30 52 H -4.642979 -3.913321 -2.675579 0
M  V30 53 H 0.987549 -0.936545 2.108162 0
M  V30 END ATOM
M  V30 BEGIN BOND
M  V30 1 1 1 2
M  V30 2 1 2 3
M  V30 3 1 2 4
M  V30 4 2 4 5
M  V30 5 1 5 6
M  V30 6 2 6 7
M  V30 7 1 7 8
M  V30 8 1 8 9
M  V30 9 2 9 10
M  V30 10 1 9 11
M  V30 11 1 11 12
M  V30 12 1 12 13
M  V30 13 1 13 14
M  V30 14 1 14 15
M  V30 15 1 13 16
M  V30 16 1 16 17
M  V30 17 2 17 18
M  V30 18 1 18 19
M  V30 19 2 19 20
M  V30 20 1 20 21
M  V30 21 2 21 22
M  V30 22 1 22 23
M  V30 23 2 23 24
M  V30 24 1 24 25
M  V30 25 2 25 26
M  V30 26 1 25 27
M  V30 27 1 17 28
M  V30 28 2 28 29
M  V30 29 1 28 30
M  V30 30 2 8 31
M  V30 31 1 31 4
M  V30 32 1 30 13
M  V30 33 1 24 19
M  V30 34 1 1 32
M  V30 35 1 1 33
M  V30 36 1 1 34
M  V30 37 1 3 35
M  V30 38 1 3 36
M  V30 39 1 3 37
M  V30 40 1 5 38
M  V30 41 1 6 39
M  V30 42 1 7 40
M  V30 43 1 12 41
M  V30 44 1 12 42
M  V30 45 1 14 43
M  V30 46 1 14 44
M  V30 47 1 15 45
M  V30 48 1 16 46
M  V30 49 1 16 47
M  V30 50 1 18 48
M  V30 51 1 20 49
M  V30 52 1 21 50
M  V30 53 1 22 51
M  V30 54 1 23 52
M  V30 55 1 31 53
M  V30 END BOND
M  V30 END CTAB
M  END
>  <Dataset>  (95) 
ChEMBL_Kinases

>  <Ligand_Instance>  (95) 
nan

>  <PDB_ID>  (95) 
nan

>  <Standardized_SMILES>  (95) 
CN(C)c1cccc(C(=O)OCC2(CO)C/C(=C\c3ccccc3[N+](=O)[O-])C(=O)O2)c1

>  <Name>  (95) 
nan

>  <Pocket>  (95) 
nan

>  <ATP_Site>  (95) 
nan

>  <Peripheral>  (95) 
nan

>  <Num_H_Atoms_ProtBoundConf>  (95) 
nan

>  <Num_Resolved_Atoms>  (95) 
nan

>  <Num_Not_Resolved_Atoms>  (95) 
nan

$$$$
CHEMBL3733095
     RDKit          3D

  0  0  0  0  0  0  0  0  0  0999 V3000
M  V30 BEGIN CTAB
M  V30 COUNTS 41 44 0 0 0
M  V30 BEGIN ATOM
M  V30 1 C -2.876491 -4.467788 2.264547 0
M  V30 2 C -1.693327 -4.078383 1.453358 0
M  V30 3 C -0.936813 -5.165223 0.983216 0
M  V30 4 S 0.462827 -4.326819 0.014086 0
M  V30 5 C -0.104045 -2.734762 0.339149 0
M  V30 6 C 0.364108 -1.394570 -0.022285 0
M  V30 7 O 1.493614 -1.485379 -0.777700 0
M  V30 8 C 2.218378 -0.421568 -1.301599 0
M  V30 9 C 2.758506 0.523742 -0.266819 0 CFG=1
M  V30 10 C 3.675224 -0.134612 0.715686 0
M  V30 11 C 4.797285 0.872831 0.853165 0
M  V30 12 C 4.874417 1.425961 -0.566720 0
M  V30 13 N 3.483942 1.572355 -0.942338 0
M  V30 14 N -0.288882 -0.293244 0.377542 0
M  V30 15 C -1.387766 -0.502692 1.122828 0
M  V30 16 C -2.135657 0.691860 1.583230 0
M  V30 17 C -3.274700 0.575780 2.351623 0
M  V30 18 C -3.910602 1.737650 2.737900 0
M  V30 19 N -3.459116 2.955631 2.392507 0
M  V30 20 C -2.334680 3.053648 1.634539 0
M  V30 21 C -1.636380 1.919172 1.205456 0
M  V30 22 N -1.853238 -1.694570 1.477234 0
M  V30 23 C -1.249720 -2.840204 1.112179 0
M  V30 24 H -3.733095 -4.806976 1.680306 0
M  V30 25 H -3.206850 -3.553853 2.840379 0
M  V30 26 H -2.607153 -5.193471 3.057436 0
M  V30 27 H -1.058375 -6.266008 1.102930 0
M  V30 28 H 1.482335 0.190935 -1.900768 0
M  V30 29 H 3.004205 -0.704594 -2.001106 0
M  V30 30 H 1.949159 1.007994 0.324803 0
M  V30 31 H 4.135324 -1.054446 0.286807 0
M  V30 32 H 3.185976 -0.385207 1.674200 0
M  V30 33 H 4.592521 1.675794 1.562166 0
M  V30 34 H 5.750817 0.329160 1.090643 0
M  V30 35 H 5.352997 0.667542 -1.227912 0
M  V30 36 H 5.453580 2.350300 -0.624160 0
M  V30 37 H 3.420686 1.516314 -1.978956 0
M  V30 38 H -3.635759 -0.394326 2.627718 0
M  V30 39 H -4.818627 1.646628 3.350407 0
M  V30 40 H -1.948063 4.020038 1.341483 0
M  V30 41 H -0.753726 2.069310 0.607921 0
M  V30 END ATOM
M  V30 BEGIN BOND
M  V30 1 1 1 2
M  V30 2 2 2 3
M  V30 3 1 3 4
M  V30 4 1 4 5
M  V30 5 2 5 6
M  V30 6 1 6 7
M  V30 7 1 7 8
M  V30 8 1 8 9
M  V30 9 1 9 10
M  V30 10 1 10 11
M  V30 11 1 11 12
M  V30 12 1 12 13
M  V30 13 1 6 14
M  V30 14 2 14 15
M  V30 15 1 15 16
M  V30 16 2 16 17
M  V30 17 1 17 18
M  V30 18 2 18 19
M  V30 19 1 19 20
M  V30 20 2 20 21
M  V30 21 1 15 22
M  V30 22 2 22 23
M  V30 23 1 23 2
M  V30 24 1 23 5
M  V30 25 1 13 9
M  V30 26 1 21 16
M  V30 27 1 1 24
M  V30 28 1 1 25
M  V30 29 1 1 26
M  V30 30 1 3 27
M  V30 31 1 8 28
M  V30 32 1 8 29
M  V30 33 1 9 30 CFG=1
M  V30 34 1 10 31
M  V30 35 1 10 32
M  V30 36 1 11 33
M  V30 37 1 11 34
M  V30 38 1 12 35
M  V30 39 1 12 36
M  V30 40 1 13 37
M  V30 41 1 17 38
M  V30 42 1 18 39
M  V30 43 1 20 40
M  V30 44 1 21 41
M  V30 END BOND
M  V30 END CTAB
M  END
>  <Dataset>  (96) 
ChEMBL_Kinases

>  <Ligand_Instance>  (96) 
nan

>  <PDB_ID>  (96) 
nan

>  <Standardized_SMILES>  (96) 
Cc1csc2c(OC[C@H]3CCCN3)nc(-c3ccncc3)nc12

>  <Name>  (96) 
nan

>  <Pocket>  (96) 
nan

>  <ATP_Site>  (96) 
nan

>  <Peripheral>  (96) 
nan

>  <Num_H_Atoms_ProtBoundConf>  (96) 
nan

>  <Num_Resolved_Atoms>  (96) 
nan

>  <Num_Not_Resolved_Atoms>  (96) 
nan

$$$$
CHEMBL3733094
     RDKit          3D

  0  0  0  0  0  0  0  0  0  0999 V3000
M  V30 BEGIN CTAB
M  V30 COUNTS 53 57 0 0 0
M  V30 BEGIN ATOM
M  V30 1 N 0.084738 -1.439250 -1.838550 0
M  V30 2 C -1.264769 -1.867635 -1.642105 0 CFG=2
M  V30 3 C -2.145205 -0.944766 -0.872124 0
M  V30 4 N -1.704550 -0.602069 0.461926 0
M  V30 5 C -0.641587 0.352025 0.646886 0
M  V30 6 N -0.160737 0.878306 -0.473875 0
M  V30 7 C 0.783459 1.779160 -0.626331 0
M  V30 8 C 1.310188 2.389600 -1.826578 0
M  V30 9 C 0.831950 2.154447 -3.097677 0
M  V30 10 C 1.317874 2.734637 -4.224360 0
M  V30 11 N 2.334703 3.598822 -4.099381 0
M  V30 12 C 2.863498 3.888599 -2.901718 0
M  V30 13 C 2.344344 3.280934 -1.786041 0
M  V30 14 N 1.297014 2.186879 0.543630 0
M  V30 15 C 0.851752 1.691364 1.713719 0
M  V30 16 S 1.381367 2.102827 3.363558 0
M  V30 17 C 0.201906 0.945483 4.187004 0
M  V30 18 C -0.473252 0.363936 3.131461 0
M  V30 19 C -0.135112 0.751471 1.859013 0
M  V30 20 C -1.426900 -0.575059 3.754322 0
M  V30 21 C -0.716876 -1.703957 4.483982 0
M  V30 22 S -0.091781 -0.985566 6.061224 0
M  V30 23 C 0.106179 0.791919 5.621621 0
M  V30 24 C -1.375491 -3.316038 -1.293344 0
M  V30 25 C -0.710372 -3.772302 -0.083354 0
M  V30 26 C 0.596516 -4.196556 0.021473 0
M  V30 27 C 1.213152 -4.662225 1.159539 0
M  V30 28 C 0.485913 -4.722908 2.316972 0
M  V30 29 C -0.819776 -4.323465 2.312504 0
M  V30 30 C -1.369098 -3.868713 1.136668 0
M  V30 31 H 0.637989 -2.284576 -2.108756 0
M  V30 32 H 0.135262 -0.806798 -2.662818 0
M  V30 33 H -1.711307 -1.802778 -2.715839 0
M  V30 34 H -2.233476 0.042138 -1.462538 0
M  V30 35 H -3.185554 -1.323602 -0.927410 0
M  V30 36 H -2.319420 -1.182548 1.012813 0
M  V30 37 H 0.008141 1.470620 -3.242079 0
M  V30 38 H 0.968376 2.572810 -5.226616 0
M  V30 39 H 3.679416 4.589535 -2.853461 0
M  V30 40 H 2.824093 3.565845 -0.855473 0
M  V30 41 H -2.177704 -1.027231 3.141289 0
M  V30 42 H -1.992639 -0.008642 4.542123 0
M  V30 43 H -1.466445 -2.444550 4.748830 0
M  V30 44 H 0.085982 -2.155439 3.917434 0
M  V30 45 H -0.742262 1.381603 6.023790 0
M  V30 46 H 1.025086 1.140492 6.123383 0
M  V30 47 H -2.481843 -3.535066 -1.217282 0
M  V30 48 H -1.048293 -3.925002 -2.177305 0
M  V30 49 H 1.233955 -4.184373 -0.850703 0
M  V30 50 H 2.242130 -4.980200 1.177021 0
M  V30 51 H 0.943141 -5.083601 3.223061 0
M  V30 52 H -1.384770 -4.374583 3.227630 0
M  V30 53 H -2.422838 -3.567933 1.220448 0
M  V30 END ATOM
M  V30 BEGIN BOND
M  V30 1 1 1 2
M  V30 2 1 2 3
M  V30 3 1 3 4
M  V30 4 1 4 5
M  V30 5 2 5 6
M  V30 6 1 6 7
M  V30 7 1 7 8
M  V30 8 2 8 9
M  V30 9 1 9 10
M  V30 10 2 10 11
M  V30 11 1 11 12
M  V30 12 2 12 13
M  V30 13 2 7 14
M  V30 14 1 14 15
M  V30 15 1 15 16
M  V30 16 1 16 17
M  V30 17 2 17 18
M  V30 18 1 18 19
M  V30 19 1 18 20
M  V30 20 1 20 21
M  V30 21 1 21 22
M  V30 22 1 22 23
M  V30 23 1 2 24
M  V30 24 1 24 25
M  V30 25 2 25 26
M  V30 26 1 26 27
M  V30 27 2 27 28
M  V30 28 1 28 29
M  V30 29 2 29 30
M  V30 30 1 19 5
M  V30 31 1 30 25
M  V30 32 1 13 8
M  V30 33 2 19 15
M  V30 34 1 23 17
M  V30 35 1 1 31
M  V30 36 1 1 32
M  V30 37 1 2 33 CFG=3
M  V30 38 1 3 34
M  V30 39 1 3 35
M  V30 40 1 4 36
M  V30 41 1 9 37
M  V30 42 1 10 38
M  V30 43 1 12 39
M  V30 44 1 13 40
M  V30 45 1 20 41
M  V30 46 1 20 42
M  V30 47 1 21 43
M  V30 48 1 21 44
M  V30 49 1 23 45
M  V30 50 1 23 46
M  V30 51 1 24 47
M  V30 52 1 24 48
M  V30 53 1 26 49
M  V30 54 1 27 50
M  V30 55 1 28 51
M  V30 56 1 29 52
M  V30 57 1 30 53
M  V30 END BOND
M  V30 END CTAB
M  END
>  <Dataset>  (97) 
ChEMBL_Kinases

>  <Ligand_Instance>  (97) 
nan

>  <PDB_ID>  (97) 
nan

>  <Standardized_SMILES>  (97) 
N[C@H](CNc1nc(-c2ccncc2)nc2sc3c(c12)CCSC3)Cc1ccccc1

>  <Name>  (97) 
nan

>  <Pocket>  (97) 
nan

>  <ATP_Site>  (97) 
nan

>  <Peripheral>  (97) 
nan

>  <Num_H_Atoms_ProtBoundConf>  (97) 
nan

>  <Num_Resolved_Atoms>  (97) 
nan

>  <Num_Not_Resolved_Atoms>  (97) 
nan

$$$$
CHEMBL513079
     RDKit          3D

  0  0  0  0  0  0  0  0  0  0999 V3000
M  V30 BEGIN CTAB
M  V30 COUNTS 50 55 0 0 0
M  V30 BEGIN ATOM
M  V30 1 O 4.263897 1.033154 2.004844 0
M  V30 2 C 3.411872 0.259111 2.490533 0
M  V30 3 N 3.391358 -0.321320 3.796465 0
M  V30 4 C 2.233038 -1.131490 3.899857 0
M  V30 5 O 2.055883 -1.716128 4.976832 0
M  V30 6 C 1.483427 -1.100161 2.686855 0
M  V30 7 C 2.209298 -0.265644 1.868947 0
M  V30 8 C 1.764507 0.003155 0.572831 0
M  V30 9 C 2.496884 0.880555 -0.335034 0
M  V30 10 C 3.489426 0.548311 -1.241060 0
M  V30 11 C 4.048758 1.551425 -2.006375 0
M  V30 12 C 3.666084 2.873817 -1.912585 0
M  V30 13 C 2.677972 3.199221 -1.009478 0
M  V30 14 C 2.088396 2.216897 -0.218876 0
M  V30 15 Cl 0.848710 2.783798 0.880378 0
M  V30 16 C 0.594106 -0.585658 0.149353 0
M  V30 17 C -0.131730 -1.419932 0.968556 0
M  V30 18 C 0.329055 -1.668926 2.241645 0
M  V30 19 C -0.557825 -2.517042 2.832539 0
M  V30 20 C -0.690841 -3.132333 4.038063 0
M  V30 21 C -1.727922 -3.970989 4.377247 0
M  V30 22 O -1.883503 -4.612971 5.608313 0
M  V30 23 C -2.723932 -4.216512 3.422253 0
M  V30 24 C -2.586098 -3.590722 2.200031 0
M  V30 25 C -1.519320 -2.737964 1.873710 0
M  V30 26 N -1.278508 -2.065703 0.702095 0
M  V30 27 C -2.152266 -2.161430 -0.434107 0
M  V30 28 C -3.281604 -1.221886 -0.502958 0
M  V30 29 S -2.970834 0.514886 -0.600904 0
M  V30 30 C -2.300220 1.024989 -2.197004 0
M  V30 31 N -3.432335 1.249386 -2.934170 0
M  V30 32 N -3.027725 1.629014 -4.148071 0
M  V30 33 C -1.704277 1.657624 -4.219888 0
M  V30 34 N -1.267764 1.284068 -3.012690 0
M  V30 35 H 4.167970 -0.105820 4.482433 0
M  V30 36 H 3.729861 -0.491929 -1.255730 0
M  V30 37 H 4.821885 1.227792 -2.698422 0
M  V30 38 H 4.145603 3.613774 -2.543186 0
M  V30 39 H 2.377724 4.253291 -0.939707 0
M  V30 40 H 0.252545 -0.396572 -0.827428 0
M  V30 41 H -0.003319 -3.023287 4.834718 0
M  V30 42 H -2.075922 -4.110909 6.466612 0
M  V30 43 H -3.558267 -4.868962 3.644819 0
M  V30 44 H -3.388954 -3.818976 1.500168 0
M  V30 45 H -2.567705 -3.193400 -0.459159 0
M  V30 46 H -1.577462 -2.092189 -1.403664 0
M  V30 47 H -3.882172 -1.512911 -1.423423 0
M  V30 48 H -4.045401 -1.383451 0.318792 0
M  V30 49 H -0.895549 1.872897 -4.899231 0
M  V30 50 H -0.415283 1.116615 -2.446475 0
M  V30 END ATOM
M  V30 BEGIN BOND
M  V30 1 2 1 2
M  V30 2 1 2 3
M  V30 3 1 3 4
M  V30 4 2 4 5
M  V30 5 1 4 6
M  V30 6 2 6 7
M  V30 7 1 7 8
M  V30 8 1 8 9
M  V30 9 2 9 10
M  V30 10 1 10 11
M  V30 11 2 11 12
M  V30 12 1 12 13
M  V30 13 2 13 14
M  V30 14 1 14 15
M  V30 15 2 8 16
M  V30 16 1 16 17
M  V30 17 2 17 18
M  V30 18 1 18 19
M  V30 19 2 19 20
M  V30 20 1 20 21
M  V30 21 1 21 22
M  V30 22 2 21 23
M  V30 23 1 23 24
M  V30 24 2 24 25
M  V30 25 1 25 26
M  V30 26 1 26 27
M  V30 27 1 27 28
M  V30 28 1 28 29
M  V30 29 1 29 30
M  V30 30 2 30 31
M  V30 31 1 31 32
M  V30 32 2 32 33
M  V30 33 1 33 34
M  V30 34 1 7 2
M  V30 35 1 14 9
M  V30 36 1 26 17
M  V30 37 1 34 30
M  V30 38 1 18 6
M  V30 39 1 25 19
M  V30 40 1 3 35
M  V30 41 1 10 36
M  V30 42 1 11 37
M  V30 43 1 12 38
M  V30 44 1 13 39
M  V30 45 1 16 40
M  V30 46 1 20 41
M  V30 47 1 22 42
M  V30 48 1 23 43
M  V30 49 1 24 44
M  V30 50 1 27 45
M  V30 51 1 27 46
M  V30 52 1 28 47
M  V30 53 1 28 48
M  V30 54 1 33 49
M  V30 55 1 34 50
M  V30 END BOND
M  V30 END CTAB
M  END
>  <Dataset>  (98) 
ChEMBL_Kinases

>  <Ligand_Instance>  (98) 
nan

>  <PDB_ID>  (98) 
nan

>  <Standardized_SMILES>  (98) 
O=C1NC(=O)c2c1c(-c1ccccc1Cl)cc1c2c2cc(O)ccc2n1CCSc1nnc[nH]1

>  <Name>  (98) 
nan

>  <Pocket>  (98) 
nan

>  <ATP_Site>  (98) 
nan

>  <Peripheral>  (98) 
nan

>  <Num_H_Atoms_ProtBoundConf>  (98) 
nan

>  <Num_Resolved_Atoms>  (98) 
nan

>  <Num_Not_Resolved_Atoms>  (98) 
nan

$$$$
CHEMBL51313
     RDKit          3D

  0  0  0  0  0  0  0  0  0  0999 V3000
M  V30 BEGIN CTAB
M  V30 COUNTS 84 85 0 0 0
M  V30 BEGIN ATOM
M  V30 1 C -0.006465 1.474385 7.286105 0
M  V30 2 C 0.081704 0.711580 5.940891 0
M  V30 3 C -0.371650 -0.685000 6.148519 0
M  V30 4 C -0.349303 -1.543421 4.968229 0
M  V30 5 C -1.291171 -1.290876 3.882630 0
M  V30 6 C -1.358893 0.014098 3.169752 0
M  V30 7 C -2.368893 -0.205642 2.029723 0
M  V30 8 C -2.586149 0.983035 1.182236 0
M  V30 9 C -1.381077 1.519587 0.449513 0 CFG=2
M  V30 10 C -1.853111 2.693682 -0.312103 0
M  V30 11 O -1.708189 3.921206 -0.052979 0
M  V30 12 N -2.589012 2.451689 -1.532386 0
M  V30 13 C -2.818053 1.490651 -2.559649 0 CFG=2
M  V30 14 C -4.323378 1.256803 -2.752689 0
M  V30 15 O -4.916009 2.478278 -3.110093 0
M  V30 16 C -2.204573 0.200324 -2.202131 0
M  V30 17 C -0.752808 0.298650 -1.710101 0 CFG=2
M  V30 18 C -0.060838 1.298606 -2.598707 0
M  V30 19 C -0.176628 -1.065614 -2.045008 0
M  V30 20 C 1.219468 -1.318399 -1.466082 0
M  V30 21 C 1.096872 -2.649957 -0.804189 0
M  V30 22 C 2.187340 -3.282662 -0.082374 0
M  V30 23 C 1.579216 -4.615538 0.466100 0
M  V30 24 C 1.099367 -5.474314 -0.685010 0
M  V30 25 C 2.073758 -1.439240 -2.696986 0
M  V30 26 C 3.506300 -1.637688 -2.624483 0
M  V30 27 C 4.018099 -1.681192 -4.096192 0
M  V30 28 C 3.684561 -0.376558 -4.779762 0
M  V30 29 C 1.770951 -0.247023 -0.628125 0
M  V30 30 C 0.880098 0.764301 -0.043264 0
M  V30 31 C -0.619557 0.505841 -0.258597 0 CFG=1
M  V30 32 H -0.252757 2.527574 7.145369 0
M  V30 33 H -0.820734 0.996632 7.891393 0
M  V30 34 H 0.967581 1.367346 7.801509 0
M  V30 35 H 1.204952 0.642348 5.710374 0
M  V30 36 H -0.369984 1.306175 5.164250 0
M  V30 37 H -1.413164 -0.634020 6.626498 0
M  V30 38 H 0.208205 -1.171113 7.011961 0
M  V30 39 H -0.515346 -2.626808 5.284343 0
M  V30 40 H 0.699753 -1.573685 4.491618 0
M  V30 41 H -2.350013 -1.533484 4.274531 0
M  V30 42 H -1.124746 -2.140945 3.120169 0
M  V30 43 H -1.869543 0.757474 3.852153 0
M  V30 44 H -0.409807 0.393424 2.882586 0
M  V30 45 H -3.332904 -0.389657 2.581419 0
M  V30 46 H -2.118107 -1.145953 1.557185 0
M  V30 47 H -3.420641 0.765559 0.483414 0
M  V30 48 H -2.904605 1.818180 1.892864 0
M  V30 49 H -0.749404 1.977793 1.260004 0
M  V30 50 H -3.215015 3.241540 -1.851091 0
M  V30 51 H -2.486314 1.912374 -3.531916 0
M  V30 52 H -4.798643 0.847774 -1.851739 0
M  V30 53 H -4.511460 0.562871 -3.581725 0
M  V30 54 H -4.290285 2.981214 -3.717773 0
M  V30 55 H -2.209797 -0.430916 -3.149001 0
M  V30 56 H -2.805520 -0.361413 -1.493050 0
M  V30 57 H 1.000954 1.463420 -2.388295 0
M  V30 58 H -0.065075 0.841123 -3.632849 0
M  V30 59 H -0.523221 2.302993 -2.610764 0
M  V30 60 H -0.222054 -1.153254 -3.143944 0
M  V30 61 H -0.913487 -1.796764 -1.662246 0
M  V30 62 H 0.703367 -3.429397 -1.548499 0
M  V30 63 H 0.215093 -2.609819 -0.078908 0
M  V30 64 H 2.468325 -2.732645 0.861367 0
M  V30 65 H 3.069817 -3.650666 -0.581091 0
M  V30 66 H 2.351644 -5.180987 0.985520 0
M  V30 67 H 0.715062 -4.407478 1.108779 0
M  V30 68 H 1.284844 -6.551214 -0.499034 0
M  V30 69 H 0.046378 -5.271895 -0.966689 0
M  V30 70 H 1.716612 -5.206484 -1.575315 0
M  V30 71 H 1.579487 -2.232298 -3.353265 0
M  V30 72 H 1.888374 -0.506864 -3.325063 0
M  V30 73 H 4.045932 -0.723646 -2.224862 0
M  V30 74 H 3.975936 -2.480037 -2.172498 0
M  V30 75 H 3.546010 -2.564611 -4.573903 0
M  V30 76 H 5.113629 -1.850051 -4.069888 0
M  V30 77 H 4.433809 -0.188532 -5.600733 0
M  V30 78 H 3.775939 0.433846 -4.012216 0
M  V30 79 H 2.680140 -0.414747 -5.229377 0
M  V30 80 H 2.639821 0.294532 -1.112888 0
M  V30 81 H 2.285140 -0.748569 0.251904 0
M  V30 82 H 1.007139 0.891539 1.072272 0
M  V30 83 H 1.054058 1.802893 -0.425406 0
M  V30 84 H -0.781087 -0.483426 0.220088 0
M  V30 END ATOM
M  V30 BEGIN BOND
M  V30 1 1 1 2
M  V30 2 1 2 3
M  V30 3 1 3 4
M  V30 4 1 4 5
M  V30 5 1 5 6
M  V30 6 1 6 7
M  V30 7 1 7 8
M  V30 8 1 8 9
M  V30 9 1 9 10
M  V30 10 2 10 11
M  V30 11 1 10 12
M  V30 12 1 12 13
M  V30 13 1 13 14
M  V30 14 1 14 15
M  V30 15 1 13 16
M  V30 16 1 16 17
M  V30 17 1 17 18 CFG=3
M  V30 18 1 17 19
M  V30 19 1 19 20
M  V30 20 1 20 21
M  V30 21 1 21 22
M  V30 22 1 22 23
M  V30 23 1 23 24
M  V30 24 1 20 25
M  V30 25 1 25 26
M  V30 26 1 26 27
M  V30 27 1 27 28
M  V30 28 1 20 29
M  V30 29 1 29 30
M  V30 30 1 30 31
M  V30 31 1 31 9
M  V30 32 1 31 17
M  V30 33 1 1 32
M  V30 34 1 1 33
M  V30 35 1 1 34
M  V30 36 1 2 35
M  V30 37 1 2 36
M  V30 38 1 3 37
M  V30 39 1 3 38
M  V30 40 1 4 39
M  V30 41 1 4 40
M  V30 42 1 5 41
M  V30 43 1 5 42
M  V30 44 1 6 43
M  V30 45 1 6 44
M  V30 46 1 7 45
M  V30 47 1 7 46
M  V30 48 1 8 47
M  V30 49 1 8 48
M  V30 50 1 9 49 CFG=1
M  V30 51 1 12 50
M  V30 52 1 13 51 CFG=3
M  V30 53 1 14 52
M  V30 54 1 14 53
M  V30 55 1 15 54
M  V30 56 1 16 55
M  V30 57 1 16 56
M  V30 58 1 18 57
M  V30 59 1 18 58
M  V30 60 1 18 59
M  V30 61 1 19 60
M  V30 62 1 19 61
M  V30 63 1 21 62
M  V30 64 1 21 63
M  V30 65 1 22 64
M  V30 66 1 22 65
M  V30 67 1 23 66
M  V30 68 1 23 67
M  V30 69 1 24 68
M  V30 70 1 24 69
M  V30 71 1 24 70
M  V30 72 1 25 71
M  V30 73 1 25 72
M  V30 74 1 26 73
M  V30 75 1 26 74
M  V30 76 1 27 75
M  V30 77 1 27 76
M  V30 78 1 28 77
M  V30 79 1 28 78
M  V30 80 1 28 79
M  V30 81 1 29 80
M  V30 82 1 29 81
M  V30 83 1 30 82
M  V30 84 1 30 83
M  V30 85 1 31 84 CFG=1
M  V30 END BOND
M  V30 END CTAB
M  END
>  <Dataset>  (99) 
ChEMBL_Kinases

>  <Ligand_Instance>  (99) 
nan

>  <PDB_ID>  (99) 
nan

>  <Standardized_SMILES>  (99) 
CCCCCCCC[C@@H]1C(=O)N[C@H](CO)C[C@]2(C)CC(CCCC)(CCCC)CC[C@@H]12

>  <Name>  (99) 
nan

>  <Pocket>  (99) 
nan

>  <ATP_Site>  (99) 
nan

>  <Peripheral>  (99) 
nan

>  <Num_H_Atoms_ProtBoundConf>  (99) 
nan

>  <Num_Resolved_Atoms>  (99) 
nan

>  <Num_Not_Resolved_Atoms>  (99) 
nan

$$$$
CHEMBL513265
     RDKit          3D

  0  0  0  0  0  0  0  0  0  0999 V3000
M  V30 BEGIN CTAB
M  V30 COUNTS 33 36 0 0 0
M  V30 BEGIN ATOM
M  V30 1 C 1.571698 -1.473386 3.601930 0
M  V30 2 O 1.746477 -1.751504 2.178640 0
M  V30 3 C 0.631140 -1.794754 1.373639 0
M  V30 4 C 0.075836 -3.077948 1.480422 0
M  V30 5 O 0.530021 -4.152306 2.242277 0
M  V30 6 C -1.084150 -3.384285 0.754225 0
M  V30 7 C -1.739178 -2.500092 -0.076459 0
M  V30 8 C -1.101446 -1.284851 -0.091124 0
M  V30 9 C 0.011072 -0.895957 0.558277 0
M  V30 10 C 0.657020 0.362885 0.337143 0
M  V30 11 C 1.781595 0.713130 1.017406 0
M  V30 12 C 2.421992 1.915793 0.822656 0
M  V30 13 C 1.819525 2.743225 -0.132138 0
M  V30 14 C 0.682569 2.424190 -0.842462 0
M  V30 15 C 0.095111 1.201380 -0.594905 0
M  V30 16 C -1.106902 0.827885 -1.395142 0
M  V30 17 C -1.890826 -0.259374 -0.801066 0
M  V30 18 N -2.797841 -1.014936 -1.594203 0
M  V30 19 C -2.833886 -2.352849 -1.026966 0
M  V30 20 O -3.600227 -3.350154 -1.201878 0
M  V30 21 H 2.540918 -1.574642 4.097825 0
M  V30 22 H 0.795746 -2.154098 4.008797 0
M  V30 23 H 1.197758 -0.446191 3.756229 0
M  V30 24 H 1.518518 -4.279519 2.331546 0
M  V30 25 H -1.564262 -4.364563 0.792712 0
M  V30 26 H 2.335065 0.173824 1.733978 0
M  V30 27 H 3.309865 2.316767 1.288366 0
M  V30 28 H 2.235794 3.712083 -0.367220 0
M  V30 29 H 0.252609 3.094287 -1.570516 0
M  V30 30 H -1.739422 1.750868 -1.413026 0
M  V30 31 H -0.825054 0.634775 -2.450609 0
M  V30 32 H -2.565724 0.166962 0.041424 0
M  V30 33 H -3.420430 -0.908717 -2.424671 0
M  V30 END ATOM
M  V30 BEGIN BOND
M  V30 1 1 1 2
M  V30 2 1 2 3
M  V30 3 2 3 4
M  V30 4 1 4 5
M  V30 5 1 4 6
M  V30 6 2 6 7
M  V30 7 1 7 8
M  V30 8 2 8 9
M  V30 9 1 9 10
M  V30 10 2 10 11
M  V30 11 1 11 12
M  V30 12 2 12 13
M  V30 13 1 13 14
M  V30 14 2 14 15
M  V30 15 1 15 16
M  V30 16 1 16 17
M  V30 17 1 17 18
M  V30 18 1 18 19
M  V30 19 2 19 20
M  V30 20 1 9 3
M  V30 21 1 15 10
M  V30 22 1 19 7
M  V30 23 1 17 8
M  V30 24 1 1 21
M  V30 25 1 1 22
M  V30 26 1 1 23
M  V30 27 1 5 24
M  V30 28 1 6 25
M  V30 29 1 11 26
M  V30 30 1 12 27
M  V30 31 1 13 28
M  V30 32 1 14 29
M  V30 33 1 16 30
M  V30 34 1 16 31
M  V30 35 1 17 32
M  V30 36 1 18 33
M  V30 END BOND
M  V30 END CTAB
M  END
>  <Dataset>  (100) 
ChEMBL_Kinases

>  <Ligand_Instance>  (100) 
nan

>  <PDB_ID>  (100) 
nan

>  <Standardized_SMILES>  (100) 
COc1c(O)cc2c3c1-c1ccccc1CC3NC2=O

>  <Name>  (100) 
nan

>  <Pocket>  (100) 
nan

>  <ATP_Site>  (100) 
nan

>  <Peripheral>  (100) 
nan

>  <Num_H_Atoms_ProtBoundConf>  (100) 
nan

>  <Num_Resolved_Atoms>  (100) 
nan

>  <Num_Not_Resolved_Atoms>  (100) 
nan

$$$$
CHEMBL513330
     RDKit          3D

  0  0  0  0  0  0  0  0  0  0999 V3000
M  V30 BEGIN CTAB
M  V30 COUNTS 37 40 0 0 0
M  V30 BEGIN ATOM
M  V30 1 Cl -1.620191 -5.333481 3.018636 0
M  V30 2 C -0.357278 -4.557076 2.084578 0
M  V30 3 C -0.582236 -4.064773 0.795044 0
M  V30 4 C 0.409456 -3.455204 0.061536 0
M  V30 5 C 1.672188 -3.295846 0.546485 0
M  V30 6 C 2.894796 -2.704918 -0.010669 0
M  V30 7 N 3.031258 -1.272760 0.306064 0
M  V30 8 C 2.412999 -0.068705 -0.105081 0
M  V30 9 N 3.256793 0.602362 -0.942408 0
M  V30 10 C 2.950826 1.779189 -1.514980 0
M  V30 11 C 1.678428 2.223172 -1.150648 0
M  V30 12 C 0.785771 1.610599 -0.323887 0
M  V30 13 C -0.514597 2.184973 -0.065706 0
M  V30 14 C -0.934194 3.400992 -0.554926 0
M  V30 15 N -2.192776 3.596447 -0.134592 0
M  V30 16 N -2.586788 2.569994 0.592361 0
M  V30 17 N -3.716042 2.251387 1.235401 0
M  V30 18 C -3.855530 1.109473 1.913339 0
M  V30 19 C -2.852409 0.163873 2.010629 0
M  V30 20 C -1.701756 0.488779 1.355572 0
M  V30 21 C -1.577012 1.690660 0.650501 0
M  V30 22 N 1.212682 0.444763 0.182408 0
M  V30 23 C 1.859760 -3.804064 1.845765 0
M  V30 24 C 0.910841 -4.410680 2.603679 0
M  V30 25 H -1.573821 -4.162353 0.339061 0
M  V30 26 H 0.294907 -3.051872 -0.943445 0
M  V30 27 H 2.959341 -2.845284 -1.122296 0
M  V30 28 H 3.793939 -3.199410 0.384841 0
M  V30 29 H 3.775013 -1.010705 1.025475 0
M  V30 30 H 3.605301 2.330170 -2.181596 0
M  V30 31 H 1.407266 3.187991 -1.604846 0
M  V30 32 H -0.455600 4.153321 -1.168416 0
M  V30 33 H -4.830576 0.982511 2.387187 0
M  V30 34 H -3.006953 -0.751981 2.567185 0
M  V30 35 H -0.869985 -0.196048 1.385253 0
M  V30 36 H 2.830957 -3.746333 2.369594 0
M  V30 37 H 1.082869 -4.795589 3.605873 0
M  V30 END ATOM
M  V30 BEGIN BOND
M  V30 1 1 1 2
M  V30 2 2 2 3
M  V30 3 1 3 4
M  V30 4 2 4 5
M  V30 5 1 5 6
M  V30 6 1 6 7
M  V30 7 1 7 8
M  V30 8 2 8 9
M  V30 9 1 9 10
M  V30 10 2 10 11
M  V30 11 1 11 12
M  V30 12 1 12 13
M  V30 13 1 13 14
M  V30 14 2 14 15
M  V30 15 1 15 16
M  V30 16 1 16 17
M  V30 17 2 17 18
M  V30 18 1 18 19
M  V30 19 2 19 20
M  V30 20 1 20 21
M  V30 21 2 12 22
M  V30 22 1 5 23
M  V30 23 2 23 24
M  V30 24 1 24 2
M  V30 25 1 22 8
M  V30 26 2 21 13
M  V30 27 1 21 16
M  V30 28 1 3 25
M  V30 29 1 4 26
M  V30 30 1 6 27
M  V30 31 1 6 28
M  V30 32 1 7 29
M  V30 33 1 10 30
M  V30 34 1 11 31
M  V30 35 1 14 32
M  V30 36 1 18 33
M  V30 37 1 19 34
M  V30 38 1 20 35
M  V30 39 1 23 36
M  V30 40 1 24 37
M  V30 END BOND
M  V30 END CTAB
M  END
>  <Dataset>  (101) 
ChEMBL_Kinases

>  <Ligand_Instance>  (101) 
nan

>  <PDB_ID>  (101) 
nan

>  <Standardized_SMILES>  (101) 
Clc1ccc(CNc2nccc(-c3cnn4ncccc34)n2)cc1

>  <Name>  (101) 
GW781673X

>  <Pocket>  (101) 
nan

>  <ATP_Site>  (101) 
nan

>  <Peripheral>  (101) 
nan

>  <Num_H_Atoms_ProtBoundConf>  (101) 
nan

>  <Num_Resolved_Atoms>  (101) 
nan

>  <Num_Not_Resolved_Atoms>  (101) 
nan

$$$$
CHEMBL3733048
     RDKit          3D

  0  0  0  0  0  0  0  0  0  0999 V3000
M  V30 BEGIN CTAB
M  V30 COUNTS 48 51 0 0 0
M  V30 BEGIN ATOM
M  V30 1 C -1.346451 -6.363333 0.896624 0
M  V30 2 C -0.520263 -5.112811 0.954966 0
M  V30 3 C -1.336598 -3.930508 1.331655 0
M  V30 4 C -1.325511 -2.837406 0.279506 0
M  V30 5 C 0.042740 -2.321006 0.135436 0
M  V30 6 C 0.777836 -3.446894 -0.207446 0
M  V30 7 S 2.408876 -2.960747 -0.403765 0
M  V30 8 C 2.092521 -1.160851 -0.007364 0
M  V30 9 N 2.925991 -0.081955 0.049739 0
M  V30 10 C 2.439041 1.121905 0.364043 0
M  V30 11 C 3.366407 2.226998 0.409502 0
M  V30 12 C 2.866232 3.463760 0.732397 0
M  V30 13 C 3.811672 4.495512 0.760796 0
M  V30 14 N 5.123554 4.312441 0.494108 0
M  V30 15 C 5.554331 3.082688 0.184813 0
M  V30 16 C 4.693627 1.980244 0.128027 0
M  V30 17 N 1.131009 1.128107 0.596591 0
M  V30 18 C 0.282180 0.116254 0.554918 0
M  V30 19 N -1.067660 0.435010 0.856870 0
M  V30 20 C -1.443311 1.792172 1.179839 0
M  V30 21 C -2.871576 2.041618 1.481483 0 CFG=1
M  V30 22 C -3.800845 1.690447 0.341594 0
M  V30 23 N -3.323188 1.428744 2.708996 0
M  V30 24 C 0.713160 -1.145511 0.239389 0
M  V30 25 C 0.190914 -4.842588 -0.368034 0
M  V30 26 H -1.886363 -6.493294 -0.062980 0
M  V30 27 H -0.667449 -7.228837 1.100253 0
M  V30 28 H -2.100954 -6.313338 1.683857 0
M  V30 29 H 0.280452 -5.273086 1.704353 0
M  V30 30 H -1.035948 -3.491044 2.284424 0
M  V30 31 H -2.395869 -4.256366 1.463059 0
M  V30 32 H -1.685888 -3.304008 -0.696997 0
M  V30 33 H -2.115890 -2.131053 0.528011 0
M  V30 34 H 1.823399 3.648019 0.951737 0
M  V30 35 H 3.451561 5.497946 1.014511 0
M  V30 36 H 6.630113 3.036657 -0.014146 0
M  V30 37 H 5.113181 1.027615 -0.126748 0
M  V30 38 H -1.977834 -0.029725 0.933104 0
M  V30 39 H -0.871823 2.032570 2.127220 0
M  V30 40 H -1.036650 2.483058 0.410721 0
M  V30 41 H -2.986357 3.137166 1.632764 0
M  V30 42 H -4.680757 2.336018 0.379062 0
M  V30 43 H -4.182358 0.655114 0.581134 0
M  V30 44 H -3.301723 1.625709 -0.630069 0
M  V30 45 H -4.341010 1.204862 2.638556 0
M  V30 46 H -3.145751 2.014681 3.552545 0
M  V30 47 H -0.551137 -4.892110 -1.161315 0
M  V30 48 H 1.024391 -5.566057 -0.493015 0
M  V30 END ATOM
M  V30 BEGIN BOND
M  V30 1 1 1 2
M  V30 2 1 2 3
M  V30 3 1 3 4
M  V30 4 1 4 5
M  V30 5 2 5 6
M  V30 6 1 6 7
M  V30 7 1 7 8
M  V30 8 2 8 9
M  V30 9 1 9 10
M  V30 10 1 10 11
M  V30 11 2 11 12
M  V30 12 1 12 13
M  V30 13 2 13 14
M  V30 14 1 14 15
M  V30 15 2 15 16
M  V30 16 2 10 17
M  V30 17 1 17 18
M  V30 18 1 18 19
M  V30 19 1 19 20
M  V30 20 1 20 21
M  V30 21 1 21 22
M  V30 22 1 21 23
M  V30 23 2 18 24
M  V30 24 1 6 25
M  V30 25 1 25 2
M  V30 26 1 24 5
M  V30 27 1 24 8
M  V30 28 1 16 11
M  V30 29 1 1 26
M  V30 30 1 1 27
M  V30 31 1 1 28
M  V30 32 1 2 29
M  V30 33 1 3 30
M  V30 34 1 3 31
M  V30 35 1 4 32
M  V30 36 1 4 33
M  V30 37 1 12 34
M  V30 38 1 13 35
M  V30 39 1 15 36
M  V30 40 1 16 37
M  V30 41 1 19 38
M  V30 42 1 20 39
M  V30 43 1 20 40
M  V30 44 1 21 41 CFG=1
M  V30 45 1 22 42
M  V30 46 1 22 43
M  V30 47 1 22 44
M  V30 48 1 23 45
M  V30 49 1 23 46
M  V30 50 1 25 47
M  V30 51 1 25 48
M  V30 END BOND
M  V30 END CTAB
M  END
>  <Dataset>  (102) 
ChEMBL_Kinases

>  <Ligand_Instance>  (102) 
nan

>  <PDB_ID>  (102) 
nan

>  <Standardized_SMILES>  (102) 
CC1CCc2c(sc3nc(-c4ccncc4)nc(NC[C@@H](C)N)c23)C1

>  <Name>  (102) 
nan

>  <Pocket>  (102) 
nan

>  <ATP_Site>  (102) 
nan

>  <Peripheral>  (102) 
nan

>  <Num_H_Atoms_ProtBoundConf>  (102) 
nan

>  <Num_Resolved_Atoms>  (102) 
nan

>  <Num_Not_Resolved_Atoms>  (102) 
nan

$$$$
CHEMBL3733074
     RDKit          3D

  0  0  0  0  0  0  0  0  0  0999 V3000
M  V30 BEGIN CTAB
M  V30 COUNTS 58 62 0 0 0
M  V30 BEGIN ATOM
M  V30 1 C -5.286747 0.739845 4.229696 0
M  V30 2 O -4.308196 -0.066002 4.798661 0
M  V30 3 C -3.290733 -0.737861 4.185932 0
M  V30 4 C -2.466404 -1.470905 5.050060 0
M  V30 5 C -1.443907 -2.146225 4.430174 0
M  V30 6 C -1.096521 -2.221027 3.103967 0
M  V30 7 C 0.031303 -3.005779 2.589518 0
M  V30 8 C 1.345010 -2.298710 2.559256 0 CFG=1
M  V30 9 N 2.328148 -3.245306 2.017330 0
M  V30 10 C 1.356031 -1.078856 1.672838 0
M  V30 11 O 1.015365 -1.412048 0.352884 0
M  V30 12 C 0.979231 -0.398260 -0.611805 0
M  V30 13 N 1.273048 0.860198 -0.242490 0
M  V30 14 C 1.290421 1.932434 -1.004557 0
M  V30 15 C 1.637579 3.271264 -0.480681 0
M  V30 16 C 1.988572 3.337342 0.858970 0
M  V30 17 C 2.307688 4.601681 1.297417 0
M  V30 18 N 2.279263 5.674441 0.492891 0
M  V30 19 C 1.941112 5.619483 -0.802622 0
M  V30 20 C 1.602925 4.356289 -1.318931 0
M  V30 21 N 0.977854 1.732827 -2.292466 0
M  V30 22 C 0.667604 0.530634 -2.783932 0
M  V30 23 S 0.226976 -0.090102 -4.351107 0
M  V30 24 C 0.039227 -1.820953 -3.859203 0
M  V30 25 C 0.343592 -1.810532 -2.443092 0
M  V30 26 C 0.665006 -0.540944 -1.952887 0
M  V30 27 C 0.193262 -3.206163 -1.968953 0
M  V30 28 C 1.088959 -4.066358 -2.842309 0
M  V30 29 C 0.446424 -4.246308 -4.196918 0
M  V30 30 C -0.321839 -3.024063 -4.636353 0
M  V30 31 C -1.953126 -1.470217 2.294423 0
M  V30 32 C -3.026527 -0.746569 2.831645 0
M  V30 33 H -5.003200 1.003392 3.199935 0
M  V30 34 H -6.248967 0.156537 4.250740 0
M  V30 35 H -5.454734 1.640256 4.870270 0
M  V30 36 H -2.556852 -1.554131 6.141356 0
M  V30 37 H -0.768577 -2.738639 5.077386 0
M  V30 38 H -0.172855 -3.338786 1.542872 0
M  V30 39 H 0.133188 -3.905238 3.246522 0
M  V30 40 H 1.684866 -1.966589 3.559548 0
M  V30 41 H 3.277089 -2.820556 1.939813 0
M  V30 42 H 2.308168 -4.143486 2.544697 0
M  V30 43 H 2.326990 -0.568824 1.665009 0
M  V30 44 H 0.567939 -0.381509 2.056289 0
M  V30 45 H 2.032339 2.517416 1.555280 0
M  V30 46 H 2.588745 4.702792 2.335773 0
M  V30 47 H 1.890288 6.428501 -1.519450 0
M  V30 48 H 1.304145 4.152020 -2.359053 0
M  V30 49 H -0.857611 -3.559494 -2.071187 0
M  V30 50 H 0.549494 -3.315244 -0.928795 0
M  V30 51 H 1.159724 -5.056462 -2.315186 0
M  V30 52 H 2.117111 -3.669525 -2.907861 0
M  V30 53 H -0.240359 -5.112672 -4.156627 0
M  V30 54 H 1.230926 -4.432629 -4.941315 0
M  V30 55 H -1.401553 -3.233314 -4.565137 0
M  V30 56 H -0.100082 -2.772454 -5.697028 0
M  V30 57 H -1.768591 -1.456581 1.211718 0
M  V30 58 H -3.683626 -0.165883 2.174342 0
M  V30 END ATOM
M  V30 BEGIN BOND
M  V30 1 1 1 2
M  V30 2 1 2 3
M  V30 3 2 3 4
M  V30 4 1 4 5
M  V30 5 2 5 6
M  V30 6 1 6 7
M  V30 7 1 7 8
M  V30 8 1 8 9
M  V30 9 1 8 10
M  V30 10 1 10 11
M  V30 11 1 11 12
M  V30 12 2 12 13
M  V30 13 1 13 14
M  V30 14 1 14 15
M  V30 15 2 15 16
M  V30 16 1 16 17
M  V30 17 2 17 18
M  V30 18 1 18 19
M  V30 19 2 19 20
M  V30 20 2 14 21
M  V30 21 1 21 22
M  V30 22 1 22 23
M  V30 23 1 23 24
M  V30 24 2 24 25
M  V30 25 1 25 26
M  V30 26 1 25 27
M  V30 27 1 27 28
M  V30 28 1 28 29
M  V30 29 1 29 30
M  V30 30 1 6 31
M  V30 31 2 31 32
M  V30 32 1 32 3
M  V30 33 1 26 12
M  V30 34 1 20 15
M  V30 35 2 26 22
M  V30 36 1 30 24
M  V30 37 1 1 33
M  V30 38 1 1 34
M  V30 39 1 1 35
M  V30 40 1 4 36
M  V30 41 1 5 37
M  V30 42 1 7 38
M  V30 43 1 7 39
M  V30 44 1 8 40 CFG=1
M  V30 45 1 9 41
M  V30 46 1 9 42
M  V30 47 1 10 43
M  V30 48 1 10 44
M  V30 49 1 16 45
M  V30 50 1 17 46
M  V30 51 1 19 47
M  V30 52 1 20 48
M  V30 53 1 27 49
M  V30 54 1 27 50
M  V30 55 1 28 51
M  V30 56 1 28 52
M  V30 57 1 29 53
M  V30 58 1 29 54
M  V30 59 1 30 55
M  V30 60 1 30 56
M  V30 61 1 31 57
M  V30 62 1 32 58
M  V30 END BOND
M  V30 END CTAB
M  END
>  <Dataset>  (103) 
ChEMBL_Kinases

>  <Ligand_Instance>  (103) 
nan

>  <PDB_ID>  (103) 
nan

>  <Standardized_SMILES>  (103) 
COc1ccc(C[C@@H](N)COc2nc(-c3ccncc3)nc3sc4c(c23)CCCC4)cc1

>  <Name>  (103) 
nan

>  <Pocket>  (103) 
nan

>  <ATP_Site>  (103) 
nan

>  <Peripheral>  (103) 
nan

>  <Num_H_Atoms_ProtBoundConf>  (103) 
nan

>  <Num_Resolved_Atoms>  (103) 
nan

>  <Num_Not_Resolved_Atoms>  (103) 
nan

$$$$
CHEMBL575739
     RDKit          3D

  0  0  0  0  0  0  0  0  0  0999 V3000
M  V30 BEGIN CTAB
M  V30 COUNTS 38 42 0 0 0
M  V30 BEGIN ATOM
M  V30 1 O 3.307102 -7.381838 1.515067 0
M  V30 2 C 3.188009 -6.141906 1.251051 0
M  V30 3 C 1.941126 -5.403799 1.395244 0
M  V30 4 C 0.773367 -6.008793 1.838211 0
M  V30 5 N -0.205653 -5.076195 1.867571 0
M  V30 6 C 0.270429 -3.866519 1.458218 0
M  V30 7 C 1.601609 -4.086295 1.169287 0
M  V30 8 C 2.413363 -3.065439 0.718759 0
M  V30 9 C 1.885017 -1.790949 0.551407 0
M  V30 10 C 0.562478 -1.622101 0.850221 0
M  V30 11 C -0.237008 -0.487905 0.785679 0
M  V30 12 C 0.027804 0.833836 0.403839 0
M  V30 13 C -1.025899 1.753029 0.455515 0
M  V30 14 C -0.591585 3.083080 0.028263 0
M  V30 15 C -1.341007 3.872432 -0.850991 0
M  V30 16 C -0.857781 5.127798 -1.208705 0
M  V30 17 C 0.331147 5.639768 -0.738412 0
M  V30 18 F 0.724374 6.872262 -1.140060 0
M  V30 19 C 1.089332 4.867212 0.137484 0
M  V30 20 C 0.598223 3.624716 0.483556 0
M  V30 21 F 1.402646 2.924033 1.350495 0
M  V30 22 C -2.294728 1.396018 0.865483 0
M  V30 23 C -2.565445 0.096290 1.243608 0
M  V30 24 C -1.513549 -0.820611 1.191850 0
M  V30 25 N -1.529048 -2.147692 1.511065 0
M  V30 26 C -0.286438 -2.613162 1.303193 0
M  V30 27 H 4.117070 -5.735248 0.916372 0
M  V30 28 H 0.597821 -7.037626 2.127582 0
M  V30 29 H -1.225046 -5.149454 2.146217 0
M  V30 30 H 3.464522 -3.219556 0.485995 0
M  V30 31 H 2.518322 -0.991702 0.199256 0
M  V30 32 H 1.026524 1.035941 0.099888 0
M  V30 33 H -2.274909 3.468953 -1.219715 0
M  V30 34 H -1.514161 5.652236 -1.891319 0
M  V30 35 H 2.013307 5.255781 0.507852 0
M  V30 36 H -3.024258 2.194367 0.862792 0
M  V30 37 H -3.559714 -0.166423 1.560817 0
M  V30 38 H -2.332643 -2.705670 1.849544 0
M  V30 END ATOM
M  V30 BEGIN BOND
M  V30 1 2 1 2
M  V30 2 1 2 3
M  V30 3 2 3 4
M  V30 4 1 4 5
M  V30 5 1 5 6
M  V30 6 2 6 7
M  V30 7 1 7 8
M  V30 8 2 8 9
M  V30 9 1 9 10
M  V30 10 1 10 11
M  V30 11 2 11 12
M  V30 12 1 12 13
M  V30 13 1 13 14
M  V30 14 2 14 15
M  V30 15 1 15 16
M  V30 16 2 16 17
M  V30 17 1 17 18
M  V30 18 1 17 19
M  V30 19 2 19 20
M  V30 20 1 20 21
M  V30 21 2 13 22
M  V30 22 1 22 23
M  V30 23 2 23 24
M  V30 24 1 24 25
M  V30 25 1 25 26
M  V30 26 1 7 3
M  V30 27 2 26 10
M  V30 28 1 26 6
M  V30 29 1 24 11
M  V30 30 1 20 14
M  V30 31 1 2 27
M  V30 32 1 4 28
M  V30 33 1 5 29
M  V30 34 1 8 30
M  V30 35 1 9 31
M  V30 36 1 12 32
M  V30 37 1 15 33
M  V30 38 1 16 34
M  V30 39 1 19 35
M  V30 40 1 22 36
M  V30 41 1 23 37
M  V30 42 1 25 38
M  V30 END BOND
M  V30 END CTAB
M  END
>  <Dataset>  (104) 
ChEMBL_Kinases

>  <Ligand_Instance>  (104) 
nan

>  <PDB_ID>  (104) 
nan

>  <Standardized_SMILES>  (104) 
O=Cc1c[nH]c2c1ccc1c3cc(-c4ccc(F)cc4F)ccc3[nH]c12

>  <Name>  (104) 
nan

>  <Pocket>  (104) 
nan

>  <ATP_Site>  (104) 
nan

>  <Peripheral>  (104) 
nan

>  <Num_H_Atoms_ProtBoundConf>  (104) 
nan

>  <Num_Resolved_Atoms>  (104) 
nan

>  <Num_Not_Resolved_Atoms>  (104) 
nan

$$$$
CHEMBL513429
     RDKit          3D

  0  0  0  0  0  0  0  0  0  0999 V3000
M  V30 BEGIN CTAB
M  V30 COUNTS 36 38 0 0 0
M  V30 BEGIN ATOM
M  V30 1 C -1.306308 -2.174647 2.180362 0
M  V30 2 C -1.056762 -2.708426 0.805454 0
M  V30 3 C -1.397443 -4.188050 0.796220 0
M  V30 4 C 0.405754 -2.506087 0.435837 0
M  V30 5 C 1.231460 -3.236290 1.423644 0
M  V30 6 N 2.618062 -2.897521 1.446433 0
M  V30 7 C 2.913053 -1.530680 1.341542 0
M  V30 8 O 3.981905 -0.941500 1.698361 0
M  V30 9 C 1.934050 -0.585814 0.764011 0
M  V30 10 C 1.887983 0.770088 0.515351 0
M  V30 11 C 0.673545 1.090208 -0.057191 0
M  V30 12 C 0.240221 2.430220 -0.468515 0
M  V30 13 C -1.009917 2.585060 -1.028350 0
M  V30 14 C -1.410714 3.868618 -1.416247 0
M  V30 15 N -0.605924 4.929927 -1.251950 0
M  V30 16 C 0.607803 4.743613 -0.702347 0
M  V30 17 C 1.086323 3.504619 -0.288791 0
M  V30 18 N -0.016781 -0.045122 -0.160169 0
M  V30 19 C 0.700605 -1.074484 0.319947 0
M  V30 20 H -0.427277 -1.572066 2.507006 0
M  V30 21 H -2.190960 -1.512418 2.240692 0
M  V30 22 H -1.482672 -2.994427 2.899547 0
M  V30 23 H -1.726686 -2.230956 0.041952 0
M  V30 24 H -2.370481 -4.409453 0.318111 0
M  V30 25 H -1.439056 -4.600931 1.837960 0
M  V30 26 H -0.631052 -4.781241 0.255502 0
M  V30 27 H 0.517540 -2.957230 -0.585561 0
M  V30 28 H 1.167656 -4.331652 1.155866 0
M  V30 29 H 0.855508 -3.157958 2.463438 0
M  V30 30 H 3.469228 -3.499356 1.529054 0
M  V30 31 H 2.687729 1.458895 0.740450 0
M  V30 32 H -1.624290 1.700346 -1.141194 0
M  V30 33 H -2.411260 3.857647 -1.841514 0
M  V30 34 H 1.258573 5.620375 -0.572623 0
M  V30 35 H 2.060890 3.400659 0.144803 0
M  V30 36 H -0.976638 -0.150839 -0.552106 0
M  V30 END ATOM
M  V30 BEGIN BOND
M  V30 1 1 1 2
M  V30 2 1 2 3
M  V30 3 1 2 4
M  V30 4 1 4 5
M  V30 5 1 5 6
M  V30 6 1 6 7
M  V30 7 2 7 8
M  V30 8 1 7 9
M  V30 9 1 9 10
M  V30 10 2 10 11
M  V30 11 1 11 12
M  V30 12 2 12 13
M  V30 13 1 13 14
M  V30 14 2 14 15
M  V30 15 1 15 16
M  V30 16 2 16 17
M  V30 17 1 11 18
M  V30 18 1 18 19
M  V30 19 1 19 4
M  V30 20 2 19 9
M  V30 21 1 17 12
M  V30 22 1 1 20
M  V30 23 1 1 21
M  V30 24 1 1 22
M  V30 25 1 2 23
M  V30 26 1 3 24
M  V30 27 1 3 25
M  V30 28 1 3 26
M  V30 29 1 4 27
M  V30 30 1 5 28
M  V30 31 1 5 29
M  V30 32 1 6 30
M  V30 33 1 10 31
M  V30 34 1 13 32
M  V30 35 1 14 33
M  V30 36 1 16 34
M  V30 37 1 17 35
M  V30 38 1 18 36
M  V30 END BOND
M  V30 END CTAB
M  END
>  <Dataset>  (105) 
ChEMBL_Kinases

>  <Ligand_Instance>  (105) 
nan

>  <PDB_ID>  (105) 
nan

>  <Standardized_SMILES>  (105) 
CC(C)C1CNC(=O)c2cc(-c3ccncc3)[nH]c21

>  <Name>  (105) 
nan

>  <Pocket>  (105) 
nan

>  <ATP_Site>  (105) 
nan

>  <Peripheral>  (105) 
nan

>  <Num_H_Atoms_ProtBoundConf>  (105) 
nan

>  <Num_Resolved_Atoms>  (105) 
nan

>  <Num_Not_Resolved_Atoms>  (105) 
nan

$$$$
CHEMBL575721
     RDKit          3D

  0  0  0  0  0  0  0  0  0  0999 V3000
M  V30 BEGIN CTAB
M  V30 COUNTS 52 55 0 0 0
M  V30 BEGIN ATOM
M  V30 1 C 1.845385 -6.210723 -2.304874 0
M  V30 2 O 2.983387 -6.288352 -1.489243 0
M  V30 3 C 3.459487 -5.264418 -0.684094 0
M  V30 4 C 4.591969 -5.463631 0.074089 0
M  V30 5 C 5.059966 -4.444642 0.871022 0
M  V30 6 C 4.413989 -3.244312 0.915747 0
M  V30 7 C 3.263962 -2.977502 0.174149 0
M  V30 8 N 2.631993 -1.713275 0.257658 0
M  V30 9 C 1.470824 -1.249067 -0.415491 0
M  V30 10 C 0.997666 0.028046 -0.204178 0
M  V30 11 C -0.143412 0.516189 -0.851797 0
M  V30 12 O -0.424026 1.817318 -0.485559 0
M  V30 13 C -1.062198 2.072162 0.705444 0
M  V30 14 C -0.161569 2.837855 1.465245 0
M  V30 15 C -0.476597 3.285969 2.757233 0
M  V30 16 C 0.390251 4.095814 3.647217 0
M  V30 17 C -1.718541 2.970103 3.319496 0
M  V30 18 C -2.123602 3.407263 4.680228 0
M  V30 19 N -2.547379 2.236303 2.555159 0
M  V30 20 C -2.254459 1.806952 1.324917 0
M  V30 21 C -3.175463 1.030810 0.533651 0
M  V30 22 C -3.698368 -0.008734 1.306243 0
M  V30 23 C -4.638396 -0.916194 0.802474 0
M  V30 24 C -5.072073 -0.786154 -0.510211 0
M  V30 25 C -4.524864 0.262764 -1.242058 0
M  V30 26 N -3.624921 1.105717 -0.708968 0
M  V30 27 C -0.765125 -0.348067 -1.710143 0
M  V30 28 C -0.322225 -1.625924 -1.944312 0
M  V30 29 N 0.767359 -1.988526 -1.279299 0
M  V30 30 C 2.846022 -4.034667 -0.602168 0
M  V30 31 H 1.985649 -6.930447 -3.162526 0
M  V30 32 H 1.707278 -5.216848 -2.781152 0
M  V30 33 H 0.915593 -6.433385 -1.752533 0
M  V30 34 H 5.113686 -6.409547 0.048293 0
M  V30 35 H 5.944045 -4.604982 1.460784 0
M  V30 36 H 4.832483 -2.479662 1.563990 0
M  V30 37 H 3.099969 -1.034706 0.913978 0
M  V30 38 H 1.570406 0.637573 0.502457 0
M  V30 39 H 0.837148 3.196270 1.240187 0
M  V30 40 H -0.007046 5.146152 3.654058 0
M  V30 41 H 0.417263 3.721723 4.677414 0
M  V30 42 H 1.413946 4.200936 3.202708 0
M  V30 43 H -1.896836 4.477194 4.858868 0
M  V30 44 H -1.672446 2.743243 5.458409 0
M  V30 45 H -3.222507 3.302401 4.747505 0
M  V30 46 H -3.473301 -0.254981 2.339359 0
M  V30 47 H -5.073175 -1.725891 1.337284 0
M  V30 48 H -5.796192 -1.454159 -0.959367 0
M  V30 49 H -4.799164 0.446692 -2.272500 0
M  V30 50 H -1.629096 0.053660 -2.205159 0
M  V30 51 H -0.872996 -2.240854 -2.636665 0
M  V30 52 H 1.980590 -3.946000 -1.209276 0
M  V30 END ATOM
M  V30 BEGIN BOND
M  V30 1 1 1 2
M  V30 2 1 2 3
M  V30 3 2 3 4
M  V30 4 1 4 5
M  V30 5 2 5 6
M  V30 6 1 6 7
M  V30 7 1 7 8
M  V30 8 1 8 9
M  V30 9 2 9 10
M  V30 10 1 10 11
M  V30 11 1 11 12
M  V30 12 1 12 13
M  V30 13 2 13 14
M  V30 14 1 14 15
M  V30 15 1 15 16
M  V30 16 2 15 17
M  V30 17 1 17 18
M  V30 18 1 17 19
M  V30 19 2 19 20
M  V30 20 1 20 21
M  V30 21 2 21 22
M  V30 22 1 22 23
M  V30 23 2 23 24
M  V30 24 1 24 25
M  V30 25 2 25 26
M  V30 26 2 11 27
M  V30 27 1 27 28
M  V30 28 2 28 29
M  V30 29 2 7 30
M  V30 30 1 30 3
M  V30 31 1 29 9
M  V30 32 1 20 13
M  V30 33 1 26 21
M  V30 34 1 1 31
M  V30 35 1 1 32
M  V30 36 1 1 33
M  V30 37 1 4 34
M  V30 38 1 5 35
M  V30 39 1 6 36
M  V30 40 1 8 37
M  V30 41 1 10 38
M  V30 42 1 14 39
M  V30 43 1 16 40
M  V30 44 1 16 41
M  V30 45 1 16 42
M  V30 46 1 18 43
M  V30 47 1 18 44
M  V30 48 1 18 45
M  V30 49 1 22 46
M  V30 50 1 23 47
M  V30 51 1 24 48
M  V30 52 1 25 49
M  V30 53 1 27 50
M  V30 54 1 28 51
M  V30 55 1 30 52
M  V30 END BOND
M  V30 END CTAB
M  END
>  <Dataset>  (106) 
ChEMBL_Kinases

>  <Ligand_Instance>  (106) 
nan

>  <PDB_ID>  (106) 
nan

>  <Standardized_SMILES>  (106) 
COc1cccc(Nc2cc(Oc3cc(C)c(C)nc3-c3ccccn3)ccn2)c1

>  <Name>  (106) 
nan

>  <Pocket>  (106) 
nan

>  <ATP_Site>  (106) 
nan

>  <Peripheral>  (106) 
nan

>  <Num_H_Atoms_ProtBoundConf>  (106) 
nan

>  <Num_Resolved_Atoms>  (106) 
nan

>  <Num_Not_Resolved_Atoms>  (106) 
nan

$$$$
CHEMBL513551
     RDKit          3D

  0  0  0  0  0  0  0  0  0  0999 V3000
M  V30 BEGIN CTAB
M  V30 COUNTS 52 54 0 0 0
M  V30 BEGIN ATOM
M  V30 1 C -2.178222 -4.086087 -2.009271 0
M  V30 2 C -1.592856 -3.162154 -0.973937 0
M  V30 3 C -0.625957 -3.815775 -0.050749 0
M  V30 4 C -0.148205 -2.771705 0.898383 0
M  V30 5 O -0.283696 -2.840566 2.126183 0
M  V30 6 O 0.505055 -1.604862 0.478027 0
M  V30 7 C 0.961597 -0.623759 1.371296 0
M  V30 8 C 1.571688 0.500988 0.582992 0
M  V30 9 C 2.838099 0.180197 -0.123418 0
M  V30 10 O 3.719183 -0.377102 0.827759 0
M  V30 11 C 1.865939 1.661915 1.550980 0
M  V30 12 C 0.483700 2.219483 1.679624 0
M  V30 13 C -0.057037 3.025969 2.581286 0
M  V30 14 C -1.413252 3.552591 2.669836 0
M  V30 15 C -1.912944 3.333356 3.962078 0
M  V30 16 C -3.177933 3.745630 4.336353 0
M  V30 17 C -3.977975 4.397758 3.401615 0
M  V30 18 Cl -5.594936 4.980950 3.704033 0
M  V30 19 C -3.477566 4.611407 2.127725 0
M  V30 20 F -4.153311 5.229781 1.134858 0
M  V30 21 C -2.212758 4.192387 1.775266 0
M  V30 22 C -0.346829 1.677540 0.575698 0
M  V30 23 O -1.608915 1.728708 0.434975 0
M  V30 24 O 0.582576 1.081965 -0.295785 0
M  V30 25 C 0.573270 -4.358416 -0.727745 0
M  V30 26 C 0.800721 -5.728034 -0.558944 0
M  V30 27 C 1.916959 -6.290014 -1.165609 0
M  V30 28 C 2.739066 -5.456075 -1.903078 0
M  V30 29 C 2.541700 -4.090352 -2.090867 0
M  V30 30 C 1.422626 -3.571642 -1.472285 0
M  V30 31 H -2.431536 -5.092124 -1.607249 0
M  V30 32 H -1.561645 -4.143525 -2.932864 0
M  V30 33 H -3.146839 -3.640058 -2.324139 0
M  V30 34 H -2.456015 -2.806791 -0.352783 0
M  V30 35 H -1.129987 -2.318481 -1.512602 0
M  V30 36 H -1.168767 -4.588635 0.524413 0
M  V30 37 H 0.104589 -0.262194 1.967284 0
M  V30 38 H 1.686063 -1.057536 2.090789 0
M  V30 39 H 2.740417 -0.456181 -1.012505 0
M  V30 40 H 3.318459 1.167481 -0.374274 0
M  V30 41 H 4.661936 -0.199425 0.564937 0
M  V30 42 H 2.290496 1.297503 2.483406 0
M  V30 43 H 2.463418 2.413206 1.014381 0
M  V30 44 H 0.687031 3.304428 3.350939 0
M  V30 45 H -1.402081 2.836685 4.798742 0
M  V30 46 H -3.613496 3.606160 5.306354 0
M  V30 47 H -1.764871 4.341001 0.823473 0
M  V30 48 H 0.173482 -6.392645 0.011131 0
M  V30 49 H 2.109418 -7.337716 -1.048304 0
M  V30 50 H 3.611654 -5.908627 -2.374233 0
M  V30 51 H 3.214105 -3.490128 -2.674493 0
M  V30 52 H 1.218722 -2.513022 -1.585996 0
M  V30 END ATOM
M  V30 BEGIN BOND
M  V30 1 1 1 2
M  V30 2 1 2 3
M  V30 3 1 3 4
M  V30 4 2 4 5
M  V30 5 1 4 6
M  V30 6 1 6 7
M  V30 7 1 7 8
M  V30 8 1 8 9
M  V30 9 1 9 10
M  V30 10 1 8 11
M  V30 11 1 11 12
M  V30 12 2 12 13
M  V30 13 1 13 14
M  V30 14 2 14 15
M  V30 15 1 15 16
M  V30 16 2 16 17
M  V30 17 1 17 18
M  V30 18 1 17 19
M  V30 19 1 19 20
M  V30 20 2 19 21
M  V30 21 1 12 22
M  V30 22 2 22 23
M  V30 23 1 22 24
M  V30 24 1 3 25
M  V30 25 2 25 26
M  V30 26 1 26 27
M  V30 27 2 27 28
M  V30 28 1 28 29
M  V30 29 2 29 30
M  V30 30 1 24 8
M  V30 31 1 30 25
M  V30 32 1 21 14
M  V30 33 1 1 31
M  V30 34 1 1 32
M  V30 35 1 1 33
M  V30 36 1 2 34
M  V30 37 1 2 35
M  V30 38 1 3 36
M  V30 39 1 7 37
M  V30 40 1 7 38
M  V30 41 1 9 39
M  V30 42 1 9 40
M  V30 43 1 10 41
M  V30 44 1 11 42
M  V30 45 1 11 43
M  V30 46 1 13 44
M  V30 47 1 15 45
M  V30 48 1 16 46
M  V30 49 1 21 47
M  V30 50 1 26 48
M  V30 51 1 27 49
M  V30 52 1 28 50
M  V30 53 1 29 51
M  V30 54 1 30 52
M  V30 END BOND
M  V30 END CTAB
M  END
>  <Dataset>  (107) 
ChEMBL_Kinases

>  <Ligand_Instance>  (107) 
nan

>  <PDB_ID>  (107) 
nan

>  <Standardized_SMILES>  (107) 
CCC(C(=O)OCC1(CO)C/C(=C/c2ccc(Cl)c(F)c2)C(=O)O1)c1ccccc1

>  <Name>  (107) 
nan

>  <Pocket>  (107) 
nan

>  <ATP_Site>  (107) 
nan

>  <Peripheral>  (107) 
nan

>  <Num_H_Atoms_ProtBoundConf>  (107) 
nan

>  <Num_Resolved_Atoms>  (107) 
nan

>  <Num_Not_Resolved_Atoms>  (107) 
nan

$$$$
CHEMBL513570
     RDKit          3D

  0  0  0  0  0  0  0  0  0  0999 V3000
M  V30 BEGIN CTAB
M  V30 COUNTS 51 55 0 0 0
M  V30 BEGIN ATOM
M  V30 1 C 2.093364 -5.680419 2.743827 0
M  V30 2 O 1.974303 -5.359965 1.380460 0
M  V30 3 C 2.319100 -4.102347 0.923693 0
M  V30 4 C 2.790930 -3.124438 1.796659 0
M  V30 5 C 3.146181 -1.850374 1.369682 0
M  V30 6 C 3.010440 -1.580127 0.006327 0
M  V30 7 N 3.378848 -0.273683 -0.414679 0
M  V30 8 C 4.684623 0.060969 -0.538579 0
M  V30 9 N 4.780879 1.348897 -0.950221 0
M  V30 10 C 3.509541 1.804641 -1.078725 0
M  V30 11 C 3.008303 3.033532 -1.463747 0
M  V30 12 C 1.632355 3.161902 -1.486424 0
M  V30 13 C 0.736274 2.159012 -1.155010 0
M  V30 14 C -0.698125 2.407602 -1.215972 0
M  V30 15 N -1.274912 3.564851 -1.579153 0
M  V30 16 N -2.606602 3.413845 -1.513713 0
M  V30 17 C -2.829795 2.133275 -1.100628 0
M  V30 18 S -4.548920 1.687695 -0.935661 0
M  V30 19 C -4.713286 -0.024550 -0.382029 0
M  V30 20 C -4.205973 -0.243514 0.994709 0
M  V30 21 C -5.154146 -0.055400 2.007702 0
M  V30 22 C -4.776801 -0.236585 3.334996 0
M  V30 23 C -3.478542 -0.598473 3.645089 0
M  V30 24 C -2.546966 -0.784057 2.662118 0
M  V30 25 C -1.130079 -1.170838 2.875062 0
M  V30 26 F -0.792682 -2.305025 2.147112 0
M  V30 27 F -0.302309 -0.124141 2.587880 0
M  V30 28 F -0.968230 -1.516956 4.203216 0
M  V30 29 C -2.916452 -0.604559 1.327222 0
M  V30 30 O -1.653875 1.557113 -0.931222 0
M  V30 31 C 1.243121 0.934290 -0.771378 0
M  V30 32 C 2.636180 0.805187 -0.748662 0
M  V30 33 C 2.543736 -2.519683 -0.912654 0
M  V30 34 C 2.214408 -3.761888 -0.393990 0
M  V30 35 H 1.516678 -6.612030 2.976353 0
M  V30 36 H 3.152659 -5.912288 2.935873 0
M  V30 37 H 1.717653 -4.881856 3.414317 0
M  V30 38 H 2.902495 -3.317139 2.858790 0
M  V30 39 H 3.506428 -1.115609 2.059915 0
M  V30 40 H 5.636158 -0.470558 -0.381634 0
M  V30 41 H 3.641398 3.865611 -1.737145 0
M  V30 42 H 1.232993 4.136731 -1.791588 0
M  V30 43 H -5.789443 -0.324316 -0.441925 0
M  V30 44 H -4.190605 -0.703198 -1.116529 0
M  V30 45 H -6.175174 0.226575 1.803508 0
M  V30 46 H -5.499381 -0.094866 4.128024 0
M  V30 47 H -3.161705 -0.744252 4.661189 0
M  V30 48 H -2.264050 -0.725102 0.465854 0
M  V30 49 H 0.593595 0.113076 -0.501179 0
M  V30 50 H 2.470896 -2.226387 -1.943650 0
M  V30 51 H 1.852217 -4.496887 -1.098821 0
M  V30 END ATOM
M  V30 BEGIN BOND
M  V30 1 1 1 2
M  V30 2 1 2 3
M  V30 3 2 3 4
M  V30 4 1 4 5
M  V30 5 2 5 6
M  V30 6 1 6 7
M  V30 7 1 7 8
M  V30 8 2 8 9
M  V30 9 1 9 10
M  V30 10 2 10 11
M  V30 11 1 11 12
M  V30 12 2 12 13
M  V30 13 1 13 14
M  V30 14 2 14 15
M  V30 15 1 15 16
M  V30 16 2 16 17
M  V30 17 1 17 18
M  V30 18 1 18 19
M  V30 19 1 19 20
M  V30 20 2 20 21
M  V30 21 1 21 22
M  V30 22 2 22 23
M  V30 23 1 23 24
M  V30 24 1 24 25
M  V30 25 1 25 26
M  V30 26 1 25 27
M  V30 27 1 25 28
M  V30 28 2 24 29
M  V30 29 1 17 30
M  V30 30 1 13 31
M  V30 31 2 31 32
M  V30 32 1 6 33
M  V30 33 2 33 34
M  V30 34 1 34 3
M  V30 35 1 32 7
M  V30 36 1 32 10
M  V30 37 1 30 14
M  V30 38 1 29 20
M  V30 39 1 1 35
M  V30 40 1 1 36
M  V30 41 1 1 37
M  V30 42 1 4 38
M  V30 43 1 5 39
M  V30 44 1 8 40
M  V30 45 1 11 41
M  V30 46 1 12 42
M  V30 47 1 19 43
M  V30 48 1 19 44
M  V30 49 1 21 45
M  V30 50 1 22 46
M  V30 51 1 23 47
M  V30 52 1 29 48
M  V30 53 1 31 49
M  V30 54 1 33 50
M  V30 55 1 34 51
M  V30 END BOND
M  V30 END CTAB
M  END
>  <Dataset>  (108) 
ChEMBL_Kinases

>  <Ligand_Instance>  (108) 
nan

>  <PDB_ID>  (108) 
nan

>  <Standardized_SMILES>  (108) 
COc1ccc(-n2cnc3ccc(-c4nnc(SCc5cccc(C(F)(F)F)c5)o4)cc32)cc1

>  <Name>  (108) 
nan

>  <Pocket>  (108) 
nan

>  <ATP_Site>  (108) 
nan

>  <Peripheral>  (108) 
nan

>  <Num_H_Atoms_ProtBoundConf>  (108) 
nan

>  <Num_Resolved_Atoms>  (108) 
nan

>  <Num_Not_Resolved_Atoms>  (108) 
nan

$$$$
CHEMBL513576
     RDKit          3D

  0  0  0  0  0  0  0  0  0  0999 V3000
M  V30 BEGIN CTAB
M  V30 COUNTS 36 39 0 0 0
M  V30 BEGIN ATOM
M  V30 1 F 2.768119 -4.444941 4.230115 0
M  V30 2 C 2.335583 -4.150503 2.969371 0
M  V30 3 C 0.994671 -4.206750 2.624616 0
M  V30 4 C 0.580091 -3.901008 1.330030 0
M  V30 5 C 1.543654 -3.544128 0.414371 0
M  V30 6 C 2.879134 -3.487590 0.755965 0
M  V30 7 S 3.999563 -3.007127 -0.548975 0
M  V30 8 C 4.215267 -1.204509 -0.569825 0
M  V30 9 C 2.940670 -0.531109 -0.944335 0
M  V30 10 N 2.555138 -0.221390 -2.195585 0
M  V30 11 N 1.362672 0.365226 -2.080844 0
M  V30 12 C 0.997384 0.427455 -0.785543 0
M  V30 13 C -0.201666 0.969082 -0.152830 0
M  V30 14 C -0.273226 0.876964 1.221895 0
M  V30 15 C -1.390308 1.372738 1.901418 0
M  V30 16 C -2.390533 1.946768 1.111989 0
M  V30 17 C -2.313049 2.034797 -0.250876 0
M  V30 18 C -1.202727 1.540547 -0.910685 0
M  V30 19 C -3.539191 2.694458 -0.749123 0
M  V30 20 C -4.473013 2.575323 0.436149 0
M  V30 21 O -3.590347 2.508826 1.524099 0
M  V30 22 O 1.993929 -0.131818 -0.140360 0
M  V30 23 C 3.299714 -3.791699 2.046876 0
M  V30 24 H 0.302512 -4.495589 3.401871 0
M  V30 25 H -0.483023 -3.950183 1.073486 0
M  V30 26 H 1.154101 -3.318849 -0.574328 0
M  V30 27 H 4.420948 -0.927229 0.504663 0
M  V30 28 H 5.082370 -0.889584 -1.145606 0
M  V30 29 H 0.471296 0.444359 1.866222 0
M  V30 30 H -1.502129 1.328492 2.978503 0
M  V30 31 H -1.146119 1.612556 -1.988446 0
M  V30 32 H -3.368114 3.749040 -1.059216 0
M  V30 33 H -3.990245 2.099370 -1.593613 0
M  V30 34 H -5.162609 1.712830 0.346040 0
M  V30 35 H -5.026365 3.545275 0.498646 0
M  V30 36 H 4.369514 -3.726971 2.248847 0
M  V30 END ATOM
M  V30 BEGIN BOND
M  V30 1 1 1 2
M  V30 2 2 2 3
M  V30 3 1 3 4
M  V30 4 2 4 5
M  V30 5 1 5 6
M  V30 6 1 6 7
M  V30 7 1 7 8
M  V30 8 1 8 9
M  V30 9 2 9 10
M  V30 10 1 10 11
M  V30 11 2 11 12
M  V30 12 1 12 13
M  V30 13 2 13 14
M  V30 14 1 14 15
M  V30 15 2 15 16
M  V30 16 1 16 17
M  V30 17 2 17 18
M  V30 18 1 17 19
M  V30 19 1 19 20
M  V30 20 1 20 21
M  V30 21 1 12 22
M  V30 22 2 6 23
M  V30 23 1 23 2
M  V30 24 1 22 9
M  V30 25 1 18 13
M  V30 26 1 21 16
M  V30 27 1 3 24
M  V30 28 1 4 25
M  V30 29 1 5 26
M  V30 30 1 8 27
M  V30 31 1 8 28
M  V30 32 1 14 29
M  V30 33 1 15 30
M  V30 34 1 18 31
M  V30 35 1 19 32
M  V30 36 1 19 33
M  V30 37 1 20 34
M  V30 38 1 20 35
M  V30 39 1 23 36
M  V30 END BOND
M  V30 END CTAB
M  END
>  <Dataset>  (109) 
ChEMBL_Kinases

>  <Ligand_Instance>  (109) 
nan

>  <PDB_ID>  (109) 
nan

>  <Standardized_SMILES>  (109) 
Fc1cccc(SCc2nnc(-c3ccc4c(c3)CCO4)o2)c1

>  <Name>  (109) 
nan

>  <Pocket>  (109) 
nan

>  <ATP_Site>  (109) 
nan

>  <Peripheral>  (109) 
nan

>  <Num_H_Atoms_ProtBoundConf>  (109) 
nan

>  <Num_Resolved_Atoms>  (109) 
nan

>  <Num_Not_Resolved_Atoms>  (109) 
nan

$$$$
CHEMBL575720
     RDKit          3D

  0  0  0  0  0  0  0  0  0  0999 V3000
M  V30 BEGIN CTAB
M  V30 COUNTS 61 65 0 0 0
M  V30 BEGIN ATOM
M  V30 1 C 1.028438 -2.725770 6.005150 0
M  V30 2 C 1.064829 -2.983140 4.537424 0
M  V30 3 C 2.108647 -2.470707 3.800141 0
M  V30 4 C 2.207052 -2.668742 2.447226 0
M  V30 5 O 3.176665 -2.231820 1.564562 0
M  V30 6 C 2.956235 -1.388317 0.490442 0
M  V30 7 C 3.873306 -1.027627 -0.470168 0
M  V30 8 C 3.593371 -0.180939 -1.519031 0
M  V30 9 N 2.337068 0.314846 -1.591209 0
M  V30 10 C 1.383899 0.011955 -0.692864 0
M  V30 11 N 0.097585 0.597746 -0.881413 0
M  V30 12 C -0.214281 1.879327 -0.384635 0
M  V30 13 C 0.796763 2.531922 0.281016 0
M  V30 14 C 0.501489 3.792783 0.762557 0
M  V30 15 C -0.757895 4.341982 0.567132 0
M  V30 16 C -1.756381 3.652254 -0.111289 0
M  V30 17 C -1.468704 2.392283 -0.594519 0
M  V30 18 N -2.529510 1.735509 -1.262836 0
M  V30 19 C -3.274689 0.526301 -0.936286 0
M  V30 20 C -4.044671 0.016570 -2.112825 0
M  V30 21 O -4.897738 0.962616 -2.661757 0
M  V30 22 C -4.510916 2.269009 -2.451512 0
M  V30 23 C -2.999052 2.322907 -2.503975 0
M  V30 24 C 1.670350 -0.849605 0.373647 0
M  V30 25 C 1.217669 -3.413886 1.799585 0
M  V30 26 C 1.078502 -3.782704 0.391431 0
M  V30 27 C 2.234317 -4.245122 -0.204873 0
M  V30 28 C 2.219754 -4.622431 -1.542835 0
M  V30 29 C 0.993704 -4.494427 -2.179051 0
M  V30 30 C -0.154002 -4.032034 -1.574226 0
M  V30 31 N -0.089692 -3.673530 -0.259668 0
M  V30 32 N 0.186456 -3.919539 2.530176 0
M  V30 33 C 0.105664 -3.714760 3.857132 0
M  V30 34 C -1.032246 -4.271376 4.672750 0
M  V30 35 H 0.439721 -3.534860 6.481220 0
M  V30 36 H 2.094094 -2.808680 6.337484 0
M  V30 37 H 0.616819 -1.755630 6.282481 0
M  V30 38 H 2.898474 -1.893920 4.218332 0
M  V30 39 H 4.856797 -1.468926 -0.338260 0
M  V30 40 H 4.372119 0.052668 -2.234379 0
M  V30 41 H -0.288380 -0.205386 -1.405833 0
M  V30 42 H 1.776866 2.101026 0.433060 0
M  V30 43 H 1.276960 4.342263 1.295699 0
M  V30 44 H -0.900581 5.342976 0.980761 0
M  V30 45 H -2.695467 4.201408 -0.192579 0
M  V30 46 H -2.532330 -0.240420 -0.642044 0
M  V30 47 H -3.929405 0.702502 -0.046206 0
M  V30 48 H -4.707094 -0.803890 -1.723558 0
M  V30 49 H -3.364511 -0.374120 -2.872051 0
M  V30 50 H -4.979443 2.897401 -3.231987 0
M  V30 51 H -4.883265 2.561880 -1.432928 0
M  V30 52 H -2.642476 1.609392 -3.304837 0
M  V30 53 H -2.595575 3.334554 -2.684037 0
M  V30 54 H 0.830482 -0.998825 1.011011 0
M  V30 55 H 3.161888 -4.328219 0.324176 0
M  V30 56 H 3.093799 -4.996612 -2.079986 0
M  V30 57 H 0.972463 -4.783106 -3.208879 0
M  V30 58 H -1.044434 -3.977498 -2.179096 0
M  V30 59 H -1.803954 -4.660614 3.965623 0
M  V30 60 H -1.484703 -3.487193 5.277036 0
M  V30 61 H -0.668667 -5.140321 5.259805 0
M  V30 END ATOM
M  V30 BEGIN BOND
M  V30 1 1 1 2
M  V30 2 2 2 3
M  V30 3 1 3 4
M  V30 4 1 4 5
M  V30 5 1 5 6
M  V30 6 2 6 7
M  V30 7 1 7 8
M  V30 8 2 8 9
M  V30 9 1 9 10
M  V30 10 1 10 11
M  V30 11 1 11 12
M  V30 12 2 12 13
M  V30 13 1 13 14
M  V30 14 2 14 15
M  V30 15 1 15 16
M  V30 16 2 16 17
M  V30 17 1 17 18
M  V30 18 1 18 19
M  V30 19 1 19 20
M  V30 20 1 20 21
M  V30 21 1 21 22
M  V30 22 1 22 23
M  V30 23 2 10 24
M  V30 24 2 4 25
M  V30 25 1 25 26
M  V30 26 2 26 27
M  V30 27 1 27 28
M  V30 28 2 28 29
M  V30 29 1 29 30
M  V30 30 2 30 31
M  V30 31 1 25 32
M  V30 32 2 32 33
M  V30 33 1 33 34
M  V30 34 1 33 2
M  V30 35 1 24 6
M  V30 36 1 31 26
M  V30 37 1 17 12
M  V30 38 1 23 18
M  V30 39 1 1 35
M  V30 40 1 1 36
M  V30 41 1 1 37
M  V30 42 1 3 38
M  V30 43 1 7 39
M  V30 44 1 8 40
M  V30 45 1 11 41
M  V30 46 1 13 42
M  V30 47 1 14 43
M  V30 48 1 15 44
M  V30 49 1 16 45
M  V30 50 1 19 46
M  V30 51 1 19 47
M  V30 52 1 20 48
M  V30 53 1 20 49
M  V30 54 1 22 50
M  V30 55 1 22 51
M  V30 56 1 23 52
M  V30 57 1 23 53
M  V30 58 1 24 54
M  V30 59 1 27 55
M  V30 60 1 28 56
M  V30 61 1 29 57
M  V30 62 1 30 58
M  V30 63 1 34 59
M  V30 64 1 34 60
M  V30 65 1 34 61
M  V30 END BOND
M  V30 END CTAB
M  END
>  <Dataset>  (110) 
ChEMBL_Kinases

>  <Ligand_Instance>  (110) 
nan

>  <PDB_ID>  (110) 
nan

>  <Standardized_SMILES>  (110) 
Cc1cc(Oc2ccnc(Nc3ccccc3N3CCOCC3)c2)c(-c2ccccn2)nc1C

>  <Name>  (110) 
nan

>  <Pocket>  (110) 
nan

>  <ATP_Site>  (110) 
nan

>  <Peripheral>  (110) 
nan

>  <Num_H_Atoms_ProtBoundConf>  (110) 
nan

>  <Num_Resolved_Atoms>  (110) 
nan

>  <Num_Not_Resolved_Atoms>  (110) 
nan

$$$$
CHEMBL513626
     RDKit          3D

  0  0  0  0  0  0  0  0  0  0999 V3000
M  V30 BEGIN CTAB
M  V30 COUNTS 51 52 0 0 0
M  V30 BEGIN ATOM
M  V30 1 C -0.887702 -3.732879 2.110302 0
M  V30 2 C -0.335442 -3.090268 3.344475 0
M  V30 3 C 0.989465 -2.393948 3.102328 0
M  V30 4 C 2.052638 -3.304779 2.617409 0
M  V30 5 C 3.389306 -2.751262 2.360955 0
M  V30 6 C 3.596529 -1.698203 1.344483 0
M  V30 7 C 2.906697 -0.427869 1.498829 0
M  V30 8 C 2.064287 0.210270 0.668192 0
M  V30 9 C 1.307507 1.493919 0.713083 0
M  V30 10 C 1.094610 1.808562 -0.756476 0
M  V30 11 C 2.184698 2.775428 -1.249255 0
M  V30 12 O 2.066409 4.002641 -0.586109 0
M  V30 13 C -0.204139 2.487557 -1.017621 0
M  V30 14 O -1.360482 1.742412 -0.722700 0
M  V30 15 C -1.736015 0.559682 -1.309203 0
M  V30 16 O -1.083571 -0.022814 -2.208535 0
M  V30 17 C -2.978252 -0.073305 -0.863993 0
M  V30 18 C -3.438171 -1.258844 -1.390984 0
M  V30 19 C -4.606015 -1.885676 -0.995493 0
M  V30 20 C -5.343194 -1.264104 -0.005960 0
M  V30 21 C -4.945290 -0.075074 0.568779 0
M  V30 22 C -3.768828 0.493475 0.124613 0
M  V30 23 O 1.307429 0.622307 -1.481873 0
M  V30 24 C 1.715210 -0.374389 -0.604502 0
M  V30 25 O 1.762745 -1.595632 -0.902409 0
M  V30 26 H -1.966023 -3.945129 2.288753 0
M  V30 27 H -0.871061 -3.068060 1.224386 0
M  V30 28 H -0.439570 -4.729051 1.901994 0
M  V30 29 H -0.230335 -3.872755 4.122029 0
M  V30 30 H -1.089920 -2.363341 3.705424 0
M  V30 31 H 0.782086 -1.589907 2.375746 0
M  V30 32 H 1.248085 -1.901637 4.050178 0
M  V30 33 H 2.192782 -4.078239 3.439186 0
M  V30 34 H 1.662326 -3.946056 1.779622 0
M  V30 35 H 4.059397 -3.622905 2.063559 0
M  V30 36 H 3.819757 -2.468217 3.369994 0
M  V30 37 H 4.706400 -1.420331 1.479206 0
M  V30 38 H 3.637039 -2.088225 0.300883 0
M  V30 39 H 3.080740 0.124784 2.433671 0
M  V30 40 H 0.388772 1.454685 1.301458 0
M  V30 41 H 1.997805 2.246288 1.154049 0
M  V30 42 H 3.186991 2.352869 -1.173193 0
M  V30 43 H 2.000129 2.978911 -2.323408 0
M  V30 44 H 1.866249 4.748428 -1.203909 0
M  V30 45 H -0.295253 3.455259 -0.495866 0
M  V30 46 H -0.181526 2.771741 -2.117930 0
M  V30 47 H -2.878861 -1.760055 -2.163313 0
M  V30 48 H -4.947634 -2.818858 -1.425160 0
M  V30 49 H -6.276004 -1.683296 0.369210 0
M  V30 50 H -5.502459 0.431200 1.343226 0
M  V30 51 H -3.452637 1.417988 0.566527 0
M  V30 END ATOM
M  V30 BEGIN BOND
M  V30 1 1 1 2
M  V30 2 1 2 3
M  V30 3 1 3 4
M  V30 4 1 4 5
M  V30 5 1 5 6
M  V30 6 1 6 7
M  V30 7 2 7 8
M  V30 8 1 8 9
M  V30 9 1 9 10
M  V30 10 1 10 11
M  V30 11 1 11 12
M  V30 12 1 10 13
M  V30 13 1 13 14
M  V30 14 1 14 15
M  V30 15 2 15 16
M  V30 16 1 15 17
M  V30 17 2 17 18
M  V30 18 1 18 19
M  V30 19 2 19 20
M  V30 20 1 20 21
M  V30 21 2 21 22
M  V30 22 1 10 23
M  V30 23 1 23 24
M  V30 24 2 24 25
M  V30 25 1 24 8
M  V30 26 1 22 17
M  V30 27 1 1 26
M  V30 28 1 1 27
M  V30 29 1 1 28
M  V30 30 1 2 29
M  V30 31 1 2 30
M  V30 32 1 3 31
M  V30 33 1 3 32
M  V30 34 1 4 33
M  V30 35 1 4 34
M  V30 36 1 5 35
M  V30 37 1 5 36
M  V30 38 1 6 37
M  V30 39 1 6 38
M  V30 40 1 7 39
M  V30 41 1 9 40
M  V30 42 1 9 41
M  V30 43 1 11 42
M  V30 44 1 11 43
M  V30 45 1 12 44
M  V30 46 1 13 45
M  V30 47 1 13 46
M  V30 48 1 18 47
M  V30 49 1 19 48
M  V30 50 1 20 49
M  V30 51 1 21 50
M  V30 52 1 22 51
M  V30 END BOND
M  V30 END CTAB
M  END
>  <Dataset>  (111) 
ChEMBL_Kinases

>  <Ligand_Instance>  (111) 
nan

>  <PDB_ID>  (111) 
nan

>  <Standardized_SMILES>  (111) 
CCCCCC/C=C1/CC(CO)(COC(=O)c2ccccc2)OC1=O

>  <Name>  (111) 
nan

>  <Pocket>  (111) 
nan

>  <ATP_Site>  (111) 
nan

>  <Peripheral>  (111) 
nan

>  <Num_H_Atoms_ProtBoundConf>  (111) 
nan

>  <Num_Resolved_Atoms>  (111) 
nan

>  <Num_Not_Resolved_Atoms>  (111) 
nan

$$$$
CHEMBL513752
     RDKit          3D

  0  0  0  0  0  0  0  0  0  0999 V3000
M  V30 BEGIN CTAB
M  V30 COUNTS 57 60 0 0 0
M  V30 BEGIN ATOM
M  V30 1 C 2.549927 -5.061552 1.826742 0
M  V30 2 O 2.744114 -3.687852 2.084246 0
M  V30 3 C 1.850697 -2.787227 1.526103 0
M  V30 4 C 0.832112 -3.288523 0.757156 0
M  V30 5 C -0.079632 -2.426800 0.185817 0
M  V30 6 C 0.120532 -1.078807 0.450482 0
M  V30 7 C 1.168850 -0.509022 1.238811 0
M  V30 8 O 1.279703 0.915902 1.414656 0
M  V30 9 C 2.043005 1.675840 0.509485 0
M  V30 10 C 2.049774 -1.448980 1.784002 0
M  V30 11 O 3.067611 -0.958419 2.550868 0
M  V30 12 C 3.021931 -0.742345 3.944378 0
M  V30 13 C -0.647824 0.152602 0.104954 0
M  V30 14 C -1.184386 0.641375 -1.085933 0
M  V30 15 C -1.778053 1.881521 -1.028264 0
M  V30 16 C -1.806136 2.546323 0.173828 0
M  V30 17 C -1.279211 2.059003 1.347850 0
M  V30 18 C -0.667613 0.817171 1.369277 0
M  V30 19 O -0.106812 0.208682 2.540058 0
M  V30 20 C -0.927517 -0.600290 3.358042 0
M  V30 21 O -1.473873 2.966757 2.357912 0
M  V30 22 C -2.324881 4.011173 1.859571 0
M  V30 23 O -2.346572 3.794225 0.450831 0
M  V30 24 C -1.273079 -0.003929 -2.447129 0
M  V30 25 C -2.014001 -1.306850 -2.195632 0 CFG=1
M  V30 26 C -2.968605 -1.447344 -3.392688 0
M  V30 27 C -1.128878 -2.494724 -2.057645 0 CFG=1
M  V30 28 C 0.282672 -2.275643 -2.587841 0
M  V30 29 C -1.094904 -3.105269 -0.669498 0
M  V30 30 H 1.520597 -5.299617 2.207393 0
M  V30 31 H 2.480028 -5.180491 0.714334 0
M  V30 32 H 3.329087 -5.698344 2.254135 0
M  V30 33 H 0.640050 -4.319174 0.528477 0
M  V30 34 H 2.566937 2.496904 1.005124 0
M  V30 35 H 2.822577 1.006627 0.058573 0
M  V30 36 H 1.380331 1.967949 -0.328364 0
M  V30 37 H 2.267895 -1.345412 4.475897 0
M  V30 38 H 2.936462 0.353449 4.164686 0
M  V30 39 H 4.017486 -1.051989 4.351642 0
M  V30 40 H -2.168360 2.200142 -1.972814 0
M  V30 41 H -0.810518 -1.647717 3.026108 0
M  V30 42 H -0.684843 -0.500152 4.436140 0
M  V30 43 H -2.010532 -0.361604 3.184821 0
M  V30 44 H -3.346749 3.939358 2.283485 0
M  V30 45 H -1.868181 5.004135 2.086128 0
M  V30 46 H -1.917354 0.689816 -3.025590 0
M  V30 47 H -0.305231 -0.122542 -2.930589 0
M  V30 48 H -2.652696 -1.217475 -1.294688 0
M  V30 49 H -2.360823 -1.329583 -4.309086 0
M  V30 50 H -3.422825 -2.451426 -3.391982 0
M  V30 51 H -3.718711 -0.638994 -3.255708 0
M  V30 52 H -1.551301 -3.303659 -2.711556 0
M  V30 53 H 0.881196 -1.595440 -1.982511 0
M  V30 54 H 0.770107 -3.271272 -2.545276 0
M  V30 55 H 0.207074 -2.030925 -3.663164 0
M  V30 56 H -0.744182 -4.149508 -0.772020 0
M  V30 57 H -2.104457 -3.103806 -0.272949 0
M  V30 END ATOM
M  V30 BEGIN BOND
M  V30 1 1 1 2
M  V30 2 1 2 3
M  V30 3 2 3 4
M  V30 4 1 4 5
M  V30 5 2 5 6
M  V30 6 1 6 7
M  V30 7 1 7 8
M  V30 8 1 8 9
M  V30 9 2 7 10
M  V30 10 1 10 11
M  V30 11 1 11 12
M  V30 12 1 6 13
M  V30 13 2 13 14
M  V30 14 1 14 15
M  V30 15 2 15 16
M  V30 16 1 16 17
M  V30 17 2 17 18
M  V30 18 1 18 19
M  V30 19 1 19 20
M  V30 20 1 17 21
M  V30 21 1 21 22
M  V30 22 1 22 23
M  V30 23 1 14 24
M  V30 24 1 24 25
M  V30 25 1 25 26
M  V30 26 1 25 27
M  V30 27 1 27 28
M  V30 28 1 27 29
M  V30 29 1 10 3
M  V30 30 1 18 13
M  V30 31 1 29 5
M  V30 32 1 23 16
M  V30 33 1 1 30
M  V30 34 1 1 31
M  V30 35 1 1 32
M  V30 36 1 4 33
M  V30 37 1 9 34
M  V30 38 1 9 35
M  V30 39 1 9 36
M  V30 40 1 12 37
M  V30 41 1 12 38
M  V30 42 1 12 39
M  V30 43 1 15 40
M  V30 44 1 20 41
M  V30 45 1 20 42
M  V30 46 1 20 43
M  V30 47 1 22 44
M  V30 48 1 22 45
M  V30 49 1 24 46
M  V30 50 1 24 47
M  V30 51 1 25 48 CFG=1
M  V30 52 1 26 49
M  V30 53 1 26 50
M  V30 54 1 26 51
M  V30 55 1 27 52 CFG=3
M  V30 56 1 28 53
M  V30 57 1 28 54
M  V30 58 1 28 55
M  V30 59 1 29 56
M  V30 60 1 29 57
M  V30 END BOND
M  V30 END CTAB
M  END
>  <Dataset>  (112) 
ChEMBL_Kinases

>  <Ligand_Instance>  (112) 
nan

>  <PDB_ID>  (112) 
nan

>  <Standardized_SMILES>  (112) 
COc1cc2c(c(OC)c1OC)-c1c(cc3c(c1OC)OCO3)C[C@@H](C)[C@@H](C)C2

>  <Name>  (112) 
KADSURANIN

>  <Pocket>  (112) 
nan

>  <ATP_Site>  (112) 
nan

>  <Peripheral>  (112) 
nan

>  <Num_H_Atoms_ProtBoundConf>  (112) 
nan

>  <Num_Resolved_Atoms>  (112) 
nan

>  <Num_Not_Resolved_Atoms>  (112) 
nan

$$$$
CHEMBL513870
     RDKit          3D

  0  0  0  0  0  0  0  0  0  0999 V3000
M  V30 BEGIN CTAB
M  V30 COUNTS 53 56 0 0 0
M  V30 BEGIN ATOM
M  V30 1 C 0.078527 -3.110867 2.343620 0
M  V30 2 C -0.306442 -3.231469 0.897478 0 CFG=1
M  V30 3 N 0.620361 -4.103474 0.168841 0
M  V30 4 C 1.995283 -3.775030 0.034802 0
M  V30 5 C 2.835952 -2.753953 0.422368 0
M  V30 6 N 2.764726 -1.546965 1.124660 0
M  V30 7 C 2.479795 -0.356602 0.360503 0
M  V30 8 C 2.296703 -0.495270 -1.016568 0
M  V30 9 C 2.017442 0.589964 -1.845195 0
M  V30 10 N 1.925586 1.806424 -1.274827 0
M  V30 11 C 2.103612 1.949193 0.071916 0
M  V30 12 N 1.986146 3.289861 0.590666 0
M  V30 13 C 0.693708 3.708003 1.005228 0
M  V30 14 C 0.420582 4.965615 1.524307 0
M  V30 15 C -0.815670 5.378903 1.925803 0
M  V30 16 C -1.892416 4.511182 1.822470 0
M  V30 17 C -1.692269 3.244364 1.314693 0
M  V30 18 C -2.820655 2.329624 1.204429 0
M  V30 19 N -2.646029 1.018633 0.685427 0
M  V30 20 O -3.947599 2.753716 1.587970 0
M  V30 21 C -0.416332 2.891532 0.927512 0
M  V30 22 C 2.379765 0.886118 0.901216 0
M  V30 23 C 3.904832 -3.380310 -0.182566 0
M  V30 24 O 5.147251 -3.145735 -0.336608 0
M  V30 25 C 3.060224 -4.396789 -0.566708 0
M  V30 26 O 3.285153 -5.465090 -1.228285 0
M  V30 27 C -1.703513 -3.610523 0.663356 0
M  V30 28 C -1.926062 -3.867943 -0.692805 0
M  V30 29 C -3.192338 -4.247204 -1.149661 0
M  V30 30 C -4.227409 -4.368303 -0.259641 0
M  V30 31 C -4.008694 -4.116322 1.066253 0
M  V30 32 C -2.763470 -3.741494 1.527885 0
M  V30 33 H -0.549674 -3.743637 3.007003 0
M  V30 34 H 1.165429 -3.408684 2.432592 0
M  V30 35 H 0.039331 -2.041862 2.627082 0
M  V30 36 H -0.116908 -2.221599 0.428479 0
M  V30 37 H 0.221902 -4.954159 -0.233260 0
M  V30 38 H 2.896661 -1.409197 2.155258 0
M  V30 39 H 2.362673 -1.449161 -1.504903 0
M  V30 40 H 1.877034 0.473444 -2.911225 0
M  V30 41 H 2.746347 3.996770 0.698710 0
M  V30 42 H 1.244771 5.677171 1.620877 0
M  V30 43 H -1.019326 6.364232 2.330411 0
M  V30 44 H -2.876797 4.828718 2.137907 0
M  V30 45 H -3.402517 0.509709 0.176800 0
M  V30 46 H -1.747576 0.493379 0.786209 0
M  V30 47 H -0.246400 1.882487 0.520935 0
M  V30 48 H 2.515538 1.014433 1.947391 0
M  V30 49 H -1.207901 -3.812302 -1.500182 0
M  V30 50 H -3.424527 -4.457234 -2.173010 0
M  V30 51 H -5.255104 -4.653700 -0.480442 0
M  V30 52 H -4.764372 -4.185378 1.845459 0
M  V30 53 H -2.509268 -3.527199 2.536974 0
M  V30 END ATOM
M  V30 BEGIN BOND
M  V30 1 1 1 2
M  V30 2 1 2 3
M  V30 3 1 3 4
M  V30 4 2 4 5
M  V30 5 1 5 6
M  V30 6 1 6 7
M  V30 7 2 7 8
M  V30 8 1 8 9
M  V30 9 2 9 10
M  V30 10 1 10 11
M  V30 11 1 11 12
M  V30 12 1 12 13
M  V30 13 2 13 14
M  V30 14 1 14 15
M  V30 15 2 15 16
M  V30 16 1 16 17
M  V30 17 1 17 18
M  V30 18 1 18 19
M  V30 19 2 18 20
M  V30 20 2 17 21
M  V30 21 2 11 22
M  V30 22 1 5 23
M  V30 23 2 23 24
M  V30 24 1 23 25
M  V30 25 2 25 26
M  V30 26 1 2 27
M  V30 27 2 27 28
M  V30 28 1 28 29
M  V30 29 2 29 30
M  V30 30 1 30 31
M  V30 31 2 31 32
M  V30 32 1 25 4
M  V30 33 1 32 27
M  V30 34 1 22 7
M  V30 35 1 21 13
M  V30 36 1 1 33
M  V30 37 1 1 34
M  V30 38 1 1 35
M  V30 39 1 2 36 CFG=3
M  V30 40 1 3 37
M  V30 41 1 6 38
M  V30 42 1 8 39
M  V30 43 1 9 40
M  V30 44 1 12 41
M  V30 45 1 14 42
M  V30 46 1 15 43
M  V30 47 1 16 44
M  V30 48 1 19 45
M  V30 49 1 19 46
M  V30 50 1 21 47
M  V30 51 1 22 48
M  V30 52 1 28 49
M  V30 53 1 29 50
M  V30 54 1 30 51
M  V30 55 1 31 52
M  V30 56 1 32 53
M  V30 END BOND
M  V30 END CTAB
M  END
>  <Dataset>  (113) 
ChEMBL_Kinases

>  <Ligand_Instance>  (113) 
nan

>  <PDB_ID>  (113) 
nan

>  <Standardized_SMILES>  (113) 
C[C@@H](Nc1c(Nc2ccnc(Nc3cccc(C(N)=O)c3)c2)c(=O)c1=O)c1ccccc1

>  <Name>  (113) 
nan

>  <Pocket>  (113) 
nan

>  <ATP_Site>  (113) 
nan

>  <Peripheral>  (113) 
nan

>  <Num_H_Atoms_ProtBoundConf>  (113) 
nan

>  <Num_Resolved_Atoms>  (113) 
nan

>  <Num_Not_Resolved_Atoms>  (113) 
nan

$$$$
CHEMBL513354
     RDKit          3D

  0  0  0  0  0  0  0  0  0  0999 V3000
M  V30 BEGIN CTAB
M  V30 COUNTS 51 54 0 0 0
M  V30 BEGIN ATOM
M  V30 1 C 1.595823 -4.210108 2.148086 0
M  V30 2 C 2.390066 -2.955914 2.035692 0
M  V30 3 N 1.769880 -1.798967 2.690233 0
M  V30 4 C 1.822867 -2.070833 4.116914 0
M  V30 5 C 1.238066 -0.987946 4.969402 0
M  V30 6 C 2.604874 -0.666375 2.423106 0
M  V30 7 C 2.794227 -0.364674 0.982172 0
M  V30 8 C 3.816908 -0.824825 0.179539 0
M  V30 9 C 3.934279 -0.512825 -1.156243 0
M  V30 10 C 2.976682 0.304524 -1.719880 0
M  V30 11 C 1.918177 0.810621 -0.990265 0
M  V30 12 N 0.919289 1.656506 -1.539628 0
M  V30 13 C -0.173007 2.089344 -0.741326 0
M  V30 14 N -0.283779 3.161193 0.086226 0
M  V30 15 C -1.403960 3.420451 0.767550 0
M  V30 16 C -2.505872 2.592269 0.650613 0
M  V30 17 C -2.406164 1.503933 -0.184529 0
M  V30 18 C -3.570218 0.634174 -0.314993 0
M  V30 19 C -4.795922 0.704591 0.298507 0
M  V30 20 N -5.570916 -0.314906 -0.129067 0
M  V30 21 N -4.899196 -1.033504 -0.986466 0
M  V30 22 N -5.272293 -2.105514 -1.639023 0
M  V30 23 C -4.479683 -2.748088 -2.494663 0
M  V30 24 C -3.200564 -2.250909 -2.697350 0
M  V30 25 C -2.819118 -1.116763 -2.001002 0
M  V30 26 C -3.690110 -0.497480 -1.127514 0
M  V30 27 N -1.257096 1.284457 -0.849565 0
M  V30 28 C 1.877383 0.448066 0.339844 0
M  V30 29 H 0.707037 -4.154993 2.803079 0
M  V30 30 H 2.241314 -5.027643 2.578612 0
M  V30 31 H 1.266004 -4.619864 1.149840 0
M  V30 32 H 2.486829 -2.742064 0.931512 0
M  V30 33 H 3.399281 -3.119185 2.467544 0
M  V30 34 H 2.869140 -2.256472 4.455699 0
M  V30 35 H 1.287291 -3.018176 4.375186 0
M  V30 36 H 0.850402 -0.176024 4.289342 0
M  V30 37 H 2.058085 -0.517769 5.554708 0
M  V30 38 H 0.424301 -1.362581 5.630049 0
M  V30 39 H 2.311209 0.237101 2.962423 0
M  V30 40 H 3.635164 -0.962720 2.784319 0
M  V30 41 H 4.545975 -1.469070 0.686043 0
M  V30 42 H 4.758024 -0.902449 -1.741731 0
M  V30 43 H 3.061464 0.557379 -2.773838 0
M  V30 44 H 1.032107 1.928756 -2.523878 0
M  V30 45 H -1.385984 4.294404 1.393714 0
M  V30 46 H -3.393924 2.840233 1.223710 0
M  V30 47 H -5.077752 1.467017 1.010824 0
M  V30 48 H -4.840763 -3.635376 -3.012812 0
M  V30 49 H -2.527203 -2.760923 -3.397100 0
M  V30 50 H -1.833220 -0.725385 -2.151020 0
M  V30 51 H 1.042301 0.848602 0.912064 0
M  V30 END ATOM
M  V30 BEGIN BOND
M  V30 1 1 1 2
M  V30 2 1 2 3
M  V30 3 1 3 4
M  V30 4 1 4 5
M  V30 5 1 3 6
M  V30 6 1 6 7
M  V30 7 2 7 8
M  V30 8 1 8 9
M  V30 9 2 9 10
M  V30 10 1 10 11
M  V30 11 1 11 12
M  V30 12 1 12 13
M  V30 13 2 13 14
M  V30 14 1 14 15
M  V30 15 2 15 16
M  V30 16 1 16 17
M  V30 17 1 17 18
M  V30 18 1 18 19
M  V30 19 2 19 20
M  V30 20 1 20 21
M  V30 21 1 21 22
M  V30 22 2 22 23
M  V30 23 1 23 24
M  V30 24 2 24 25
M  V30 25 1 25 26
M  V30 26 2 17 27
M  V30 27 2 11 28
M  V30 28 1 28 7
M  V30 29 1 27 13
M  V30 30 2 26 18
M  V30 31 1 26 21
M  V30 32 1 1 29
M  V30 33 1 1 30
M  V30 34 1 1 31
M  V30 35 1 2 32
M  V30 36 1 2 33
M  V30 37 1 4 34
M  V30 38 1 4 35
M  V30 39 1 5 36
M  V30 40 1 5 37
M  V30 41 1 5 38
M  V30 42 1 6 39
M  V30 43 1 6 40
M  V30 44 1 8 41
M  V30 45 1 9 42
M  V30 46 1 10 43
M  V30 47 1 12 44
M  V30 48 1 15 45
M  V30 49 1 16 46
M  V30 50 1 19 47
M  V30 51 1 23 48
M  V30 52 1 24 49
M  V30 53 1 25 50
M  V30 54 1 28 51
M  V30 END BOND
M  V30 END CTAB
M  END
>  <Dataset>  (114) 
ChEMBL_Kinases

>  <Ligand_Instance>  (114) 
nan

>  <PDB_ID>  (114) 
nan

>  <Standardized_SMILES>  (114) 
CCN(CC)Cc1cccc(Nc2nccc(-c3cnn4ncccc34)n2)c1

>  <Name>  (114) 
nan

>  <Pocket>  (114) 
nan

>  <ATP_Site>  (114) 
nan

>  <Peripheral>  (114) 
nan

>  <Num_H_Atoms_ProtBoundConf>  (114) 
nan

>  <Num_Resolved_Atoms>  (114) 
nan

>  <Num_Not_Resolved_Atoms>  (114) 
nan

$$$$
CHEMBL517117
     RDKit          3D

  0  0  0  0  0  0  0  0  0  0999 V3000
M  V30 BEGIN CTAB
M  V30 COUNTS 55 60 0 0 0
M  V30 BEGIN ATOM
M  V30 1 C 5.884703 -2.127038 4.411861 0
M  V30 2 O 5.721350 -0.885533 3.757283 0
M  V30 3 C 4.528744 -0.574154 3.142548 0
M  V30 4 C 4.342724 0.651211 2.487315 0
M  V30 5 C 3.115643 0.889126 1.892487 0
M  V30 6 C 2.041687 0.052875 1.872983 0
M  V30 7 C 2.346086 -1.098737 2.540766 0
M  V30 8 C 3.501988 -1.486615 3.174612 0
M  V30 9 C 1.122861 -1.980399 2.629947 0
M  V30 10 C 0.519832 -2.083742 1.264995 0
M  V30 11 C 0.027605 -0.777787 0.826614 0
M  V30 12 C 0.907231 0.264832 1.041255 0
M  V30 13 C 0.579866 1.496920 0.582953 0
M  V30 14 C -0.583716 1.762697 -0.095384 0
M  V30 15 C -1.425986 0.658296 -0.277197 0
M  V30 16 C -2.651848 0.618096 -0.905591 0
M  V30 17 C -3.444858 1.542224 -1.541383 0
M  V30 18 C -4.663888 1.240718 -2.101983 0
M  V30 19 C -5.115232 -0.064925 -2.020651 0
M  V30 20 C -4.316100 -0.989059 -1.381847 0
M  V30 21 C -3.075488 -0.676390 -0.812881 0
M  V30 22 N -2.171592 -1.466990 -0.152270 0
M  V30 23 C -2.308869 -2.855569 0.120145 0
M  V30 24 C -1.763580 -3.708406 -1.002240 0
M  V30 25 C -2.455297 -3.485012 -2.321984 0
M  V30 26 O -1.803245 -4.365291 -3.220334 0
M  V30 27 C -1.162261 -0.638587 0.172670 0
M  V30 28 C -0.752624 3.176817 -0.507797 0
M  V30 29 N 0.354172 3.821043 0.220421 0
M  V30 30 C 1.151013 2.795804 0.777864 0
M  V30 31 O 2.115366 3.356302 1.279741 0
M  V30 32 H 4.988188 -2.331584 5.065613 0
M  V30 33 H 5.891379 -2.933642 3.651847 0
M  V30 34 H 6.809858 -2.132961 5.034060 0
M  V30 35 H 5.213261 1.299297 2.521423 0
M  V30 36 H 3.190815 1.788512 1.372643 0
M  V30 37 H 3.534609 -2.446945 3.641806 0
M  V30 38 H 0.423736 -1.436143 3.335268 0
M  V30 39 H 1.431250 -2.941856 3.032869 0
M  V30 40 H 0.031715 -2.983361 1.026389 0
M  V30 41 H 1.481754 -2.202876 0.619268 0
M  V30 42 H -3.160439 2.574132 -1.645824 0
M  V30 43 H -5.292344 1.975591 -2.606407 0
M  V30 44 H -6.068960 -0.315662 -2.455568 0
M  V30 45 H -4.738105 -1.981027 -1.359107 0
M  V30 46 H -3.438421 -3.043655 -0.007802 0
M  V30 47 H -2.181634 -3.215533 1.127882 0
M  V30 48 H -0.699032 -3.398361 -1.175965 0
M  V30 49 H -1.763827 -4.766785 -0.739382 0
M  V30 50 H -2.214334 -2.478079 -2.697846 0
M  V30 51 H -3.507063 -3.773816 -2.351203 0
M  V30 52 H -2.410796 -4.955764 -3.692621 0
M  V30 53 H -0.716648 3.335531 -1.580747 0
M  V30 54 H -1.710901 3.506038 -0.013573 0
M  V30 55 H 0.284730 4.855291 0.149305 0
M  V30 END ATOM
M  V30 BEGIN BOND
M  V30 1 1 1 2
M  V30 2 1 2 3
M  V30 3 2 3 4
M  V30 4 1 4 5
M  V30 5 2 5 6
M  V30 6 1 6 7
M  V30 7 2 7 8
M  V30 8 1 7 9
M  V30 9 1 9 10
M  V30 10 1 10 11
M  V30 11 2 11 12
M  V30 12 1 12 13
M  V30 13 2 13 14
M  V30 14 1 14 15
M  V30 15 1 15 16
M  V30 16 2 16 17
M  V30 17 1 17 18
M  V30 18 2 18 19
M  V30 19 1 19 20
M  V30 20 2 20 21
M  V30 21 1 21 22
M  V30 22 1 22 23
M  V30 23 1 23 24
M  V30 24 1 24 25
M  V30 25 1 25 26
M  V30 26 1 22 27
M  V30 27 1 14 28
M  V30 28 1 28 29
M  V30 29 1 29 30
M  V30 30 2 30 31
M  V30 31 1 8 3
M  V30 32 1 27 11
M  V30 33 1 12 6
M  V30 34 1 30 13
M  V30 35 2 27 15
M  V30 36 1 21 16
M  V30 37 1 1 32
M  V30 38 1 1 33
M  V30 39 1 1 34
M  V30 40 1 4 35
M  V30 41 1 5 36
M  V30 42 1 8 37
M  V30 43 1 9 38
M  V30 44 1 9 39
M  V30 45 1 10 40
M  V30 46 1 10 41
M  V30 47 1 17 42
M  V30 48 1 18 43
M  V30 49 1 19 44
M  V30 50 1 20 45
M  V30 51 1 23 46
M  V30 52 1 23 47
M  V30 53 1 24 48
M  V30 54 1 24 49
M  V30 55 1 25 50
M  V30 56 1 25 51
M  V30 57 1 26 52
M  V30 58 1 28 53
M  V30 59 1 28 54
M  V30 60 1 29 55
M  V30 END BOND
M  V30 END CTAB
M  END
>  <Dataset>  (115) 
ChEMBL_Kinases

>  <Ligand_Instance>  (115) 
nan

>  <PDB_ID>  (115) 
nan

>  <Standardized_SMILES>  (115) 
COc1ccc2c(c1)CCc1c-2c2c(c3c4ccccc4n(CCCO)c13)CNC2=O

>  <Name>  (115) 
nan

>  <Pocket>  (115) 
nan

>  <ATP_Site>  (115) 
nan

>  <Peripheral>  (115) 
nan

>  <Num_H_Atoms_ProtBoundConf>  (115) 
nan

>  <Num_Resolved_Atoms>  (115) 
nan

>  <Num_Not_Resolved_Atoms>  (115) 
nan

$$$$
CHEMBL57535
     RDKit          3D

  0  0  0  0  0  0  0  0  0  0999 V3000
M  V30 BEGIN CTAB
M  V30 COUNTS 34 36 0 0 0
M  V30 BEGIN ATOM
M  V30 1 C 0.382101 0.606637 4.630857 0
M  V30 2 C 0.622000 -0.568562 3.909109 0
M  V30 3 C 0.618587 -0.412381 2.536648 0
M  V30 4 C 0.405760 0.771370 1.845963 0
M  V30 5 C 0.393026 1.046940 0.479297 0
M  V30 6 C 0.560172 0.173663 -0.671469 0
M  V30 7 N -0.551960 -0.546810 -1.149978 0
M  V30 8 C -1.342333 -1.319475 -0.284903 0
M  V30 9 C -1.000408 -2.752315 -0.091102 0
M  V30 10 C -0.236767 -3.386400 -1.202588 0
M  V30 11 C 0.648745 -2.466648 -1.983011 0
M  V30 12 C -0.166057 -1.255154 -2.365607 0
M  V30 13 C 0.140125 2.422511 0.456944 0
M  V30 14 N 0.017251 2.889850 1.731463 0
M  V30 15 C 0.176387 1.893000 2.609409 0
M  V30 16 C 0.166851 1.798535 3.981151 0
M  V30 17 H 0.378485 0.515449 5.719178 0
M  V30 18 H 0.800151 -1.550839 4.334421 0
M  V30 19 H 0.804352 -1.291588 1.926402 0
M  V30 20 H 0.924311 0.793937 -1.549949 0
M  V30 21 H 1.462777 -0.473342 -0.463291 0
M  V30 22 H -1.483051 -0.828296 0.688672 0
M  V30 23 H -2.399543 -1.291476 -0.729302 0
M  V30 24 H -0.488202 -2.982459 0.868373 0
M  V30 25 H -1.962088 -3.346630 -0.010243 0
M  V30 26 H -0.906249 -3.936670 -1.925745 0
M  V30 27 H 0.421755 -4.192740 -0.794828 0
M  V30 28 H 0.894109 -2.979241 -2.949387 0
M  V30 29 H 1.546298 -2.266136 -1.406349 0
M  V30 30 H -1.093114 -1.609981 -2.849199 0
M  V30 31 H 0.398326 -0.588224 -3.015836 0
M  V30 32 H 0.053868 3.041386 -0.436206 0
M  V30 33 H -0.172866 3.870303 2.023794 0
M  V30 34 H -0.014405 2.678300 4.595553 0
M  V30 END ATOM
M  V30 BEGIN BOND
M  V30 1 2 1 2
M  V30 2 1 2 3
M  V30 3 2 3 4
M  V30 4 1 4 5
M  V30 5 1 5 6
M  V30 6 1 6 7
M  V30 7 1 7 8
M  V30 8 1 8 9
M  V30 9 1 9 10
M  V30 10 1 10 11
M  V30 11 1 11 12
M  V30 12 2 5 13
M  V30 13 1 13 14
M  V30 14 1 14 15
M  V30 15 2 15 16
M  V30 16 1 16 1
M  V30 17 1 15 4
M  V30 18 1 12 7
M  V30 19 1 1 17
M  V30 20 1 2 18
M  V30 21 1 3 19
M  V30 22 1 6 20
M  V30 23 1 6 21
M  V30 24 1 8 22
M  V30 25 1 8 23
M  V30 26 1 9 24
M  V30 27 1 9 25
M  V30 28 1 10 26
M  V30 29 1 10 27
M  V30 30 1 11 28
M  V30 31 1 11 29
M  V30 32 1 12 30
M  V30 33 1 12 31
M  V30 34 1 13 32
M  V30 35 1 14 33
M  V30 36 1 16 34
M  V30 END BOND
M  V30 END CTAB
M  END
>  <Dataset>  (116) 
ChEMBL_Kinases

>  <Ligand_Instance>  (116) 
nan

>  <PDB_ID>  (116) 
nan

>  <Standardized_SMILES>  (116) 
c1ccc2c(CN3CCCCC3)c[nH]c2c1

>  <Name>  (116) 
nan

>  <Pocket>  (116) 
nan

>  <ATP_Site>  (116) 
nan

>  <Peripheral>  (116) 
nan

>  <Num_H_Atoms_ProtBoundConf>  (116) 
nan

>  <Num_Resolved_Atoms>  (116) 
nan

>  <Num_Not_Resolved_Atoms>  (116) 
nan

$$$$
CHEMBL517205
     RDKit          3D

  0  0  0  0  0  0  0  0  0  0999 V3000
M  V30 BEGIN CTAB
M  V30 COUNTS 42 44 0 0 0
M  V30 BEGIN ATOM
M  V30 1 C 1.887560 -1.937580 3.576343 0
M  V30 2 C 1.974636 -1.459433 2.174806 0
M  V30 3 C 3.174792 -1.645964 1.520037 0
M  V30 4 C 3.300950 -1.218342 0.213793 0
M  V30 5 C 2.233449 -0.613534 -0.418276 0
M  V30 6 C 2.274432 -0.129839 -1.796377 0
M  V30 7 O 1.282540 0.423319 -2.364120 0
M  V30 8 N 3.421080 -0.238707 -2.608364 0
M  V30 9 C 3.582363 0.195745 -3.967760 0
M  V30 10 C 4.471895 -0.464648 -4.923809 0
M  V30 11 C 4.861589 0.902960 -4.360557 0
M  V30 12 C 1.044709 -0.442580 0.268578 0
M  V30 13 C 0.874939 -0.861947 1.594694 0
M  V30 14 C -0.400206 -0.660029 2.286057 0
M  V30 15 C -0.641535 -0.178181 3.555437 0
M  V30 16 C -1.937400 -0.072947 4.006714 0
M  V30 17 C -3.007162 -0.439285 3.217054 0
M  V30 18 C -4.342517 -0.291037 3.784389 0
M  V30 19 O -4.452640 0.160193 4.953641 0
M  V30 20 N -5.548613 -0.612996 3.131621 0
M  V30 21 N -6.734747 -0.413071 3.810491 0
M  V30 22 C -2.805576 -0.925260 1.942637 0
M  V30 23 C -1.500874 -1.025939 1.501782 0
M  V30 24 H 2.263212 -1.212306 4.322298 0
M  V30 25 H 0.866745 -2.230640 3.889269 0
M  V30 26 H 2.516433 -2.859650 3.720650 0
M  V30 27 H 4.016208 -2.116331 2.000292 0
M  V30 28 H 4.222039 -1.349276 -0.322697 0
M  V30 29 H 4.296702 -0.676440 -2.246413 0
M  V30 30 H 2.672254 0.668403 -4.394842 0
M  V30 31 H 4.202786 -0.482774 -6.007782 0
M  V30 32 H 5.193176 -1.252824 -4.661437 0
M  V30 33 H 4.831195 1.772618 -5.048078 0
M  V30 34 H 5.652312 0.962290 -3.583283 0
M  V30 35 H 0.177344 0.029252 -0.190933 0
M  V30 36 H 0.258731 0.079016 4.086009 0
M  V30 37 H -2.024549 0.318213 5.021891 0
M  V30 38 H -5.495758 -0.989127 2.162273 0
M  V30 39 H -6.582240 -0.371714 4.834449 0
M  V30 40 H -7.154059 0.499378 3.546009 0
M  V30 41 H -3.648180 -1.211112 1.327512 0
M  V30 42 H -1.413125 -1.420421 0.477714 0
M  V30 END ATOM
M  V30 BEGIN BOND
M  V30 1 1 1 2
M  V30 2 2 2 3
M  V30 3 1 3 4
M  V30 4 2 4 5
M  V30 5 1 5 6
M  V30 6 2 6 7
M  V30 7 1 6 8
M  V30 8 1 8 9
M  V30 9 1 9 10
M  V30 10 1 10 11
M  V30 11 1 5 12
M  V30 12 2 12 13
M  V30 13 1 13 14
M  V30 14 2 14 15
M  V30 15 1 15 16
M  V30 16 2 16 17
M  V30 17 1 17 18
M  V30 18 2 18 19
M  V30 19 1 18 20
M  V30 20 1 20 21
M  V30 21 1 17 22
M  V30 22 2 22 23
M  V30 23 1 13 2
M  V30 24 1 23 14
M  V30 25 1 11 9
M  V30 26 1 1 24
M  V30 27 1 1 25
M  V30 28 1 1 26
M  V30 29 1 3 27
M  V30 30 1 4 28
M  V30 31 1 8 29
M  V30 32 1 9 30
M  V30 33 1 10 31
M  V30 34 1 10 32
M  V30 35 1 11 33
M  V30 36 1 11 34
M  V30 37 1 12 35
M  V30 38 1 15 36
M  V30 39 1 16 37
M  V30 40 1 20 38
M  V30 41 1 21 39
M  V30 42 1 21 40
M  V30 43 1 22 41
M  V30 44 1 23 42
M  V30 END BOND
M  V30 END CTAB
M  END
>  <Dataset>  (117) 
ChEMBL_Kinases

>  <Ligand_Instance>  (117) 
nan

>  <PDB_ID>  (117) 
nan

>  <Standardized_SMILES>  (117) 
Cc1ccc(C(=O)NC2CC2)cc1-c1ccc(C(=O)NN)cc1

>  <Name>  (117) 
nan

>  <Pocket>  (117) 
nan

>  <ATP_Site>  (117) 
nan

>  <Peripheral>  (117) 
nan

>  <Num_H_Atoms_ProtBoundConf>  (117) 
nan

>  <Num_Resolved_Atoms>  (117) 
nan

>  <Num_Not_Resolved_Atoms>  (117) 
nan

$$$$
CHEMBL517255
     RDKit          3D

  0  0  0  0  0  0  0  0  0  0999 V3000
M  V30 BEGIN CTAB
M  V30 COUNTS 53 55 0 0 0
M  V30 BEGIN ATOM
M  V30 1 C 1.002994 -4.817339 3.866336 0
M  V30 2 N 2.206070 -4.529629 3.078871 0
M  V30 3 C 3.080850 -5.646799 2.746567 0
M  V30 4 C 2.499298 -3.211829 2.665282 0
M  V30 5 C 1.687837 -2.140139 2.967285 0
M  V30 6 C 1.951685 -0.821230 2.581845 0
M  V30 7 C 3.107132 -0.547138 1.842481 0
M  V30 8 C 3.301767 0.848744 1.495666 0
M  V30 9 C 2.394863 1.636160 1.012871 0
M  V30 10 C 0.973581 1.414887 0.670581 0
M  V30 11 C 0.699426 2.488872 -0.371806 0
M  V30 12 C 0.933905 2.034092 -1.786653 0
M  V30 13 O 0.667935 3.143104 -2.616289 0
M  V30 14 C -0.775889 2.842583 -0.180555 0
M  V30 15 O -1.466266 1.636217 -0.551541 0
M  V30 16 C -2.852765 1.620478 -0.498355 0
M  V30 17 O -3.427508 2.692154 -0.116923 0
M  V30 18 C -3.675494 0.470195 -0.847936 0
M  V30 19 C -5.041440 0.604656 -0.758942 0
M  V30 20 C -5.879008 -0.442664 -1.074124 0
M  V30 21 C -5.313541 -1.654137 -1.488653 0
M  V30 22 N -6.206611 -2.736624 -1.813293 0 CHG=1 VAL=4
M  V30 23 O -5.715621 -3.822833 -2.175520 0
M  V30 24 O -7.565243 -2.563888 -1.722315 0 CHG=-1 VAL=1
M  V30 25 C -3.922778 -1.799538 -1.581491 0
M  V30 26 C -3.101243 -0.715468 -1.254255 0
M  V30 27 O 1.568134 3.548420 -0.074356 0
M  V30 28 C 2.630249 3.042113 0.705983 0
M  V30 29 O 3.636249 3.741004 1.072883 0
M  V30 30 C 3.919190 -1.611151 1.538125 0
M  V30 31 C 3.628658 -2.901939 1.934292 0
M  V30 32 H 0.113382 -4.283274 3.507591 0
M  V30 33 H 0.753029 -5.908630 3.711260 0
M  V30 34 H 1.218768 -4.726222 4.941497 0
M  V30 35 H 4.014787 -5.652687 3.376628 0
M  V30 36 H 2.561368 -6.607322 2.974772 0
M  V30 37 H 3.359501 -5.535520 1.682293 0
M  V30 38 H 0.792755 -2.390566 3.551712 0
M  V30 39 H 1.186958 -0.143377 2.927363 0
M  V30 40 H 4.304307 1.216635 1.673582 0
M  V30 41 H 0.270490 1.476624 1.496149 0
M  V30 42 H 0.902559 0.442152 0.127900 0
M  V30 43 H 2.028323 1.815275 -1.919895 0
M  V30 44 H 0.301643 1.211024 -2.125014 0
M  V30 45 H -0.198510 3.000105 -3.107939 0
M  V30 46 H -0.931720 3.100068 0.874960 0
M  V30 47 H -1.064998 3.705513 -0.778243 0
M  V30 48 H -5.569178 1.496288 -0.451556 0
M  V30 49 H -6.965387 -0.372453 -1.013837 0
M  V30 50 H -3.545910 -2.770040 -1.909781 0
M  V30 51 H -2.044924 -0.852774 -1.333691 0
M  V30 52 H 4.811789 -1.349391 0.955964 0
M  V30 53 H 4.340618 -3.686741 1.639828 0
M  V30 END ATOM
M  V30 BEGIN BOND
M  V30 1 1 1 2
M  V30 2 1 2 3
M  V30 3 1 2 4
M  V30 4 2 4 5
M  V30 5 1 5 6
M  V30 6 2 6 7
M  V30 7 1 7 8
M  V30 8 2 8 9
M  V30 9 1 9 10
M  V30 10 1 10 11
M  V30 11 1 11 12
M  V30 12 1 12 13
M  V30 13 1 11 14
M  V30 14 1 14 15
M  V30 15 1 15 16
M  V30 16 2 16 17
M  V30 17 1 16 18
M  V30 18 2 18 19
M  V30 19 1 19 20
M  V30 20 2 20 21
M  V30 21 1 21 22
M  V30 22 2 22 23
M  V30 23 1 22 24
M  V30 24 1 21 25
M  V30 25 2 25 26
M  V30 26 1 11 27
M  V30 27 1 27 28
M  V30 28 2 28 29
M  V30 29 1 7 30
M  V30 30 2 30 31
M  V30 31 1 31 4
M  V30 32 1 28 9
M  V30 33 1 26 18
M  V30 34 1 1 32
M  V30 35 1 1 33
M  V30 36 1 1 34
M  V30 37 1 3 35
M  V30 38 1 3 36
M  V30 39 1 3 37
M  V30 40 1 5 38
M  V30 41 1 6 39
M  V30 42 1 8 40
M  V30 43 1 10 41
M  V30 44 1 10 42
M  V30 45 1 12 43
M  V30 46 1 12 44
M  V30 47 1 13 45
M  V30 48 1 14 46
M  V30 49 1 14 47
M  V30 50 1 19 48
M  V30 51 1 20 49
M  V30 52 1 25 50
M  V30 53 1 26 51
M  V30 54 1 30 52
M  V30 55 1 31 53
M  V30 END BOND
M  V30 END CTAB
M  END
>  <Dataset>  (118) 
ChEMBL_Kinases

>  <Ligand_Instance>  (118) 
nan

>  <PDB_ID>  (118) 
nan

>  <Standardized_SMILES>  (118) 
CN(C)c1ccc(/C=C2\CC(CO)(COC(=O)c3ccc([N+](=O)[O-])cc3)OC2=O)cc1

>  <Name>  (118) 
nan

>  <Pocket>  (118) 
nan

>  <ATP_Site>  (118) 
nan

>  <Peripheral>  (118) 
nan

>  <Num_H_Atoms_ProtBoundConf>  (118) 
nan

>  <Num_Resolved_Atoms>  (118) 
nan

>  <Num_Not_Resolved_Atoms>  (118) 
nan

$$$$
CHEMBL517346
     RDKit          3D

  0  0  0  0  0  0  0  0  0  0999 V3000
M  V30 BEGIN CTAB
M  V30 COUNTS 55 57 0 0 0
M  V30 BEGIN ATOM
M  V30 1 C 0.087696 -3.088889 3.452080 0
M  V30 2 C 1.082422 -2.152374 2.919605 0
M  V30 3 C 2.330570 -2.072394 3.504054 0
M  V30 4 C 3.320869 -1.204693 3.047126 0
M  V30 5 C 3.061642 -0.386109 1.969608 0
M  V30 6 C 4.137365 0.490627 1.547724 0
M  V30 7 O 5.211902 0.435477 2.196871 0
M  V30 8 N 4.108196 1.409168 0.475567 0
M  V30 9 C 4.990383 2.364732 -0.131705 0
M  V30 10 C 5.396387 3.472998 0.786344 0
M  V30 11 C 4.212242 4.250599 1.304422 0
M  V30 12 C 6.367780 3.135379 1.862678 0
M  V30 13 C 1.824282 -0.481016 1.408004 0
M  V30 14 C 0.826741 -1.330853 1.840640 0
M  V30 15 C -0.466717 -1.358685 1.171384 0
M  V30 16 C -1.086514 -0.146317 0.848978 0
M  V30 17 C -2.329356 -0.109226 0.204160 0
M  V30 18 C -2.975962 -1.282484 -0.130516 0
M  V30 19 C -4.270088 -1.168432 -0.803401 0
M  V30 20 O -4.701707 -0.022380 -1.033181 0
M  V30 21 N -5.049186 -2.288226 -1.202791 0
M  V30 22 C -6.331371 -2.182208 -1.870230 0
M  V30 23 C -6.908189 -3.573431 -2.163291 0
M  V30 24 C -6.141657 -4.505039 -3.023272 0
M  V30 25 C -7.350542 -3.854789 -3.591644 0
M  V30 26 C -2.371444 -2.485479 0.183969 0
M  V30 27 C -1.146591 -2.533059 0.819435 0
M  V30 28 H 0.268227 -3.126296 4.567936 0
M  V30 29 H -0.949512 -2.791117 3.351406 0
M  V30 30 H 0.282523 -4.160675 3.150677 0
M  V30 31 H 2.530204 -2.715229 4.348048 0
M  V30 32 H 4.266778 -1.241816 3.601798 0
M  V30 33 H 3.139698 1.330865 0.029453 0
M  V30 34 H 4.513735 2.738148 -1.055613 0
M  V30 35 H 5.960860 1.826054 -0.416888 0
M  V30 36 H 5.950534 4.234179 0.126478 0
M  V30 37 H 3.308264 3.606543 1.408182 0
M  V30 38 H 3.949289 5.067886 0.625930 0
M  V30 39 H 4.479846 4.681548 2.282380 0
M  V30 40 H 7.071207 4.013515 2.018477 0
M  V30 41 H 7.024474 2.314149 1.540273 0
M  V30 42 H 5.905981 2.938676 2.863883 0
M  V30 43 H 1.593535 0.145867 0.565520 0
M  V30 44 H -0.554754 0.765771 1.124374 0
M  V30 45 H -2.743008 0.884075 -0.010985 0
M  V30 46 H -4.683076 -3.242837 -1.007142 0
M  V30 47 H -6.244038 -1.642335 -2.815782 0
M  V30 48 H -7.042939 -1.665010 -1.208699 0
M  V30 49 H -7.528842 -4.028917 -1.364200 0
M  V30 50 H -6.232889 -5.588359 -2.804687 0
M  V30 51 H -5.113009 -4.210795 -3.306813 0
M  V30 52 H -8.261521 -4.467327 -3.741905 0
M  V30 53 H -7.222861 -3.061106 -4.343444 0
M  V30 54 H -2.877342 -3.404308 -0.077774 0
M  V30 55 H -0.675434 -3.474981 1.063748 0
M  V30 END ATOM
M  V30 BEGIN BOND
M  V30 1 1 1 2
M  V30 2 2 2 3
M  V30 3 1 3 4
M  V30 4 2 4 5
M  V30 5 1 5 6
M  V30 6 2 6 7
M  V30 7 1 6 8
M  V30 8 1 8 9
M  V30 9 1 9 10
M  V30 10 1 10 11
M  V30 11 1 10 12
M  V30 12 1 5 13
M  V30 13 2 13 14
M  V30 14 1 14 15
M  V30 15 2 15 16
M  V30 16 1 16 17
M  V30 17 2 17 18
M  V30 18 1 18 19
M  V30 19 2 19 20
M  V30 20 1 19 21
M  V30 21 1 21 22
M  V30 22 1 22 23
M  V30 23 1 23 24
M  V30 24 1 24 25
M  V30 25 1 18 26
M  V30 26 2 26 27
M  V30 27 1 14 2
M  V30 28 1 27 15
M  V30 29 1 25 23
M  V30 30 1 1 28
M  V30 31 1 1 29
M  V30 32 1 1 30
M  V30 33 1 3 31
M  V30 34 1 4 32
M  V30 35 1 8 33
M  V30 36 1 9 34
M  V30 37 1 9 35
M  V30 38 1 10 36
M  V30 39 1 11 37
M  V30 40 1 11 38
M  V30 41 1 11 39
M  V30 42 1 12 40
M  V30 43 1 12 41
M  V30 44 1 12 42
M  V30 45 1 13 43
M  V30 46 1 16 44
M  V30 47 1 17 45
M  V30 48 1 21 46
M  V30 49 1 22 47
M  V30 50 1 22 48
M  V30 51 1 23 49
M  V30 52 1 24 50
M  V30 53 1 24 51
M  V30 54 1 25 52
M  V30 55 1 25 53
M  V30 56 1 26 54
M  V30 57 1 27 55
M  V30 END BOND
M  V30 END CTAB
M  END
>  <Dataset>  (119) 
ChEMBL_Kinases

>  <Ligand_Instance>  (119) 
nan

>  <PDB_ID>  (119) 
nan

>  <Standardized_SMILES>  (119) 
Cc1ccc(C(=O)NCC(C)C)cc1-c1ccc(C(=O)NCC2CC2)cc1

>  <Name>  (119) 
nan

>  <Pocket>  (119) 
nan

>  <ATP_Site>  (119) 
nan

>  <Peripheral>  (119) 
nan

>  <Num_H_Atoms_ProtBoundConf>  (119) 
nan

>  <Num_Resolved_Atoms>  (119) 
nan

>  <Num_Not_Resolved_Atoms>  (119) 
nan

$$$$
CHEMBL517507
     RDKit          3D

  0  0  0  0  0  0  0  0  0  0999 V3000
M  V30 BEGIN CTAB
M  V30 COUNTS 53 56 0 0 0
M  V30 BEGIN ATOM
M  V30 1 C 1.156135 -3.856046 2.810364 0
M  V30 2 C 2.050707 -2.864611 2.198829 0
M  V30 3 C 3.416135 -3.033317 2.272262 0
M  V30 4 C 4.275141 -2.113399 1.700255 0
M  V30 5 C 3.735442 -1.023773 1.054900 0
M  V30 6 C 4.653198 -0.062192 0.456293 0
M  V30 7 O 5.887470 -0.280173 0.562175 0
M  V30 8 N 4.273876 1.099342 -0.236068 0
M  V30 9 C 5.137440 2.066435 -0.836989 0
M  V30 10 C 4.701524 3.509739 -0.691815 0
M  V30 11 C 3.780677 3.284260 -1.874898 0
M  V30 12 C 4.750478 2.196908 -2.317829 0
M  V30 13 C 2.366011 -0.877845 0.995347 0
M  V30 14 C 1.471349 -1.790559 1.563819 0
M  V30 15 C 0.044757 -1.522483 1.435938 0
M  V30 16 C -0.932940 -1.583476 2.395991 0
M  V30 17 C -2.229178 -1.292418 2.062885 0
M  V30 18 C -2.662281 -0.932651 0.818401 0
M  V30 19 C -4.054433 -0.626737 0.490411 0
M  V30 20 O -4.268243 -0.311091 -0.728717 0
M  V30 21 N -5.051860 -0.694487 1.503747 0
M  V30 22 C -6.411670 -0.416450 1.178146 0
M  V30 23 C -6.982050 -1.440019 0.258147 0
M  V30 24 C -7.042898 -2.854084 0.817773 0
M  V30 25 C -6.234603 -2.511156 -0.410094 0
M  V30 26 C -1.648001 -0.882041 -0.122512 0
M  V30 27 C -0.324022 -1.162401 0.144496 0
M  V30 28 H 1.593567 -4.882979 2.715456 0
M  V30 29 H 0.994587 -3.587896 3.870405 0
M  V30 30 H 0.166196 -3.876651 2.313866 0
M  V30 31 H 3.804013 -3.910455 2.792719 0
M  V30 32 H 5.327080 -2.287957 1.783709 0
M  V30 33 H 3.256683 1.307365 -0.340324 0
M  V30 34 H 6.215288 1.890589 -0.753173 0
M  V30 35 H 4.179696 3.743211 0.254174 0
M  V30 36 H 5.550100 4.175502 -0.951663 0
M  V30 37 H 3.750391 4.163191 -2.545376 0
M  V30 38 H 2.814013 2.908328 -1.524571 0
M  V30 39 H 4.204210 1.325251 -2.719395 0
M  V30 40 H 5.521545 2.636740 -2.961688 0
M  V30 41 H 1.960239 -0.027158 0.491222 0
M  V30 42 H -0.586827 -1.863696 3.367076 0
M  V30 43 H -2.923256 -1.368387 2.884838 0
M  V30 44 H -4.855157 -0.938420 2.489673 0
M  V30 45 H -7.072583 -0.351934 2.071663 0
M  V30 46 H -6.423106 0.614161 0.719873 0
M  V30 47 H -7.936572 -1.080161 -0.233535 0
M  V30 48 H -6.435908 -3.046466 1.737308 0
M  V30 49 H -8.010119 -3.362292 0.722636 0
M  V30 50 H -6.654846 -2.838845 -1.411468 0
M  V30 51 H -5.156727 -2.698645 -0.366062 0
M  V30 52 H -1.928999 -0.597897 -1.148800 0
M  V30 53 H 0.374396 -1.083764 -0.692217 0
M  V30 END ATOM
M  V30 BEGIN BOND
M  V30 1 1 1 2
M  V30 2 2 2 3
M  V30 3 1 3 4
M  V30 4 2 4 5
M  V30 5 1 5 6
M  V30 6 2 6 7
M  V30 7 1 6 8
M  V30 8 1 8 9
M  V30 9 1 9 10
M  V30 10 1 10 11
M  V30 11 1 11 12
M  V30 12 1 5 13
M  V30 13 2 13 14
M  V30 14 1 14 15
M  V30 15 2 15 16
M  V30 16 1 16 17
M  V30 17 2 17 18
M  V30 18 1 18 19
M  V30 19 2 19 20
M  V30 20 1 19 21
M  V30 21 1 21 22
M  V30 22 1 22 23
M  V30 23 1 23 24
M  V30 24 1 24 25
M  V30 25 1 18 26
M  V30 26 2 26 27
M  V30 27 1 14 2
M  V30 28 1 27 15
M  V30 29 1 12 9
M  V30 30 1 25 23
M  V30 31 1 1 28
M  V30 32 1 1 29
M  V30 33 1 1 30
M  V30 34 1 3 31
M  V30 35 1 4 32
M  V30 36 1 8 33
M  V30 37 1 9 34
M  V30 38 1 10 35
M  V30 39 1 10 36
M  V30 40 1 11 37
M  V30 41 1 11 38
M  V30 42 1 12 39
M  V30 43 1 12 40
M  V30 44 1 13 41
M  V30 45 1 16 42
M  V30 46 1 17 43
M  V30 47 1 21 44
M  V30 48 1 22 45
M  V30 49 1 22 46
M  V30 50 1 23 47
M  V30 51 1 24 48
M  V30 52 1 24 49
M  V30 53 1 25 50
M  V30 54 1 25 51
M  V30 55 1 26 52
M  V30 56 1 27 53
M  V30 END BOND
M  V30 END CTAB
M  END
>  <Dataset>  (120) 
ChEMBL_Kinases

>  <Ligand_Instance>  (120) 
nan

>  <PDB_ID>  (120) 
nan

>  <Standardized_SMILES>  (120) 
Cc1ccc(C(=O)NC2CCC2)cc1-c1ccc(C(=O)NCC2CC2)cc1

>  <Name>  (120) 
GW782912X

>  <Pocket>  (120) 
nan

>  <ATP_Site>  (120) 
nan

>  <Peripheral>  (120) 
nan

>  <Num_H_Atoms_ProtBoundConf>  (120) 
nan

>  <Num_Resolved_Atoms>  (120) 
nan

>  <Num_Not_Resolved_Atoms>  (120) 
nan

$$$$
CHEMBL51758
     RDKit          3D

  0  0  0  0  0  0  0  0  0  0999 V3000
M  V30 BEGIN CTAB
M  V30 COUNTS 44 48 0 0 0
M  V30 BEGIN ATOM
M  V30 1 C -1.349644 -2.523790 4.090781 0
M  V30 2 N -1.170161 -2.379834 2.669625 0
M  V30 3 C -1.179028 -1.230730 1.984776 0
M  V30 4 C -0.983070 -1.398389 0.637841 0
M  V30 5 C -0.838960 -0.600009 -0.567571 0
M  V30 6 C -0.059321 0.422894 -0.969801 0
M  V30 7 C 1.005451 1.172112 -0.311614 0
M  V30 8 C 2.269890 1.213971 -0.919236 0
M  V30 9 N 3.125899 1.950537 -0.194016 0
M  V30 10 C 4.535322 2.219377 -0.505288 0
M  V30 11 C 2.472138 2.407640 0.885937 0
M  V30 12 C 2.790767 3.206668 1.977743 0
M  V30 13 C 1.815313 3.491216 2.929735 0
M  V30 14 C 0.520575 2.998725 2.824136 0
M  V30 15 Cl -0.635455 3.412435 4.069667 0
M  V30 16 C 0.190992 2.197055 1.735071 0
M  V30 17 C 1.178704 1.941830 0.827117 0
M  V30 18 C -0.458187 0.792951 -2.346415 0
M  V30 19 O 0.047586 1.717807 -3.070991 0
M  V30 20 N -1.511547 -0.025800 -2.797867 0
M  V30 21 C -1.751196 -0.888055 -1.702690 0
M  V30 22 O -2.675974 -1.766699 -1.811743 0
M  V30 23 C -0.848853 -2.794604 0.554913 0
M  V30 24 C -0.619318 -3.686276 -0.483617 0
M  V30 25 C -0.509352 -5.050131 -0.338102 0
M  V30 26 C -0.631566 -5.583534 0.912999 0
M  V30 27 C -0.859164 -4.739538 1.975318 0
M  V30 28 C -0.965056 -3.377663 1.801081 0
M  V30 29 H -0.410295 -2.825639 4.576457 0
M  V30 30 H -1.774167 -1.609777 4.566423 0
M  V30 31 H -2.089163 -3.357519 4.274734 0
M  V30 32 H -1.326829 -0.262716 2.418162 0
M  V30 33 H 2.601774 0.743978 -1.848622 0
M  V30 34 H 5.074618 2.562725 0.377727 0
M  V30 35 H 4.533872 3.008332 -1.291179 0
M  V30 36 H 5.018752 1.331979 -0.973174 0
M  V30 37 H 3.810049 3.564435 2.014603 0
M  V30 38 H 2.158440 4.116877 3.737427 0
M  V30 39 H -0.810455 1.836133 1.650148 0
M  V30 40 H -1.976812 0.025111 -3.727596 0
M  V30 41 H -0.503556 -3.328344 -1.496634 0
M  V30 42 H -0.327654 -5.699342 -1.198837 0
M  V30 43 H -0.539124 -6.670044 0.992302 0
M  V30 44 H -0.948350 -5.207175 2.947857 0
M  V30 END ATOM
M  V30 BEGIN BOND
M  V30 1 1 1 2
M  V30 2 1 2 3
M  V30 3 2 3 4
M  V30 4 1 4 5
M  V30 5 2 5 6
M  V30 6 1 6 7
M  V30 7 2 7 8
M  V30 8 1 8 9
M  V30 9 1 9 10
M  V30 10 1 9 11
M  V30 11 2 11 12
M  V30 12 1 12 13
M  V30 13 2 13 14
M  V30 14 1 14 15
M  V30 15 1 14 16
M  V30 16 2 16 17
M  V30 17 1 6 18
M  V30 18 2 18 19
M  V30 19 1 18 20
M  V30 20 1 20 21
M  V30 21 2 21 22
M  V30 22 1 4 23
M  V30 23 2 23 24
M  V30 24 1 24 25
M  V30 25 2 25 26
M  V30 26 1 26 27
M  V30 27 2 27 28
M  V30 28 1 28 2
M  V30 29 1 21 5
M  V30 30 1 28 23
M  V30 31 1 17 7
M  V30 32 1 17 11
M  V30 33 1 1 29
M  V30 34 1 1 30
M  V30 35 1 1 31
M  V30 36 1 3 32
M  V30 37 1 8 33
M  V30 38 1 10 34
M  V30 39 1 10 35
M  V30 40 1 10 36
M  V30 41 1 12 37
M  V30 42 1 13 38
M  V30 43 1 16 39
M  V30 44 1 20 40
M  V30 45 1 24 41
M  V30 46 1 25 42
M  V30 47 1 26 43
M  V30 48 1 27 44
M  V30 END BOND
M  V30 END CTAB
M  END
>  <Dataset>  (121) 
ChEMBL_Kinases

>  <Ligand_Instance>  (121) 
nan

>  <PDB_ID>  (121) 
nan

>  <Standardized_SMILES>  (121) 
Cn1cc(C2=C(c3cn(C)c4ccc(Cl)cc34)C(=O)NC2=O)c2ccccc21

>  <Name>  (121) 
nan

>  <Pocket>  (121) 
nan

>  <ATP_Site>  (121) 
nan

>  <Peripheral>  (121) 
nan

>  <Num_H_Atoms_ProtBoundConf>  (121) 
nan

>  <Num_Resolved_Atoms>  (121) 
nan

>  <Num_Not_Resolved_Atoms>  (121) 
nan

$$$$
CHEMBL517592
     RDKit          3D

  0  0  0  0  0  0  0  0  0  0999 V3000
M  V30 BEGIN CTAB
M  V30 COUNTS 54 56 0 0 0
M  V30 BEGIN ATOM
M  V30 1 C 1.997285 -1.376986 -1.252409 0
M  V30 2 C 3.476222 -1.353852 -1.245724 0
M  V30 3 C 4.216069 -2.271673 -1.970190 0
M  V30 4 C 5.590158 -2.280431 -1.994527 0
M  V30 5 C 6.277165 -1.333599 -1.265277 0
M  V30 6 C 5.517066 -0.434118 -0.554664 0
M  V30 7 C 4.119236 -0.384477 -0.498106 0
M  V30 8 C 3.433725 0.635333 0.315340 0
M  V30 9 O 4.167273 1.445364 0.923078 0
M  V30 10 O 2.096398 0.577109 0.310952 0
M  V30 11 C 1.240798 1.404973 0.994330 0
M  V30 12 C 1.172619 1.387035 2.460529 0
M  V30 13 C 2.264322 1.986182 3.262953 0
M  V30 14 O 1.795208 2.178045 4.590768 0
M  V30 15 C -0.166458 2.131279 2.802349 0
M  V30 16 C -1.121721 1.197977 2.149338 0
M  V30 17 C -2.220177 1.223891 1.383412 0
M  V30 18 C -2.898351 0.041948 0.921103 0
M  V30 19 C -4.259545 -0.101119 1.032863 0
M  V30 20 C -4.848217 -1.242103 0.549528 0
M  V30 21 C -4.193069 -2.282152 -0.050764 0
M  V30 22 N -4.834474 -3.451762 -0.537746 0
M  V30 23 C -6.263539 -3.630173 -0.424376 0
M  V30 24 C -4.013707 -4.483214 -1.164311 0
M  V30 25 C -2.820275 -2.130835 -0.160566 0
M  V30 26 C -2.195669 -0.998361 0.313531 0
M  V30 27 C -0.548498 -0.054026 2.633016 0
M  V30 28 O -1.085614 -1.198954 2.819307 0
M  V30 29 O 0.793756 0.098546 2.914356 0
M  V30 30 H 1.551773 -1.682866 -0.289025 0
M  V30 31 H 1.544363 -0.453447 -1.687024 0
M  V30 32 H 1.675418 -2.182733 -1.979232 0
M  V30 33 H 3.687354 -3.034340 -2.558565 0
M  V30 34 H 6.110768 -3.024295 -2.581215 0
M  V30 35 H 7.351084 -1.282438 -1.238415 0
M  V30 36 H 6.062613 0.318021 0.024988 0
M  V30 37 H 0.197706 1.140144 0.624956 0
M  V30 38 H 1.343214 2.483097 0.659657 0
M  V30 39 H 3.180085 1.353321 3.309606 0
M  V30 40 H 2.530894 2.973345 2.881232 0
M  V30 41 H 2.465495 2.752195 5.027410 0
M  V30 42 H -0.304933 2.116585 3.901069 0
M  V30 43 H -0.173211 3.131527 2.377467 0
M  V30 44 H -2.483242 2.278586 1.190288 0
M  V30 45 H -4.828211 0.690378 1.498847 0
M  V30 46 H -5.922709 -1.282660 0.672818 0
M  V30 47 H -6.642561 -3.181149 0.531062 0
M  V30 48 H -6.779759 -3.111654 -1.255506 0
M  V30 49 H -6.529819 -4.708111 -0.466359 0
M  V30 50 H -3.550751 -4.074838 -2.097414 0
M  V30 51 H -3.222794 -4.782508 -0.443060 0
M  V30 52 H -4.662020 -5.319800 -1.471267 0
M  V30 53 H -2.275242 -2.946618 -0.636330 0
M  V30 54 H -1.122544 -0.993043 0.154619 0
M  V30 END ATOM
M  V30 BEGIN BOND
M  V30 1 1 1 2
M  V30 2 2 2 3
M  V30 3 1 3 4
M  V30 4 2 4 5
M  V30 5 1 5 6
M  V30 6 2 6 7
M  V30 7 1 7 8
M  V30 8 2 8 9
M  V30 9 1 8 10
M  V30 10 1 10 11
M  V30 11 1 11 12
M  V30 12 1 12 13
M  V30 13 1 13 14
M  V30 14 1 12 15
M  V30 15 1 15 16
M  V30 16 2 16 17
M  V30 17 1 17 18
M  V30 18 2 18 19
M  V30 19 1 19 20
M  V30 20 2 20 21
M  V30 21 1 21 22
M  V30 22 1 22 23
M  V30 23 1 22 24
M  V30 24 1 21 25
M  V30 25 2 25 26
M  V30 26 1 16 27
M  V30 27 2 27 28
M  V30 28 1 27 29
M  V30 29 1 7 2
M  V30 30 1 29 12
M  V30 31 1 26 18
M  V30 32 1 1 30
M  V30 33 1 1 31
M  V30 34 1 1 32
M  V30 35 1 3 33
M  V30 36 1 4 34
M  V30 37 1 5 35
M  V30 38 1 6 36
M  V30 39 1 11 37
M  V30 40 1 11 38
M  V30 41 1 13 39
M  V30 42 1 13 40
M  V30 43 1 14 41
M  V30 44 1 15 42
M  V30 45 1 15 43
M  V30 46 1 17 44
M  V30 47 1 19 45
M  V30 48 1 20 46
M  V30 49 1 23 47
M  V30 50 1 23 48
M  V30 51 1 23 49
M  V30 52 1 24 50
M  V30 53 1 24 51
M  V30 54 1 24 52
M  V30 55 1 25 53
M  V30 56 1 26 54
M  V30 END BOND
M  V30 END CTAB
M  END
>  <Dataset>  (122) 
ChEMBL_Kinases

>  <Ligand_Instance>  (122) 
nan

>  <PDB_ID>  (122) 
nan

>  <Standardized_SMILES>  (122) 
Cc1ccccc1C(=O)OCC1(CO)C/C(=C/c2ccc(N(C)C)cc2)C(=O)O1

>  <Name>  (122) 
nan

>  <Pocket>  (122) 
nan

>  <ATP_Site>  (122) 
nan

>  <Peripheral>  (122) 
nan

>  <Num_H_Atoms_ProtBoundConf>  (122) 
nan

>  <Num_Resolved_Atoms>  (122) 
nan

>  <Num_Not_Resolved_Atoms>  (122) 
nan

$$$$
CHEMBL517666
     RDKit          3D

  0  0  0  0  0  0  0  0  0  0999 V3000
M  V30 BEGIN CTAB
M  V30 COUNTS 49 51 0 0 0
M  V30 BEGIN ATOM
M  V30 1 C 3.607767 -6.005601 -3.089835 0
M  V30 2 C 4.140473 -5.118324 -2.011378 0
M  V30 3 C 3.559638 -3.732210 -2.050923 0
M  V30 4 O 2.719589 -3.363345 -2.898063 0
M  V30 5 N 4.046215 -2.855575 -1.033732 0
M  V30 6 C 3.500785 -1.524482 -1.056635 0
M  V30 7 C 4.231599 -0.640512 -1.836067 0
M  V30 8 C 3.757923 0.657679 -1.899079 0
M  V30 9 C 2.622979 1.060650 -1.227877 0
M  V30 10 C 2.090463 2.447567 -1.272781 0
M  V30 11 C 1.907065 0.169688 -0.456865 0
M  V30 12 C 0.690709 0.424395 0.312551 0
M  V30 13 C 0.639441 -0.061819 1.603857 0
M  V30 14 C -0.490310 0.154405 2.363219 0
M  V30 15 C -1.592219 0.840748 1.899151 0
M  V30 16 C -2.834186 1.131443 2.599690 0
M  V30 17 O -3.781934 1.768556 2.082030 0
M  V30 18 N -3.166205 0.764739 3.912960 0
M  V30 19 C -4.098981 0.757978 4.995710 0
M  V30 20 C -5.360777 0.035752 4.617479 0
M  V30 21 C -6.258773 0.470457 3.535264 0
M  V30 22 C -6.710053 0.443422 5.004776 0
M  V30 23 C -1.545599 1.327293 0.612255 0
M  V30 24 C -0.415338 1.110049 -0.145213 0
M  V30 25 C 2.385445 -1.129951 -0.396634 0
M  V30 26 H 2.971024 -5.496739 -3.828846 0
M  V30 27 H 4.433798 -6.533347 -3.629693 0
M  V30 28 H 2.993544 -6.828355 -2.644195 0
M  V30 29 H 3.921875 -5.560020 -1.026567 0
M  V30 30 H 5.242917 -4.965606 -2.063802 0
M  V30 31 H 4.748937 -3.117154 -0.302383 0
M  V30 32 H 5.133926 -0.815051 -2.413985 0
M  V30 33 H 4.224696 1.470259 -2.472209 0
M  V30 34 H 2.948004 3.181318 -1.348060 0
M  V30 35 H 1.522461 2.707702 -0.370028 0
M  V30 36 H 1.464596 2.603377 -2.188235 0
M  V30 37 H 1.431277 -0.611943 2.081567 0
M  V30 38 H -0.555102 -0.213466 3.370266 0
M  V30 39 H -2.295357 0.233347 4.270261 0
M  V30 40 H -3.714381 0.249323 5.900925 0
M  V30 41 H -4.344060 1.831768 5.293532 0
M  V30 42 H -5.161209 -1.104927 4.644870 0
M  V30 43 H -6.140173 1.473361 3.096025 0
M  V30 44 H -6.747646 -0.289486 2.859409 0
M  V30 45 H -6.843046 1.444639 5.450805 0
M  V30 46 H -7.465999 -0.343706 5.238144 0
M  V30 47 H -2.369115 1.884355 0.153615 0
M  V30 48 H -0.386386 1.492663 -1.153475 0
M  V30 49 H 1.932605 -1.932766 0.163799 0
M  V30 END ATOM
M  V30 BEGIN BOND
M  V30 1 1 1 2
M  V30 2 1 2 3
M  V30 3 2 3 4
M  V30 4 1 3 5
M  V30 5 1 5 6
M  V30 6 2 6 7
M  V30 7 1 7 8
M  V30 8 2 8 9
M  V30 9 1 9 10
M  V30 10 1 9 11
M  V30 11 1 11 12
M  V30 12 2 12 13
M  V30 13 1 13 14
M  V30 14 2 14 15
M  V30 15 1 15 16
M  V30 16 2 16 17
M  V30 17 1 16 18
M  V30 18 1 18 19
M  V30 19 1 19 20
M  V30 20 1 20 21
M  V30 21 1 21 22
M  V30 22 1 15 23
M  V30 23 2 23 24
M  V30 24 2 11 25
M  V30 25 1 25 6
M  V30 26 1 24 12
M  V30 27 1 22 20
M  V30 28 1 1 26
M  V30 29 1 1 27
M  V30 30 1 1 28
M  V30 31 1 2 29
M  V30 32 1 2 30
M  V30 33 1 5 31
M  V30 34 1 7 32
M  V30 35 1 8 33
M  V30 36 1 10 34
M  V30 37 1 10 35
M  V30 38 1 10 36
M  V30 39 1 13 37
M  V30 40 1 14 38
M  V30 41 1 18 39
M  V30 42 1 19 40
M  V30 43 1 19 41
M  V30 44 1 20 42
M  V30 45 1 21 43
M  V30 46 1 21 44
M  V30 47 1 22 45
M  V30 48 1 22 46
M  V30 49 1 23 47
M  V30 50 1 24 48
M  V30 51 1 25 49
M  V30 END BOND
M  V30 END CTAB
M  END
>  <Dataset>  (123) 
ChEMBL_Kinases

>  <Ligand_Instance>  (123) 
nan

>  <PDB_ID>  (123) 
nan

>  <Standardized_SMILES>  (123) 
CCC(=O)Nc1ccc(C)c(-c2ccc(C(=O)NCC3CC3)cc2)c1

>  <Name>  (123) 
GW796921X

>  <Pocket>  (123) 
nan

>  <ATP_Site>  (123) 
nan

>  <Peripheral>  (123) 
nan

>  <Num_H_Atoms_ProtBoundConf>  (123) 
nan

>  <Num_Resolved_Atoms>  (123) 
nan

>  <Num_Not_Resolved_Atoms>  (123) 
nan

$$$$
CHEMBL517671
     RDKit          3D

  0  0  0  0  0  0  0  0  0  0999 V3000
M  V30 BEGIN CTAB
M  V30 COUNTS 57 60 0 0 0
M  V30 BEGIN ATOM
M  V30 1 C 3.484758 -3.092565 5.701987 0
M  V30 2 O 4.068668 -1.787314 5.713526 0
M  V30 3 C 4.565626 -1.210423 4.578646 0
M  V30 4 C 5.119228 0.063302 4.662473 0
M  V30 5 C 5.609519 0.619875 3.516739 0
M  V30 6 C 5.586864 -0.005285 2.289638 0
M  V30 7 C 5.046758 -1.268432 2.163188 0
M  V30 8 C 4.914634 -2.117943 0.950742 0
M  V30 9 N 3.619192 -1.834863 0.364326 0
M  V30 10 C 3.229185 -0.725857 -0.395388 0
M  V30 11 O 4.101363 0.172926 -0.622164 0
M  V30 12 C 1.886969 -0.548118 -0.936287 0
M  V30 13 C 0.846857 -1.438773 -0.763839 0
M  V30 14 C -0.401767 -1.209317 -1.305381 0
M  V30 15 C -0.675844 -0.072477 -2.050595 0
M  V30 16 C -2.041972 0.027390 -2.555596 0
M  V30 17 C -3.053484 -0.264896 -1.632614 0
M  V30 18 C -4.376368 -0.198106 -2.016602 0
M  V30 19 C -5.494963 -0.484680 -1.125423 0
M  V30 20 O -6.717333 -0.435082 -1.496721 0
M  V30 21 N -5.326732 -0.845447 0.237442 0
M  V30 22 C -6.456289 -1.124625 1.096329 0
M  V30 23 C -6.316823 -0.473548 2.492609 0
M  V30 24 C -6.290666 -1.932976 2.331306 0
M  V30 25 C -4.680223 0.159824 -3.317905 0
M  V30 26 C -3.700711 0.458801 -4.267423 0
M  V30 27 C -2.390505 0.379853 -3.842600 0
M  V30 28 C -1.293690 0.682399 -4.799639 0
M  V30 29 C 0.346376 0.834647 -2.238243 0
M  V30 30 C 1.580831 0.571069 -1.681610 0
M  V30 31 C 4.547306 -1.828603 3.345446 0
M  V30 32 H 4.258984 -3.813389 5.426541 0
M  V30 33 H 3.076426 -3.350124 6.690364 0
M  V30 34 H 2.632723 -3.134565 4.992331 0
M  V30 35 H 5.156651 0.587677 5.603891 0
M  V30 36 H 6.053838 1.616568 3.529965 0
M  V30 37 H 5.966044 0.400539 1.362655 0
M  V30 38 H 5.014467 -3.180324 1.240750 0
M  V30 39 H 5.734747 -1.916339 0.224460 0
M  V30 40 H 2.883514 -2.559689 0.535970 0
M  V30 41 H 1.013149 -2.330733 -0.195596 0
M  V30 42 H -1.167583 -1.965152 -1.120889 0
M  V30 43 H -2.819587 -0.544874 -0.614284 0
M  V30 44 H -4.376543 -0.916365 0.648012 0
M  V30 45 H -7.473862 -1.065169 0.654950 0
M  V30 46 H -7.255811 0.008188 2.884062 0
M  V30 47 H -5.414653 0.112267 2.710148 0
M  V30 48 H -5.300329 -2.414112 2.549644 0
M  V30 49 H -7.132061 -2.494625 2.734908 0
M  V30 50 H -5.707489 0.216216 -3.631440 0
M  V30 51 H -3.948974 0.738089 -5.284403 0
M  V30 52 H -1.583552 0.330966 -5.829777 0
M  V30 53 H -1.078631 1.750518 -4.917792 0
M  V30 54 H -0.348983 0.127717 -4.562400 0
M  V30 55 H 0.104964 1.704111 -2.817523 0
M  V30 56 H 2.333598 1.323618 -1.867729 0
M  V30 57 H 4.104203 -2.815523 3.347907 0
M  V30 END ATOM
M  V30 BEGIN BOND
M  V30 1 1 1 2
M  V30 2 1 2 3
M  V30 3 2 3 4
M  V30 4 1 4 5
M  V30 5 2 5 6
M  V30 6 1 6 7
M  V30 7 1 7 8
M  V30 8 1 8 9
M  V30 9 1 9 10
M  V30 10 2 10 11
M  V30 11 1 10 12
M  V30 12 2 12 13
M  V30 13 1 13 14
M  V30 14 2 14 15
M  V30 15 1 15 16
M  V30 16 2 16 17
M  V30 17 1 17 18
M  V30 18 1 18 19
M  V30 19 2 19 20
M  V30 20 1 19 21
M  V30 21 1 21 22
M  V30 22 1 22 23
M  V30 23 1 23 24
M  V30 24 2 18 25
M  V30 25 1 25 26
M  V30 26 2 26 27
M  V30 27 1 27 28
M  V30 28 1 15 29
M  V30 29 2 29 30
M  V30 30 2 7 31
M  V30 31 1 31 3
M  V30 32 1 30 12
M  V30 33 1 27 16
M  V30 34 1 24 22
M  V30 35 1 1 32
M  V30 36 1 1 33
M  V30 37 1 1 34
M  V30 38 1 4 35
M  V30 39 1 5 36
M  V30 40 1 6 37
M  V30 41 1 8 38
M  V30 42 1 8 39
M  V30 43 1 9 40
M  V30 44 1 13 41
M  V30 45 1 14 42
M  V30 46 1 17 43
M  V30 47 1 21 44
M  V30 48 1 22 45
M  V30 49 1 23 46
M  V30 50 1 23 47
M  V30 51 1 24 48
M  V30 52 1 24 49
M  V30 53 1 25 50
M  V30 54 1 26 51
M  V30 55 1 28 52
M  V30 56 1 28 53
M  V30 57 1 28 54
M  V30 58 1 29 55
M  V30 59 1 30 56
M  V30 60 1 31 57
M  V30 END BOND
M  V30 END CTAB
M  END
>  <Dataset>  (124) 
ChEMBL_Kinases

>  <Ligand_Instance>  (124) 
nan

>  <PDB_ID>  (124) 
nan

>  <Standardized_SMILES>  (124) 
COc1cccc(CNC(=O)c2ccc(-c3cc(C(=O)NC4CC4)ccc3C)cc2)c1

>  <Name>  (124) 
nan

>  <Pocket>  (124) 
nan

>  <ATP_Site>  (124) 
nan

>  <Peripheral>  (124) 
nan

>  <Num_H_Atoms_ProtBoundConf>  (124) 
nan

>  <Num_Resolved_Atoms>  (124) 
nan

>  <Num_Not_Resolved_Atoms>  (124) 
nan

$$$$
CHEMBL373303
     RDKit          3D

  0  0  0  0  0  0  0  0  0  0999 V3000
M  V30 BEGIN CTAB
M  V30 COUNTS 47 50 0 0 0
M  V30 BEGIN ATOM
M  V30 1 C -2.883059 -3.677001 2.210721 0
M  V30 2 N -3.252402 -2.383518 2.680302 0
M  V30 3 C -3.412283 -1.366379 1.702679 0
M  V30 4 C -3.115369 0.027007 2.189342 0
M  V30 5 C -1.814788 0.108478 2.949927 0
M  V30 6 C -0.711026 0.090022 1.934907 0
M  V30 7 C 0.045853 1.230160 1.659602 0
M  V30 8 C 1.014194 0.967986 0.683358 0
M  V30 9 C 1.983870 1.895508 0.133039 0
M  V30 10 C 1.978152 2.250083 -1.196665 0
M  V30 11 C 2.835690 3.113630 -1.840478 0
M  V30 12 N 3.781205 3.659255 -1.045616 0
M  V30 13 C 3.841597 3.356196 0.255707 0
M  V30 14 C 2.975787 2.481790 0.914945 0
M  V30 15 C 0.794991 -0.373061 0.396830 0
M  V30 16 C 1.585611 -1.103046 -0.586831 0
M  V30 17 C 2.964757 -1.279388 -0.437410 0
M  V30 18 C 3.728322 -1.980830 -1.377890 0
M  V30 19 C 3.106423 -2.513264 -2.481792 0
M  V30 20 F 3.854986 -3.188267 -3.381272 0
M  V30 21 C 1.733541 -2.372281 -2.689102 0
M  V30 22 Br 0.908881 -3.121615 -4.226546 0
M  V30 23 C 1.053951 -1.671381 -1.722648 0
M  V30 24 N -0.214603 -0.862277 1.137980 0
M  V30 25 C -1.637784 -1.012700 3.920125 0
M  V30 26 C -2.759595 -1.998476 3.953197 0
M  V30 27 H -2.973491 -3.676706 1.105394 0
M  V30 28 H -3.689042 -4.386045 2.556594 0
M  V30 29 H -1.895770 -4.028875 2.540052 0
M  V30 30 H -2.931045 -1.578634 0.711446 0
M  V30 31 H -4.515013 -1.352859 1.443972 0
M  V30 32 H -3.982065 0.378550 2.784449 0
M  V30 33 H -3.001883 0.698673 1.314922 0
M  V30 34 H -1.791483 1.110546 3.435341 0
M  V30 35 H -0.022941 2.242567 2.089083 0
M  V30 36 H 1.201520 1.786437 -1.792668 0
M  V30 37 H 2.708617 3.297228 -2.899820 0
M  V30 38 H 4.644387 3.848406 0.825215 0
M  V30 39 H 3.053985 2.259437 1.967398 0
M  V30 40 H 3.400011 -0.831749 0.462905 0
M  V30 41 H 4.783379 -2.049626 -1.152707 0
M  V30 42 H -0.016265 -1.570873 -1.900900 0
M  V30 43 H -0.593258 -1.826651 1.135045 0
M  V30 44 H -1.562836 -0.558344 4.951486 0
M  V30 45 H -0.637802 -1.491466 3.766703 0
M  V30 46 H -2.387885 -2.910270 4.482346 0
M  V30 47 H -3.587934 -1.580647 4.558929 0
M  V30 END ATOM
M  V30 BEGIN BOND
M  V30 1 1 1 2
M  V30 2 1 2 3
M  V30 3 1 3 4
M  V30 4 1 4 5
M  V30 5 1 5 6
M  V30 6 2 6 7
M  V30 7 1 7 8
M  V30 8 1 8 9
M  V30 9 2 9 10
M  V30 10 1 10 11
M  V30 11 2 11 12
M  V30 12 1 12 13
M  V30 13 2 13 14
M  V30 14 2 8 15
M  V30 15 1 15 16
M  V30 16 2 16 17
M  V30 17 1 17 18
M  V30 18 2 18 19
M  V30 19 1 19 20
M  V30 20 1 19 21
M  V30 21 1 21 22
M  V30 22 2 21 23
M  V30 23 1 15 24
M  V30 24 1 5 25
M  V30 25 1 25 26
M  V30 26 1 26 2
M  V30 27 1 24 6
M  V30 28 1 14 9
M  V30 29 1 23 16
M  V30 30 1 1 27
M  V30 31 1 1 28
M  V30 32 1 1 29
M  V30 33 1 3 30
M  V30 34 1 3 31
M  V30 35 1 4 32
M  V30 36 1 4 33
M  V30 37 1 5 34
M  V30 38 1 7 35
M  V30 39 1 10 36
M  V30 40 1 11 37
M  V30 41 1 13 38
M  V30 42 1 14 39
M  V30 43 1 17 40
M  V30 44 1 18 41
M  V30 45 1 23 42
M  V30 46 1 24 43
M  V30 47 1 25 44
M  V30 48 1 25 45
M  V30 49 1 26 46
M  V30 50 1 26 47
M  V30 END BOND
M  V30 END CTAB
M  END
>  <Dataset>  (125) 
ChEMBL_Kinases

>  <Ligand_Instance>  (125) 
nan

>  <PDB_ID>  (125) 
nan

>  <Standardized_SMILES>  (125) 
CN1CCC(c2cc(-c3ccncc3)c(-c3ccc(F)c(Br)c3)[nH]2)CC1

>  <Name>  (125) 
nan

>  <Pocket>  (125) 
nan

>  <ATP_Site>  (125) 
nan

>  <Peripheral>  (125) 
nan

>  <Num_H_Atoms_ProtBoundConf>  (125) 
nan

>  <Num_Resolved_Atoms>  (125) 
nan

>  <Num_Not_Resolved_Atoms>  (125) 
nan

$$$$
CHEMBL575340
     RDKit          3D

  0  0  0  0  0  0  0  0  0  0999 V3000
M  V30 BEGIN CTAB
M  V30 COUNTS 54 58 0 0 0
M  V30 BEGIN ATOM
M  V30 1 C 5.142237 -3.541308 1.671162 0
M  V30 2 C 3.966059 -4.020679 2.217793 0
M  V30 3 C 2.722485 -3.917979 1.598109 0
M  V30 4 C 2.748034 -3.284362 0.361522 0
M  V30 5 C 3.893607 -2.789524 -0.225672 0
M  V30 6 C 5.115629 -2.921743 0.444917 0
M  V30 7 C 3.535465 -2.184248 -1.535701 0
M  V30 8 C 2.092959 -1.788523 -1.288388 0
M  V30 9 N 2.090836 -0.595290 -0.483398 0
M  V30 10 C 0.807202 -0.019699 -0.152297 0
M  V30 11 C 0.720717 1.122431 0.618015 0
M  V30 12 C -0.526717 1.614577 0.886428 0
M  V30 13 N -0.753348 2.791740 1.669729 0
M  V30 14 C -0.840289 2.655835 3.100105 0
M  V30 15 C -1.135505 3.710234 3.940470 0
M  V30 16 C -1.205884 3.553674 5.297656 0
M  V30 17 N -0.982881 2.352074 5.809445 0
M  V30 18 C -0.687960 1.255486 5.089821 0
M  V30 19 C -0.619683 1.432684 3.702635 0
M  V30 20 N -1.622601 0.980332 0.398627 0
M  V30 21 C -1.564037 -0.129114 -0.350951 0
M  V30 22 N -2.746090 -0.750847 -0.846347 0
M  V30 23 C -4.025971 -0.137079 -0.664127 0
M  V30 24 C -5.042033 -0.940840 -1.460193 0
M  V30 25 N -4.603262 -1.247623 -2.782005 0
M  V30 26 C -3.303691 -1.821227 -2.902354 0
M  V30 27 C -2.668367 -2.023293 -1.544003 0
M  V30 28 N -0.339727 -0.571349 -0.586509 0
M  V30 29 C 1.611622 -3.016715 -0.548823 0
M  V30 30 H 6.079508 -3.662715 2.225310 0
M  V30 31 H 3.993819 -4.513658 3.195156 0
M  V30 32 H 1.823457 -4.292832 2.033626 0
M  V30 33 H 6.020946 -2.541458 0.001584 0
M  V30 34 H 4.129659 -1.252161 -1.695624 0
M  V30 35 H 3.624826 -2.898662 -2.378481 0
M  V30 36 H 1.552244 -1.649592 -2.253071 0
M  V30 37 H 2.941082 -0.110880 -0.118443 0
M  V30 38 H 1.593921 1.616859 0.999028 0
M  V30 39 H -0.858513 3.745092 1.260483 0
M  V30 40 H -1.313620 4.681551 3.504235 0
M  V30 41 H -1.435312 4.357471 5.988195 0
M  V30 42 H -0.517371 0.304552 5.575965 0
M  V30 43 H -0.380966 0.545689 3.133412 0
M  V30 44 H -4.327492 -0.179683 0.397841 0
M  V30 45 H -4.027292 0.924935 -1.005715 0
M  V30 46 H -5.938063 -0.262600 -1.574633 0
M  V30 47 H -5.397787 -1.789511 -0.858151 0
M  V30 48 H -4.855942 -0.552113 -3.504734 0
M  V30 49 H -2.622240 -1.129101 -3.469641 0
M  V30 50 H -3.303848 -2.781375 -3.482737 0
M  V30 51 H -1.614142 -2.352706 -1.668749 0
M  V30 52 H -3.278461 -2.771245 -0.979387 0
M  V30 53 H 1.585385 -3.834832 -1.306228 0
M  V30 54 H 0.638352 -2.892103 -0.046210 0
M  V30 END ATOM
M  V30 BEGIN BOND
M  V30 1 2 1 2
M  V30 2 1 2 3
M  V30 3 2 3 4
M  V30 4 1 4 5
M  V30 5 2 5 6
M  V30 6 1 5 7
M  V30 7 1 7 8
M  V30 8 1 8 9
M  V30 9 1 9 10
M  V30 10 2 10 11
M  V30 11 1 11 12
M  V30 12 1 12 13
M  V30 13 1 13 14
M  V30 14 2 14 15
M  V30 15 1 15 16
M  V30 16 2 16 17
M  V30 17 1 17 18
M  V30 18 2 18 19
M  V30 19 2 12 20
M  V30 20 1 20 21
M  V30 21 1 21 22
M  V30 22 1 22 23
M  V30 23 1 23 24
M  V30 24 1 24 25
M  V30 25 1 25 26
M  V30 26 1 26 27
M  V30 27 2 21 28
M  V30 28 1 8 29
M  V30 29 1 6 1
M  V30 30 1 28 10
M  V30 31 1 29 4
M  V30 32 1 19 14
M  V30 33 1 27 22
M  V30 34 1 1 30
M  V30 35 1 2 31
M  V30 36 1 3 32
M  V30 37 1 6 33
M  V30 38 1 7 34
M  V30 39 1 7 35
M  V30 40 1 8 36
M  V30 41 1 9 37
M  V30 42 1 11 38
M  V30 43 1 13 39
M  V30 44 1 15 40
M  V30 45 1 16 41
M  V30 46 1 18 42
M  V30 47 1 19 43
M  V30 48 1 23 44
M  V30 49 1 23 45
M  V30 50 1 24 46
M  V30 51 1 24 47
M  V30 52 1 25 48
M  V30 53 1 26 49
M  V30 54 1 26 50
M  V30 55 1 27 51
M  V30 56 1 27 52
M  V30 57 1 29 53
M  V30 58 1 29 54
M  V30 END BOND
M  V30 END CTAB
M  END
>  <Dataset>  (126) 
ChEMBL_Kinases

>  <Ligand_Instance>  (126) 
nan

>  <PDB_ID>  (126) 
nan

>  <Standardized_SMILES>  (126) 
c1ccc2c(c1)CC(Nc1cc(Nc3ccncc3)nc(N3CCNCC3)n1)C2

>  <Name>  (126) 
nan

>  <Pocket>  (126) 
nan

>  <ATP_Site>  (126) 
nan

>  <Peripheral>  (126) 
nan

>  <Num_H_Atoms_ProtBoundConf>  (126) 
nan

>  <Num_Resolved_Atoms>  (126) 
nan

>  <Num_Not_Resolved_Atoms>  (126) 
nan

$$$$
CHEMBL575336
     RDKit          3D

  0  0  0  0  0  0  0  0  0  0999 V3000
M  V30 BEGIN CTAB
M  V30 COUNTS 26 29 0 0 0
M  V30 BEGIN ATOM
M  V30 1 Br -0.704271 -3.639977 5.394790 0
M  V30 2 C -0.192506 -3.001531 3.672835 0
M  V30 3 C 0.492738 -3.802077 2.784296 0
M  V30 4 C 0.922625 -3.473129 1.515406 0
M  V30 5 C 0.620708 -2.179059 1.101120 0
M  V30 6 N 0.887651 -1.550079 -0.050321 0
M  V30 7 C 0.395661 -0.288262 -0.000446 0
M  V30 8 C -0.203957 -0.132925 1.243694 0
M  V30 9 C -0.798823 1.071305 1.579129 0
M  V30 10 C -0.791917 2.118315 0.667088 0
M  V30 11 C -0.199305 1.957737 -0.556473 0
M  V30 12 C -0.055220 2.834259 -1.637606 0
M  V30 13 C 0.631941 2.082630 -2.572410 0
M  V30 14 N 0.914955 0.842829 -2.161206 0
M  V30 15 C 0.402174 0.767505 -0.919082 0
M  V30 16 C -0.069265 -1.313229 1.944632 0
M  V30 17 C -0.474432 -1.717300 3.221049 0
M  V30 18 H 0.723057 -4.819478 3.126189 0
M  V30 19 H 1.454601 -4.201801 0.917331 0
M  V30 20 H 1.396054 -1.961967 -0.865374 0
M  V30 21 H -1.277349 1.229400 2.542805 0
M  V30 22 H -1.240945 3.073423 0.880833 0
M  V30 23 H -0.387758 3.854936 -1.747487 0
M  V30 24 H 0.921994 2.445329 -3.548992 0
M  V30 25 H 1.417957 0.112738 -2.691502 0
M  V30 26 H -1.010410 -1.046522 3.877847 0
M  V30 END ATOM
M  V30 BEGIN BOND
M  V30 1 1 1 2
M  V30 2 2 2 3
M  V30 3 1 3 4
M  V30 4 2 4 5
M  V30 5 1 5 6
M  V30 6 1 6 7
M  V30 7 2 7 8
M  V30 8 1 8 9
M  V30 9 2 9 10
M  V30 10 1 10 11
M  V30 11 1 11 12
M  V30 12 2 12 13
M  V30 13 1 13 14
M  V30 14 1 14 15
M  V30 15 1 8 16
M  V30 16 2 16 17
M  V30 17 1 17 2
M  V30 18 1 16 5
M  V30 19 1 15 7
M  V30 20 2 15 11
M  V30 21 1 3 18
M  V30 22 1 4 19
M  V30 23 1 6 20
M  V30 24 1 9 21
M  V30 25 1 10 22
M  V30 26 1 12 23
M  V30 27 1 13 24
M  V30 28 1 14 25
M  V30 29 1 17 26
M  V30 END BOND
M  V30 END CTAB
M  END
>  <Dataset>  (127) 
ChEMBL_Kinases

>  <Ligand_Instance>  (127) 
nan

>  <PDB_ID>  (127) 
nan

>  <Standardized_SMILES>  (127) 
Brc1ccc2[nH]c3c(ccc4cc[nH]c43)c2c1

>  <Name>  (127) 
nan

>  <Pocket>  (127) 
nan

>  <ATP_Site>  (127) 
nan

>  <Peripheral>  (127) 
nan

>  <Num_H_Atoms_ProtBoundConf>  (127) 
nan

>  <Num_Resolved_Atoms>  (127) 
nan

>  <Num_Not_Resolved_Atoms>  (127) 
nan

$$$$
CHEMBL518048
     RDKit          3D

  0  0  0  0  0  0  0  0  0  0999 V3000
M  V30 BEGIN CTAB
M  V30 COUNTS 61 65 0 0 0
M  V30 BEGIN ATOM
M  V30 1 C 3.243035 -1.521334 5.096865 0
M  V30 2 N 4.445258 -2.131061 4.650361 0
M  V30 3 C 4.483264 -3.554204 4.661826 0
M  V30 4 C 5.191969 -1.467738 3.647490 0
M  V30 5 C 4.591901 -1.391985 2.288290 0
M  V30 6 N 3.343303 -0.698083 2.282202 0
M  V30 7 C 2.818156 -0.658379 0.963912 0
M  V30 8 O 3.370590 -1.162040 -0.062356 0
M  V30 9 C 1.543939 -0.033664 0.520541 0
M  V30 10 C 1.306557 -0.185371 -0.942397 0
M  V30 11 N 0.022214 0.481420 -1.216405 0
M  V30 12 C -0.174887 1.764693 -1.546302 0
M  V30 13 C 0.806871 2.737213 -1.696801 0
M  V30 14 C 0.481648 4.030465 -2.039926 0
M  V30 15 C -0.867618 4.331360 -2.231226 0
M  V30 16 O -1.231904 5.638626 -2.581863 0
M  V30 17 C -1.788530 3.322606 -2.066734 0
M  V30 18 C -1.512306 2.032720 -1.728651 0
M  V30 19 C -2.142720 0.849671 -1.495703 0
M  V30 20 C -3.466810 0.540088 -1.535235 0
M  V30 21 C -3.879507 -0.739611 -1.259153 0
M  V30 22 C -2.961129 -1.719096 -0.940936 0
M  V30 23 C -3.181005 -3.127558 -0.639585 0
M  V30 24 C -3.894999 -4.070361 -1.351090 0
M  V30 25 C -4.003473 -5.362069 -0.894016 0
M  V30 26 C -3.414467 -5.775331 0.278515 0
M  V30 27 C -2.689843 -4.869478 1.025177 0
M  V30 28 C -2.597581 -3.590577 0.547488 0
M  V30 29 C -1.601853 -1.381403 -0.904453 0
M  V30 30 C -1.194047 -0.095440 -1.182352 0
M  V30 31 C -5.326076 -0.904637 -1.337180 0
M  V30 32 O -6.021322 -1.933658 -1.143132 0
M  V30 33 N -5.788341 0.414950 -1.695581 0
M  V30 34 C -4.669232 1.275307 -1.812408 0
M  V30 35 O -4.921058 2.434558 -2.114775 0
M  V30 36 H 2.314638 -1.856127 4.581465 0
M  V30 37 H 3.085188 -1.869056 6.163360 0
M  V30 38 H 3.358944 -0.438929 5.167458 0
M  V30 39 H 3.514492 -4.062817 4.524891 0
M  V30 40 H 5.271173 -3.932220 3.982767 0
M  V30 41 H 4.840199 -3.856487 5.691148 0
M  V30 42 H 6.169994 -2.019643 3.552662 0
M  V30 43 H 5.449808 -0.449517 4.015746 0
M  V30 44 H 5.299127 -0.768405 1.666829 0
M  V30 45 H 4.511023 -2.385266 1.815842 0
M  V30 46 H 2.664222 -0.200275 2.897089 0
M  V30 47 H 0.733722 -0.589679 1.060165 0
M  V30 48 H 1.450994 1.014461 0.811551 0
M  V30 49 H 1.255843 -1.239803 -1.237227 0
M  V30 50 H 2.065053 0.399402 -1.493785 0
M  V30 51 H 1.857306 2.532246 -1.555612 0
M  V30 52 H 1.222759 4.805720 -2.163832 0
M  V30 53 H -1.309230 6.290365 -1.807080 0
M  V30 54 H -2.791061 3.630182 -2.230148 0
M  V30 55 H -4.330488 -3.720313 -2.254300 0
M  V30 56 H -4.585212 -6.015620 -1.530061 0
M  V30 57 H -3.531168 -6.805563 0.594600 0
M  V30 58 H -2.217892 -5.170425 1.949467 0
M  V30 59 H -2.015822 -2.915088 1.171175 0
M  V30 60 H -0.797356 -2.087585 -0.663891 0
M  V30 61 H -6.834067 0.569223 -1.819257 0
M  V30 END ATOM
M  V30 BEGIN BOND
M  V30 1 1 1 2
M  V30 2 1 2 3
M  V30 3 1 2 4
M  V30 4 1 4 5
M  V30 5 1 5 6
M  V30 6 1 6 7
M  V30 7 2 7 8
M  V30 8 1 7 9
M  V30 9 1 9 10
M  V30 10 1 10 11
M  V30 11 1 11 12
M  V30 12 2 12 13
M  V30 13 1 13 14
M  V30 14 2 14 15
M  V30 15 1 15 16
M  V30 16 1 15 17
M  V30 17 2 17 18
M  V30 18 1 18 19
M  V30 19 2 19 20
M  V30 20 1 20 21
M  V30 21 2 21 22
M  V30 22 1 22 23
M  V30 23 2 23 24
M  V30 24 1 24 25
M  V30 25 2 25 26
M  V30 26 1 26 27
M  V30 27 2 27 28
M  V30 28 1 22 29
M  V30 29 2 29 30
M  V30 30 1 21 31
M  V30 31 2 31 32
M  V30 32 1 31 33
M  V30 33 1 33 34
M  V30 34 2 34 35
M  V30 35 1 30 11
M  V30 36 1 18 12
M  V30 37 1 30 19
M  V30 38 1 34 20
M  V30 39 1 28 23
M  V30 40 1 1 36
M  V30 41 1 1 37
M  V30 42 1 1 38
M  V30 43 1 3 39
M  V30 44 1 3 40
M  V30 45 1 3 41
M  V30 46 1 4 42
M  V30 47 1 4 43
M  V30 48 1 5 44
M  V30 49 1 5 45
M  V30 50 1 6 46
M  V30 51 1 9 47
M  V30 52 1 9 48
M  V30 53 1 10 49
M  V30 54 1 10 50
M  V30 55 1 13 51
M  V30 56 1 14 52
M  V30 57 1 16 53
M  V30 58 1 17 54
M  V30 59 1 24 55
M  V30 60 1 25 56
M  V30 61 1 26 57
M  V30 62 1 27 58
M  V30 63 1 28 59
M  V30 64 1 29 60
M  V30 65 1 33 61
M  V30 END BOND
M  V30 END CTAB
M  END
>  <Dataset>  (128) 
ChEMBL_Kinases

>  <Ligand_Instance>  (128) 
nan

>  <PDB_ID>  (128) 
nan

>  <Standardized_SMILES>  (128) 
CN(C)CCNC(=O)CCn1c2ccc(O)cc2c2c3c(c(-c4ccccc4)cc21)C(=O)NC3=O

>  <Name>  (128) 
nan

>  <Pocket>  (128) 
nan

>  <ATP_Site>  (128) 
nan

>  <Peripheral>  (128) 
nan

>  <Num_H_Atoms_ProtBoundConf>  (128) 
nan

>  <Num_Resolved_Atoms>  (128) 
nan

>  <Num_Not_Resolved_Atoms>  (128) 
nan

$$$$
CHEMBL518292
     RDKit          3D

  0  0  0  0  0  0  0  0  0  0999 V3000
M  V30 BEGIN CTAB
M  V30 COUNTS 37 39 0 0 0
M  V30 BEGIN ATOM
M  V30 1 C -1.401776 -3.716469 0.350252 0
M  V30 2 C -1.013300 -2.311268 0.788052 0
M  V30 3 C -2.221152 -1.733243 1.469326 0
M  V30 4 C -0.758528 -1.441223 -0.433191 0
M  V30 5 C 0.738363 -1.438556 -0.504526 0 CFG=1
M  V30 6 C 1.271202 -0.396062 -1.391139 0
M  V30 7 C 1.516527 0.818194 -0.924334 0
M  V30 8 C 2.047004 1.823857 -1.845381 0
M  V30 9 O 2.291256 1.638531 -3.042016 0
M  V30 10 C 1.272762 1.172420 0.471970 0 CFG=2
M  V30 11 C 0.527335 2.436473 0.656797 0
M  V30 12 O 0.570015 3.557657 1.147057 0
M  V30 13 C 2.459099 0.852519 1.346116 0
M  V30 14 C 1.115417 0.107592 1.444430 0 CFG=1
M  V30 15 C 0.364813 0.482807 2.709199 0
M  V30 16 C 1.154065 -1.290484 0.941159 0 CFG=1
M  V30 17 C 0.245194 -2.278435 1.585878 0
M  V30 18 H -0.563549 -4.279997 -0.098196 0
M  V30 19 H -1.814146 -4.220955 1.249367 0
M  V30 20 H -2.238780 -3.616505 -0.370686 0
M  V30 21 H -2.160624 -0.607085 1.498806 0
M  V30 22 H -2.381068 -2.125715 2.495880 0
M  V30 23 H -3.084644 -1.941201 0.801972 0
M  V30 24 H -1.205892 -1.906771 -1.340073 0
M  V30 25 H -1.121053 -0.400273 -0.259975 0
M  V30 26 H 1.098152 -2.434066 -0.868377 0
M  V30 27 H 1.461833 -0.630459 -2.432103 0
M  V30 28 H 2.262331 2.832011 -1.504385 0
M  V30 29 H -0.444476 2.385472 0.184835 0
M  V30 30 H 2.715593 1.626569 2.080637 0
M  V30 31 H 3.326406 0.303326 0.974397 0
M  V30 32 H -0.325269 -0.252304 3.088450 0
M  V30 33 H -0.241429 1.416425 2.543188 0
M  V30 34 H 1.085825 0.785374 3.514027 0
M  V30 35 H 2.211980 -1.677448 0.989212 0
M  V30 36 H 0.124564 -2.199247 2.677956 0
M  V30 37 H 0.713598 -3.297883 1.448391 0
M  V30 END ATOM
M  V30 BEGIN BOND
M  V30 1 1 1 2
M  V30 2 1 2 3
M  V30 3 1 2 4
M  V30 4 1 4 5
M  V30 5 1 5 6
M  V30 6 2 6 7
M  V30 7 1 7 8
M  V30 8 2 8 9
M  V30 9 1 7 10
M  V30 10 1 10 11 CFG=3
M  V30 11 2 11 12
M  V30 12 1 10 13
M  V30 13 1 13 14
M  V30 14 1 14 15 CFG=1
M  V30 15 1 14 16
M  V30 16 1 16 17
M  V30 17 1 17 2
M  V30 18 1 16 5
M  V30 19 1 14 10
M  V30 20 1 1 18
M  V30 21 1 1 19
M  V30 22 1 1 20
M  V30 23 1 3 21
M  V30 24 1 3 22
M  V30 25 1 3 23
M  V30 26 1 4 24
M  V30 27 1 4 25
M  V30 28 1 5 26 CFG=3
M  V30 29 1 6 27
M  V30 30 1 8 28
M  V30 31 1 11 29
M  V30 32 1 13 30
M  V30 33 1 13 31
M  V30 34 1 15 32
M  V30 35 1 15 33
M  V30 36 1 15 34
M  V30 37 1 16 35 CFG=3
M  V30 38 1 17 36
M  V30 39 1 17 37
M  V30 END BOND
M  V30 END CTAB
M  END
>  <Dataset>  (129) 
ChEMBL_Kinases

>  <Ligand_Instance>  (129) 
nan

>  <PDB_ID>  (129) 
nan

>  <Standardized_SMILES>  (129) 
CC1(C)C[C@H]2C=C(C=O)[C@]3(C=O)C[C@]3(C)[C@H]2C1

>  <Name>  (129) 
ISOVELLERAL

>  <Pocket>  (129) 
nan

>  <ATP_Site>  (129) 
nan

>  <Peripheral>  (129) 
nan

>  <Num_H_Atoms_ProtBoundConf>  (129) 
nan

>  <Num_Resolved_Atoms>  (129) 
nan

>  <Num_Not_Resolved_Atoms>  (129) 
nan

$$$$
CHEMBL3732972
     RDKit          3D

  0  0  0  0  0  0  0  0  0  0999 V3000
M  V30 BEGIN CTAB
M  V30 COUNTS 52 56 0 0 0
M  V30 BEGIN ATOM
M  V30 1 N 3.949347 1.011972 -0.493563 0
M  V30 2 C 2.550262 1.252178 -0.208969 0 CFG=2
M  V30 3 C 1.878625 -0.030346 0.243429 0
M  V30 4 N 0.493674 0.229891 0.520119 0
M  V30 5 C -0.243623 -0.894402 0.952565 0
M  V30 6 N 0.231897 -2.130481 1.116456 0
M  V30 7 C -0.629624 -3.071164 1.537515 0
M  V30 8 C -0.197572 -4.469150 1.748511 0
M  V30 9 C 1.107967 -4.749524 1.495659 0
M  V30 10 C 1.595213 -6.018786 1.664258 0
M  V30 11 N 0.813963 -7.047651 2.085758 0
M  V30 12 C -0.484105 -6.766961 2.336726 0
M  V30 13 C -1.010136 -5.491774 2.176187 0
M  V30 14 N -1.927412 -2.866289 1.805613 0
M  V30 15 C -2.511701 -1.669016 1.676830 0
M  V30 16 C -3.795342 -1.293006 1.902874 0
M  V30 17 N -4.819764 -2.165412 2.347970 0
M  V30 18 C -5.030392 -2.338230 3.668396 0
M  V30 19 C -6.078867 -3.232334 3.892520 0
M  V30 20 C -6.469301 -3.572544 2.614049 0
M  V30 21 N -5.695497 -2.916644 1.703363 0
M  V30 22 C -4.180680 0.038455 1.695619 0
M  V30 23 S -2.598162 0.878856 1.122555 0
M  V30 24 C -1.577212 -0.693015 1.230117 0
M  V30 25 C 1.879570 1.737051 -1.477245 0
M  V30 26 C 2.551847 3.005016 -1.913796 0
M  V30 27 C 3.641676 3.031280 -2.766137 0
M  V30 28 C 4.245039 4.201500 -3.155660 0
M  V30 29 C 3.754777 5.396961 -2.686193 0
M  V30 30 C 2.661598 5.440218 -1.826273 0
M  V30 31 C 2.087040 4.224322 -1.462585 0
M  V30 32 H 4.538927 1.006477 0.391186 0
M  V30 33 H 4.057590 0.036403 -0.901146 0
M  V30 34 H 2.408868 1.997446 0.598174 0
M  V30 35 H 2.389597 -0.456112 1.122206 0
M  V30 36 H 1.983994 -0.750404 -0.615417 0
M  V30 37 H 0.097318 1.163662 0.405279 0
M  V30 38 H 1.804674 -3.975599 1.152193 0
M  V30 39 H 2.646246 -6.204956 1.451773 0
M  V30 40 H -1.102942 -7.567531 2.667357 0
M  V30 41 H -2.045529 -5.249034 2.372115 0
M  V30 42 H -4.502851 -1.883230 4.519444 0
M  V30 43 H -6.467806 -3.559334 4.851237 0
M  V30 44 H -7.282674 -4.268222 2.402807 0
M  V30 45 H -5.028227 0.560935 1.782966 0
M  V30 46 H 2.083230 0.994289 -2.284513 0
M  V30 47 H 0.814505 1.945803 -1.349457 0
M  V30 48 H 4.028686 2.070240 -3.137958 0
M  V30 49 H 5.087595 4.247465 -3.812794 0
M  V30 50 H 4.176268 6.368865 -2.947299 0
M  V30 51 H 2.241293 6.358329 -1.431421 0
M  V30 52 H 1.242473 4.236994 -0.799710 0
M  V30 END ATOM
M  V30 BEGIN BOND
M  V30 1 1 1 2
M  V30 2 1 2 3
M  V30 3 1 3 4
M  V30 4 1 4 5
M  V30 5 2 5 6
M  V30 6 1 6 7
M  V30 7 1 7 8
M  V30 8 2 8 9
M  V30 9 1 9 10
M  V30 10 2 10 11
M  V30 11 1 11 12
M  V30 12 2 12 13
M  V30 13 2 7 14
M  V30 14 1 14 15
M  V30 15 1 15 16
M  V30 16 1 16 17
M  V30 17 1 17 18
M  V30 18 2 18 19
M  V30 19 1 19 20
M  V30 20 2 20 21
M  V30 21 2 16 22
M  V30 22 1 22 23
M  V30 23 1 23 24
M  V30 24 1 2 25
M  V30 25 1 25 26
M  V30 26 2 26 27
M  V30 27 1 27 28
M  V30 28 2 28 29
M  V30 29 1 29 30
M  V30 30 2 30 31
M  V30 31 1 24 5
M  V30 32 1 31 26
M  V30 33 1 13 8
M  V30 34 2 24 15
M  V30 35 1 21 17
M  V30 36 1 1 32
M  V30 37 1 1 33
M  V30 38 1 2 34 CFG=1
M  V30 39 1 3 35
M  V30 40 1 3 36
M  V30 41 1 4 37
M  V30 42 1 9 38
M  V30 43 1 10 39
M  V30 44 1 12 40
M  V30 45 1 13 41
M  V30 46 1 18 42
M  V30 47 1 19 43
M  V30 48 1 20 44
M  V30 49 1 22 45
M  V30 50 1 25 46
M  V30 51 1 25 47
M  V30 52 1 27 48
M  V30 53 1 28 49
M  V30 54 1 29 50
M  V30 55 1 30 51
M  V30 56 1 31 52
M  V30 END BOND
M  V30 END CTAB
M  END
>  <Dataset>  (130) 
ChEMBL_Kinases

>  <Ligand_Instance>  (130) 
nan

>  <PDB_ID>  (130) 
nan

>  <Standardized_SMILES>  (130) 
N[C@H](CNc1nc(-c2ccncc2)nc2c(-n3cccn3)csc12)Cc1ccccc1

>  <Name>  (130) 
nan

>  <Pocket>  (130) 
nan

>  <ATP_Site>  (130) 
nan

>  <Peripheral>  (130) 
nan

>  <Num_H_Atoms_ProtBoundConf>  (130) 
nan

>  <Num_Resolved_Atoms>  (130) 
nan

>  <Num_Not_Resolved_Atoms>  (130) 
nan

$$$$
CHEMBL3732957
     RDKit          3D

  0  0  0  0  0  0  0  0  0  0999 V3000
M  V30 BEGIN CTAB
M  V30 COUNTS 51 54 0 0 0
M  V30 BEGIN ATOM
M  V30 1 C 2.045327 -4.385488 0.734126 0
M  V30 2 C 2.920186 -3.270374 1.312893 0 CFG=1
M  V30 3 N 4.258874 -3.516801 0.837812 0
M  V30 4 C 2.491379 -1.952552 0.798071 0
M  V30 5 N 1.139824 -1.526775 1.070235 0
M  V30 6 C 0.700322 -0.273960 0.593257 0
M  V30 7 N 1.586053 0.407136 -0.122383 0
M  V30 8 C 1.459761 1.568638 -0.715209 0
M  V30 9 C 2.492069 2.234899 -1.478072 0
M  V30 10 C 3.719705 1.617490 -1.606978 0
M  V30 11 C 4.736337 2.234335 -2.336637 0
M  V30 12 N 4.482548 3.414732 -2.891275 0
M  V30 13 C 3.281673 4.005454 -2.757871 0
M  V30 14 C 2.226621 3.461158 -2.053568 0
M  V30 15 N 0.241245 2.096155 -0.539605 0
M  V30 16 C -0.702396 1.471801 0.167491 0
M  V30 17 S -2.379948 2.003806 0.507682 0
M  V30 18 C -2.818451 0.515289 1.498097 0
M  V30 19 C -1.668713 -0.214243 1.467791 0
M  V30 20 C -0.556911 0.221711 0.803246 0
M  V30 21 C -1.509795 -1.516463 2.176636 0
M  V30 22 C -2.598420 -1.809722 3.172450 0
M  V30 23 C -3.904323 -2.238925 2.671248 0
M  V30 24 C -4.335295 -1.836489 1.308231 0
M  V30 25 C -5.003961 -0.476732 1.275518 0
M  V30 26 C -4.178434 0.576534 1.967469 0
M  V30 27 H 2.672031 -5.297178 0.660479 0
M  V30 28 H 1.175322 -4.573886 1.366249 0
M  V30 29 H 1.771828 -4.109639 -0.312356 0
M  V30 30 H 2.890233 -3.373642 2.406878 0
M  V30 31 H 4.824166 -2.645179 0.739784 0
M  V30 32 H 4.245676 -4.077629 -0.024087 0
M  V30 33 H 3.238137 -1.179727 1.088198 0
M  V30 34 H 2.554266 -2.009346 -0.329360 0
M  V30 35 H 0.912944 -2.389259 1.580640 0
M  V30 36 H 3.932116 0.658575 -1.158782 0
M  V30 37 H 5.696547 1.716172 -2.418007 0
M  V30 38 H 3.129471 4.980340 -3.237930 0
M  V30 39 H 1.266479 3.929860 -1.944925 0
M  V30 40 H -0.587788 -1.465088 2.839861 0
M  V30 41 H -1.343870 -2.368028 1.499013 0
M  V30 42 H -2.157496 -2.629648 3.834106 0
M  V30 43 H -2.648943 -0.949746 3.871158 0
M  V30 44 H -4.689884 -1.849480 3.385434 0
M  V30 45 H -4.001819 -3.346861 2.797213 0
M  V30 46 H -3.580736 -1.856954 0.522879 0
M  V30 47 H -5.136406 -2.552087 0.986187 0
M  V30 48 H -5.138794 -0.159362 0.221810 0
M  V30 49 H -6.008664 -0.497966 1.744667 0
M  V30 50 H -4.642118 1.541249 1.674151 0
M  V30 51 H -4.250269 0.567184 3.070745 0
M  V30 END ATOM
M  V30 BEGIN BOND
M  V30 1 1 1 2
M  V30 2 1 2 3
M  V30 3 1 2 4
M  V30 4 1 4 5
M  V30 5 1 5 6
M  V30 6 2 6 7
M  V30 7 1 7 8
M  V30 8 1 8 9
M  V30 9 2 9 10
M  V30 10 1 10 11
M  V30 11 2 11 12
M  V30 12 1 12 13
M  V30 13 2 13 14
M  V30 14 2 8 15
M  V30 15 1 15 16
M  V30 16 1 16 17
M  V30 17 1 17 18
M  V30 18 2 18 19
M  V30 19 1 19 20
M  V30 20 1 19 21
M  V30 21 1 21 22
M  V30 22 1 22 23
M  V30 23 1 23 24
M  V30 24 1 24 25
M  V30 25 1 25 26
M  V30 26 1 20 6
M  V30 27 1 14 9
M  V30 28 2 20 16
M  V30 29 1 26 18
M  V30 30 1 1 27
M  V30 31 1 1 28
M  V30 32 1 1 29
M  V30 33 1 2 30 CFG=1
M  V30 34 1 3 31
M  V30 35 1 3 32
M  V30 36 1 4 33
M  V30 37 1 4 34
M  V30 38 1 5 35
M  V30 39 1 10 36
M  V30 40 1 11 37
M  V30 41 1 13 38
M  V30 42 1 14 39
M  V30 43 1 21 40
M  V30 44 1 21 41
M  V30 45 1 22 42
M  V30 46 1 22 43
M  V30 47 1 23 44
M  V30 48 1 23 45
M  V30 49 1 24 46
M  V30 50 1 24 47
M  V30 51 1 25 48
M  V30 52 1 25 49
M  V30 53 1 26 50
M  V30 54 1 26 51
M  V30 END BOND
M  V30 END CTAB
M  END
>  <Dataset>  (131) 
ChEMBL_Kinases

>  <Ligand_Instance>  (131) 
nan

>  <PDB_ID>  (131) 
nan

>  <Standardized_SMILES>  (131) 
C[C@@H](N)CNc1nc(-c2ccncc2)nc2sc3c(c12)CCCCCC3

>  <Name>  (131) 
nan

>  <Pocket>  (131) 
nan

>  <ATP_Site>  (131) 
nan

>  <Peripheral>  (131) 
nan

>  <Num_H_Atoms_ProtBoundConf>  (131) 
nan

>  <Num_Resolved_Atoms>  (131) 
nan

>  <Num_Not_Resolved_Atoms>  (131) 
nan

$$$$
CHEMBL518323
     RDKit          3D

  0  0  0  0  0  0  0  0  0  0999 V3000
M  V30 BEGIN CTAB
M  V30 COUNTS 49 52 0 0 0
M  V30 BEGIN ATOM
M  V30 1 N -0.916139 -5.027985 3.450793 0
M  V30 2 C -0.457107 -3.873786 2.721871 0
M  V30 3 N 0.912436 -3.912812 2.871691 0
M  V30 4 C 1.643365 -2.921908 2.276710 0
M  V30 5 C 1.043286 -1.918154 1.552826 0
M  V30 6 C 1.817152 -0.859476 0.917040 0
M  V30 7 C 3.100394 -1.156688 0.449941 0
M  V30 8 N 3.608891 -0.022312 -0.087408 0
M  V30 9 N 2.711779 0.954109 0.022971 0
M  V30 10 C 2.930505 2.310567 -0.448136 0
M  V30 11 C 1.708477 3.154794 -0.349405 0
M  V30 12 C 1.645309 3.891108 0.978390 0
M  V30 13 N 2.690746 4.888573 1.032659 0
M  V30 14 C 3.950077 4.378791 0.588161 0
M  V30 15 C 4.013147 2.887241 0.430368 0
M  V30 16 C 1.614886 0.472199 0.629095 0
M  V30 17 C -0.324786 -1.932161 1.438494 0
M  V30 18 C -1.154404 -2.875243 1.992485 0
M  V30 19 O -2.386822 -3.240116 2.124564 0
M  V30 20 C -3.682138 -3.035589 1.870556 0
M  V30 21 C -4.020745 -3.043231 0.413961 0
M  V30 22 C -3.976342 -2.076845 -0.557788 0
M  V30 23 Cl -3.541951 -0.493711 0.032041 0
M  V30 24 C -4.287533 -2.320589 -1.864956 0
M  V30 25 C -4.671188 -3.561820 -2.298913 0
M  V30 26 C -4.732342 -4.567269 -1.356219 0
M  V30 27 F -5.114176 -5.784280 -1.809617 0
M  V30 28 C -4.415071 -4.310583 -0.037474 0
M  V30 29 Cl -4.550301 -5.719300 1.023609 0
M  V30 30 H -1.008023 -6.009165 3.072310 0
M  V30 31 H -1.154477 -4.764210 4.432272 0
M  V30 32 H 2.719744 -2.844262 2.321655 0
M  V30 33 H 3.660398 -2.101838 0.475163 0
M  V30 34 H 3.275443 2.218425 -1.514054 0
M  V30 35 H 1.794912 3.970399 -1.119207 0
M  V30 36 H 0.754713 2.646614 -0.514941 0
M  V30 37 H 1.791768 3.220784 1.844888 0
M  V30 38 H 0.660142 4.354300 1.072948 0
M  V30 39 H 2.712883 5.414958 1.908655 0
M  V30 40 H 4.323804 4.919069 -0.306766 0
M  V30 41 H 4.678861 4.611487 1.421368 0
M  V30 42 H 5.031485 2.636607 0.088226 0
M  V30 43 H 3.881229 2.457442 1.447142 0
M  V30 44 H 0.706280 0.952730 0.883491 0
M  V30 45 H -0.893145 -1.214385 0.909306 0
M  V30 46 H -4.003734 -2.008908 2.259688 0
M  V30 47 H -4.394199 -3.720037 2.418070 0
M  V30 48 H -4.202662 -1.447464 -2.519808 0
M  V30 49 H -4.901928 -3.683523 -3.343117 0
M  V30 END ATOM
M  V30 BEGIN BOND
M  V30 1 1 1 2
M  V30 2 2 2 3
M  V30 3 1 3 4
M  V30 4 2 4 5
M  V30 5 1 5 6
M  V30 6 1 6 7
M  V30 7 2 7 8
M  V30 8 1 8 9
M  V30 9 1 9 10
M  V30 10 1 10 11
M  V30 11 1 11 12
M  V30 12 1 12 13
M  V30 13 1 13 14
M  V30 14 1 14 15
M  V30 15 1 9 16
M  V30 16 1 5 17
M  V30 17 2 17 18
M  V30 18 1 18 19
M  V30 19 1 19 20
M  V30 20 1 20 21
M  V30 21 2 21 22
M  V30 22 1 22 23
M  V30 23 1 22 24
M  V30 24 2 24 25
M  V30 25 1 25 26
M  V30 26 1 26 27
M  V30 27 2 26 28
M  V30 28 1 28 29
M  V30 29 1 18 2
M  V30 30 1 28 21
M  V30 31 2 16 6
M  V30 32 1 15 10
M  V30 33 1 1 30
M  V30 34 1 1 31
M  V30 35 1 4 32
M  V30 36 1 7 33
M  V30 37 1 10 34
M  V30 38 1 11 35
M  V30 39 1 11 36
M  V30 40 1 12 37
M  V30 41 1 12 38
M  V30 42 1 13 39
M  V30 43 1 14 40
M  V30 44 1 14 41
M  V30 45 1 15 42
M  V30 46 1 15 43
M  V30 47 1 16 44
M  V30 48 1 17 45
M  V30 49 1 20 46
M  V30 50 1 20 47
M  V30 51 1 24 48
M  V30 52 1 25 49
M  V30 END BOND
M  V30 END CTAB
M  END
>  <Dataset>  (132) 
ChEMBL_Kinases

>  <Ligand_Instance>  (132) 
nan

>  <PDB_ID>  (132) 
nan

>  <Standardized_SMILES>  (132) 
Nc1ncc(-c2cnn(C3CCNCC3)c2)cc1OCc1c(Cl)ccc(F)c1Cl

>  <Name>  (132) 
nan

>  <Pocket>  (132) 
nan

>  <ATP_Site>  (132) 
nan

>  <Peripheral>  (132) 
nan

>  <Num_H_Atoms_ProtBoundConf>  (132) 
nan

>  <Num_Resolved_Atoms>  (132) 
nan

>  <Num_Not_Resolved_Atoms>  (132) 
nan

$$$$
CHEMBL3732952
     RDKit          3D

  0  0  0  0  0  0  0  0  0  0999 V3000
M  V30 BEGIN CTAB
M  V30 COUNTS 46 50 0 0 0
M  V30 BEGIN ATOM
M  V30 1 F 2.890761 -2.662798 4.126005 0
M  V30 2 C 3.096633 -1.607124 3.307077 0
M  V30 3 C 4.274163 -0.861381 3.400348 0
M  V30 4 N 4.474817 0.192715 2.579604 0
M  V30 5 C 3.525545 0.527753 1.659165 0
M  V30 6 N 3.737773 1.627557 0.792420 0
M  V30 7 C 2.802191 2.075525 -0.206543 0
M  V30 8 C 1.837913 3.049109 -0.048989 0
M  V30 9 N 1.024696 3.364258 -1.070598 0
M  V30 10 C 1.179500 2.713381 -2.224792 0
M  V30 11 C 2.145252 1.734836 -2.389948 0
M  V30 12 N 2.966142 1.413911 -1.365707 0
M  V30 13 C 2.332949 -0.186133 1.527546 0
M  V30 14 C 2.145242 -1.257833 2.372501 0
M  V30 15 C 0.898507 -2.006522 2.233841 0
M  V30 16 N 0.005022 -1.576725 1.297610 0
M  V30 17 C -1.129489 -2.284596 1.181956 0
M  V30 18 N -2.175429 -1.987300 0.271884 0
M  V30 19 C -1.930617 -0.806783 -0.544131 0 CFG=2
M  V30 20 C -1.780804 0.428933 0.295031 0
M  V30 21 C -2.329561 1.518393 -0.581725 0
M  V30 22 N -2.846079 0.901054 -1.784822 0
M  V30 23 C -3.075888 -0.491538 -1.447300 0
M  V30 24 C -1.330382 -3.410323 2.017702 0
M  V30 25 S -2.682316 -4.547957 2.131892 0
M  V30 26 C -1.864773 -5.578188 3.534641 0
M  V30 27 C -0.680225 -4.905515 3.712143 0
M  V30 28 C -0.413860 -3.807852 2.941520 0
M  V30 29 N 0.703927 -3.062940 3.014596 0
M  V30 30 H 5.030997 -1.122374 4.128539 0
M  V30 31 H 4.621841 2.169060 0.857363 0
M  V30 32 H 1.808108 3.509398 0.938430 0
M  V30 33 H 0.531342 2.949319 -3.073229 0
M  V30 34 H 2.201033 1.251690 -3.371227 0
M  V30 35 H 1.624938 0.131337 0.779596 0
M  V30 36 H -3.034672 -2.563461 0.199884 0
M  V30 37 H -0.980753 -0.987196 -1.097282 0
M  V30 38 H -0.705855 0.637597 0.556637 0
M  V30 39 H -2.354828 0.333322 1.257793 0
M  V30 40 H -1.492689 2.174470 -0.888849 0
M  V30 41 H -3.094482 2.128713 -0.060337 0
M  V30 42 H -3.639588 1.385985 -2.209742 0
M  V30 43 H -2.986654 -1.152187 -2.334258 0
M  V30 44 H -4.033759 -0.650032 -0.944677 0
M  V30 45 H -2.342516 -6.400176 3.934193 0
M  V30 46 H -0.065776 -5.347848 4.482139 0
M  V30 END ATOM
M  V30 BEGIN BOND
M  V30 1 1 1 2
M  V30 2 2 2 3
M  V30 3 1 3 4
M  V30 4 2 4 5
M  V30 5 1 5 6
M  V30 6 1 6 7
M  V30 7 2 7 8
M  V30 8 1 8 9
M  V30 9 2 9 10
M  V30 10 1 10 11
M  V30 11 2 11 12
M  V30 12 1 5 13
M  V30 13 2 13 14
M  V30 14 1 14 15
M  V30 15 2 15 16
M  V30 16 1 16 17
M  V30 17 1 17 18
M  V30 18 1 18 19
M  V30 19 1 19 20
M  V30 20 1 20 21
M  V30 21 1 21 22
M  V30 22 1 22 23
M  V30 23 2 17 24
M  V30 24 1 24 25
M  V30 25 1 25 26
M  V30 26 2 26 27
M  V30 27 1 27 28
M  V30 28 2 28 29
M  V30 29 1 14 2
M  V30 30 1 29 15
M  V30 31 1 12 7
M  V30 32 1 23 19
M  V30 33 1 28 24
M  V30 34 1 3 30
M  V30 35 1 6 31
M  V30 36 1 8 32
M  V30 37 1 10 33
M  V30 38 1 11 34
M  V30 39 1 13 35
M  V30 40 1 18 36
M  V30 41 1 19 37 CFG=3
M  V30 42 1 20 38
M  V30 43 1 20 39
M  V30 44 1 21 40
M  V30 45 1 21 41
M  V30 46 1 22 42
M  V30 47 1 23 43
M  V30 48 1 23 44
M  V30 49 1 26 45
M  V30 50 1 27 46
M  V30 END BOND
M  V30 END CTAB
M  END
>  <Dataset>  (133) 
ChEMBL_Kinases

>  <Ligand_Instance>  (133) 
nan

>  <PDB_ID>  (133) 
nan

>  <Standardized_SMILES>  (133) 
Fc1cnc(Nc2cnccn2)cc1-c1nc(N[C@@H]2CCNC2)c2sccc2n1

>  <Name>  (133) 
nan

>  <Pocket>  (133) 
nan

>  <ATP_Site>  (133) 
nan

>  <Peripheral>  (133) 
nan

>  <Num_H_Atoms_ProtBoundConf>  (133) 
nan

>  <Num_Resolved_Atoms>  (133) 
nan

>  <Num_Not_Resolved_Atoms>  (133) 
nan

$$$$
CHEMBL518347
     RDKit          3D

  0  0  0  0  0  0  0  0  0  0999 V3000
M  V30 BEGIN CTAB
M  V30 COUNTS 54 55 0 0 0
M  V30 BEGIN ATOM
M  V30 1 C 0.126226 -2.552656 3.851876 0
M  V30 2 C 1.625497 -2.484462 3.531673 0
M  V30 3 C 1.846963 -1.090320 2.989663 0
M  V30 4 C 3.256253 -0.792001 2.604267 0
M  V30 5 C 3.476355 0.598493 2.064514 0
M  V30 6 C 4.953056 0.755705 1.720198 0
M  V30 7 C 5.415235 -0.225463 0.689321 0
M  V30 8 C 2.637811 0.889982 0.878469 0
M  V30 9 O 2.814758 1.183752 -0.343477 0
M  V30 10 O 1.256424 0.919904 0.792419 0
M  V30 11 C 0.584967 1.214527 -0.424366 0
M  V30 12 C -0.902043 1.167431 -0.135021 0
M  V30 13 C -1.299703 2.235871 0.867858 0
M  V30 14 O -0.653146 2.124959 2.077713 0
M  V30 15 C -1.240122 -0.204304 0.346231 0
M  V30 16 C -2.216043 -0.660214 -0.677444 0
M  V30 17 C -2.581649 -1.907556 -0.884382 0
M  V30 18 C -3.523999 -2.338447 -1.880303 0
M  V30 19 C -4.489962 -3.246208 -1.429533 0
M  V30 20 C -5.462209 -3.785198 -2.242609 0
M  V30 21 C -5.511900 -3.430735 -3.574638 0
M  V30 22 F -6.443335 -3.925022 -4.424860 0
M  V30 23 C -4.563226 -2.530462 -4.049261 0
M  V30 24 C -3.602260 -2.008754 -3.208858 0
M  V30 25 C -2.715618 0.512262 -1.379794 0
M  V30 26 O -3.870571 0.510788 -1.884078 0
M  V30 27 O -1.660911 1.442444 -1.301259 0
M  V30 28 H -0.125293 -3.411361 4.479985 0
M  V30 29 H -0.170511 -1.580587 4.290105 0
M  V30 30 H -0.433751 -2.649368 2.914207 0
M  V30 31 H 1.794044 -3.279685 2.781642 0
M  V30 32 H 2.171962 -2.647663 4.470123 0
M  V30 33 H 1.222679 -1.025907 2.069561 0
M  V30 34 H 1.546058 -0.383274 3.786606 0
M  V30 35 H 3.619242 -1.510430 1.811324 0
M  V30 36 H 3.934565 -0.933427 3.468713 0
M  V30 37 H 3.278720 1.312884 2.899170 0
M  V30 38 H 5.046951 1.786016 1.294113 0
M  V30 39 H 5.536187 0.684416 2.644529 0
M  V30 40 H 6.030181 0.300889 -0.099370 0
M  V30 41 H 6.073572 -1.009764 1.107910 0
M  V30 42 H 4.555074 -0.708723 0.176875 0
M  V30 43 H 0.811187 2.268769 -0.715077 0
M  V30 44 H 0.866450 0.550763 -1.246085 0
M  V30 45 H -1.072179 3.224697 0.403355 0
M  V30 46 H -2.399613 2.197075 0.976506 0
M  V30 47 H -1.336125 2.261270 2.796589 0
M  V30 48 H -1.670152 -0.146066 1.367842 0
M  V30 49 H -0.394065 -0.916082 0.303162 0
M  V30 50 H -2.131962 -2.686571 -0.246414 0
M  V30 51 H -4.532000 -3.588016 -0.385531 0
M  V30 52 H -6.196696 -4.480302 -1.879332 0
M  V30 53 H -4.531518 -2.204566 -5.069686 0
M  V30 54 H -2.858894 -1.322755 -3.566441 0
M  V30 END ATOM
M  V30 BEGIN BOND
M  V30 1 1 1 2
M  V30 2 1 2 3
M  V30 3 1 3 4
M  V30 4 1 4 5
M  V30 5 1 5 6
M  V30 6 1 6 7
M  V30 7 1 5 8
M  V30 8 2 8 9
M  V30 9 1 8 10
M  V30 10 1 10 11
M  V30 11 1 11 12
M  V30 12 1 12 13
M  V30 13 1 13 14
M  V30 14 1 12 15
M  V30 15 1 15 16
M  V30 16 2 16 17
M  V30 17 1 17 18
M  V30 18 2 18 19
M  V30 19 1 19 20
M  V30 20 2 20 21
M  V30 21 1 21 22
M  V30 22 1 21 23
M  V30 23 2 23 24
M  V30 24 1 16 25
M  V30 25 2 25 26
M  V30 26 1 25 27
M  V30 27 1 27 12
M  V30 28 1 24 18
M  V30 29 1 1 28
M  V30 30 1 1 29
M  V30 31 1 1 30
M  V30 32 1 2 31
M  V30 33 1 2 32
M  V30 34 1 3 33
M  V30 35 1 3 34
M  V30 36 1 4 35
M  V30 37 1 4 36
M  V30 38 1 5 37
M  V30 39 1 6 38
M  V30 40 1 6 39
M  V30 41 1 7 40
M  V30 42 1 7 41
M  V30 43 1 7 42
M  V30 44 1 11 43
M  V30 45 1 11 44
M  V30 46 1 13 45
M  V30 47 1 13 46
M  V30 48 1 14 47
M  V30 49 1 15 48
M  V30 50 1 15 49
M  V30 51 1 17 50
M  V30 52 1 19 51
M  V30 53 1 20 52
M  V30 54 1 23 53
M  V30 55 1 24 54
M  V30 END BOND
M  V30 END CTAB
M  END
>  <Dataset>  (134) 
ChEMBL_Kinases

>  <Ligand_Instance>  (134) 
nan

>  <PDB_ID>  (134) 
nan

>  <Standardized_SMILES>  (134) 
CCCCC(CC)C(=O)OCC1(CO)C/C(=C/c2ccc(F)cc2)C(=O)O1

>  <Name>  (134) 
nan

>  <Pocket>  (134) 
nan

>  <ATP_Site>  (134) 
nan

>  <Peripheral>  (134) 
nan

>  <Num_H_Atoms_ProtBoundConf>  (134) 
nan

>  <Num_Resolved_Atoms>  (134) 
nan

>  <Num_Not_Resolved_Atoms>  (134) 
nan

$$$$
CHEMBL518414
     RDKit          3D

  0  0  0  0  0  0  0  0  0  0999 V3000
M  V30 BEGIN CTAB
M  V30 COUNTS 60 62 0 0 0
M  V30 BEGIN ATOM
M  V30 1 O -0.290477 -0.807049 2.689656 0
M  V30 2 C 0.159786 0.323411 2.799729 0
M  V30 3 C 1.615578 0.476252 3.022724 0
M  V30 4 C 2.399197 -0.580554 3.094339 0
M  V30 5 C 3.839049 -0.567045 3.308446 0
M  V30 6 C 4.626302 0.548623 3.481187 0
M  V30 7 C 5.983947 0.486052 3.673095 0
M  V30 8 C 6.650744 -0.700656 3.705588 0
M  V30 9 O 8.011981 -0.788598 3.896553 0
M  V30 10 C 5.879390 -1.830137 3.534515 0
M  V30 11 O 6.541840 -3.063576 3.563710 0
M  V30 12 C 4.532986 -1.779899 3.343613 0
M  V30 13 O -0.531780 1.490392 2.741798 0
M  V30 14 C -1.872257 1.739810 2.545231 0
M  V30 15 C -2.497494 1.333861 1.256194 0 CFG=1
M  V30 16 O -1.909564 1.872799 0.120093 0
M  V30 17 C -2.354872 1.248168 -1.037584 0 CFG=1
M  V30 18 O -1.473733 0.244279 -1.411871 0
M  V30 19 C -0.852050 0.416381 -2.616003 0
M  V30 20 C 0.098969 -0.707419 -2.967931 0
M  V30 21 C -0.586552 -2.020420 -3.044410 0
M  V30 22 C -1.142294 -2.523059 -4.190656 0
M  V30 23 C -1.769780 -3.756448 -4.199639 0
M  V30 24 C -1.846287 -4.511555 -3.034230 0
M  V30 25 O -2.459781 -5.748608 -2.982874 0
M  V30 26 C -1.276943 -3.977463 -1.897624 0
M  V30 27 O -1.308696 -4.674501 -0.674442 0
M  V30 28 C -0.633124 -2.735719 -1.841322 0
M  V30 29 C -3.772360 0.755477 -0.920205 0 CFG=2
M  V30 30 O -4.668522 1.824155 -0.892103 0
M  V30 31 C -4.051874 -0.176926 0.195849 0 CFG=1
M  V30 32 O -4.252319 -1.492281 -0.208353 0
M  V30 33 C -2.859645 -0.098391 1.180260 0 CFG=2
M  V30 34 O -3.322626 -0.502398 2.429149 0
M  V30 35 H 2.127092 1.438083 3.138492 0
M  V30 36 H 1.903948 -1.531304 2.981069 0
M  V30 37 H 4.130759 1.506792 3.461607 0
M  V30 38 H 6.505768 1.427772 3.797971 0
M  V30 39 H 8.568941 -0.183828 4.463939 0
M  V30 40 H 7.546856 -3.133596 3.448066 0
M  V30 41 H 4.017318 -2.738911 3.217485 0
M  V30 42 H -2.030586 2.840056 2.761853 0
M  V30 43 H -2.439360 1.264566 3.416674 0
M  V30 44 H -3.520091 1.879156 1.272258 0
M  V30 45 H -2.343921 2.008958 -1.837223 0
M  V30 46 H -0.234120 1.339855 -2.570334 0
M  V30 47 H -1.595868 0.466289 -3.453976 0
M  V30 48 H 0.450096 -0.502881 -4.002598 0
M  V30 49 H 1.005041 -0.725817 -2.327507 0
M  V30 50 H -1.097967 -1.966953 -5.093248 0
M  V30 51 H -2.226800 -4.212047 -5.055386 0
M  V30 52 H -2.182624 -6.392106 -2.270706 0
M  V30 53 H -2.142807 -4.634703 -0.107728 0
M  V30 54 H -0.202258 -2.355617 -0.935138 0
M  V30 55 H -4.003933 0.217446 -1.880996 0
M  V30 56 H -4.576188 2.387126 -1.710200 0
M  V30 57 H -4.925367 0.183990 0.774016 0
M  V30 58 H -5.189369 -1.741631 -0.004333 0
M  V30 59 H -2.098434 -0.775149 0.737548 0
M  V30 60 H -4.096192 -1.127468 2.380782 0
M  V30 END ATOM
M  V30 BEGIN BOND
M  V30 1 2 1 2
M  V30 2 1 2 3
M  V30 3 2 3 4
M  V30 4 1 4 5
M  V30 5 2 5 6
M  V30 6 1 6 7
M  V30 7 2 7 8
M  V30 8 1 8 9
M  V30 9 1 8 10
M  V30 10 1 10 11
M  V30 11 2 10 12
M  V30 12 1 2 13
M  V30 13 1 13 14
M  V30 14 1 14 15
M  V30 15 1 15 16
M  V30 16 1 16 17
M  V30 17 1 17 18
M  V30 18 1 18 19
M  V30 19 1 19 20
M  V30 20 1 20 21
M  V30 21 2 21 22
M  V30 22 1 22 23
M  V30 23 2 23 24
M  V30 24 1 24 25
M  V30 25 1 24 26
M  V30 26 1 26 27
M  V30 27 2 26 28
M  V30 28 1 17 29
M  V30 29 1 29 30
M  V30 30 1 29 31
M  V30 31 1 31 32
M  V30 32 1 31 33
M  V30 33 1 33 34
M  V30 34 1 12 5
M  V30 35 1 33 15
M  V30 36 1 28 21
M  V30 37 1 3 35
M  V30 38 1 4 36
M  V30 39 1 6 37
M  V30 40 1 7 38
M  V30 41 1 9 39
M  V30 42 1 11 40
M  V30 43 1 12 41
M  V30 44 1 14 42
M  V30 45 1 14 43
M  V30 46 1 15 44 CFG=1
M  V30 47 1 17 45 CFG=3
M  V30 48 1 19 46
M  V30 49 1 19 47
M  V30 50 1 20 48
M  V30 51 1 20 49
M  V30 52 1 22 50
M  V30 53 1 23 51
M  V30 54 1 25 52
M  V30 55 1 27 53
M  V30 56 1 28 54
M  V30 57 1 29 55 CFG=3
M  V30 58 1 30 56
M  V30 59 1 31 57 CFG=1
M  V30 60 1 32 58
M  V30 61 1 33 59 CFG=3
M  V30 62 1 34 60
M  V30 END BOND
M  V30 END CTAB
M  END
>  <Dataset>  (135) 
ChEMBL_Kinases

>  <Ligand_Instance>  (135) 
nan

>  <PDB_ID>  (135) 
nan

>  <Standardized_SMILES>  (135) 
O=C(/C=C/c1ccc(O)c(O)c1)OC[C@H]1O[C@@H](OCCc2ccc(O)c(O)c2)[C@H](O)[C@@H](O)[C@@H]1O

>  <Name>  (135) 
CALCEOLARIOSIDE B

>  <Pocket>  (135) 
nan

>  <ATP_Site>  (135) 
nan

>  <Peripheral>  (135) 
nan

>  <Num_H_Atoms_ProtBoundConf>  (135) 
nan

>  <Num_Resolved_Atoms>  (135) 
nan

>  <Num_Not_Resolved_Atoms>  (135) 
nan

$$$$
CHEMBL518502
     RDKit          3D

  0  0  0  0  0  0  0  0  0  0999 V3000
M  V30 BEGIN CTAB
M  V30 COUNTS 55 56 0 0 0
M  V30 BEGIN ATOM
M  V30 1 C 0.540167 -3.700826 4.582312 0
M  V30 2 C 1.869916 -3.266445 4.013064 0
M  V30 3 C 2.236260 -1.884264 4.509965 0
M  V30 4 C 3.561758 -1.515933 3.905568 0
M  V30 5 C 3.952532 -0.136722 4.386515 0
M  V30 6 C 2.954844 0.908955 4.006562 0
M  V30 7 C 2.746017 1.050767 2.545852 0
M  V30 8 O 3.309317 0.417965 1.623859 0
M  V30 9 O 1.802759 2.017955 2.305573 0
M  V30 10 C 1.299655 2.452111 1.098699 0
M  V30 11 C 0.479316 1.568597 0.267559 0
M  V30 12 C 0.069197 2.351128 -0.980914 0
M  V30 13 O -0.727726 3.421698 -0.622055 0
M  V30 14 C 1.020067 0.269944 -0.200379 0
M  V30 15 C -0.200662 -0.242968 -0.962154 0
M  V30 16 C -0.476110 -0.949143 -2.039953 0
M  V30 17 C -1.739909 -1.337365 -2.598479 0
M  V30 18 C -2.839120 -1.970269 -2.053449 0
M  V30 19 C -3.974272 -2.198410 -2.796894 0
M  V30 20 C -4.036778 -1.794875 -4.119180 0
M  V30 21 O -5.187913 -2.031803 -4.856383 0
M  V30 22 C -6.255901 -2.690357 -4.192103 0
M  V30 23 C -2.949211 -1.151251 -4.715545 0
M  V30 24 C -1.820839 -0.942962 -3.917765 0
M  V30 25 C -1.312612 0.343809 -0.168085 0
M  V30 26 O -2.584473 0.242616 -0.288003 0
M  V30 27 O -0.745208 1.128323 0.866009 0
M  V30 28 H 0.711558 -4.309815 5.485414 0
M  V30 29 H -0.058925 -2.812103 4.850235 0
M  V30 30 H -0.049422 -4.272092 3.810398 0
M  V30 31 H 1.821004 -3.192408 2.896583 0
M  V30 32 H 2.645614 -3.995034 4.254585 0
M  V30 33 H 1.445796 -1.155953 4.292673 0
M  V30 34 H 2.378233 -1.983275 5.605949 0
M  V30 35 H 3.587571 -1.571565 2.809540 0
M  V30 36 H 4.329885 -2.225516 4.276855 0
M  V30 37 H 4.011901 -0.160417 5.513219 0
M  V30 38 H 4.987188 0.110404 4.073672 0
M  V30 39 H 2.016003 0.780854 4.578826 0
M  V30 40 H 3.359594 1.890325 4.351186 0
M  V30 41 H 2.082342 2.908141 0.434631 0
M  V30 42 H 0.644947 3.350281 1.341620 0
M  V30 43 H -0.500322 1.704920 -1.679816 0
M  V30 44 H 0.965778 2.769755 -1.493106 0
M  V30 45 H -1.669013 3.184131 -0.635230 0
M  V30 46 H 1.906611 0.303380 -0.827624 0
M  V30 47 H 1.075926 -0.501108 0.634645 0
M  V30 48 H 0.459107 -1.243962 -2.518319 0
M  V30 49 H -2.701945 -2.274816 -1.025828 0
M  V30 50 H -4.778163 -2.695945 -2.288359 0
M  V30 51 H -7.173134 -2.744556 -4.821974 0
M  V30 52 H -5.884290 -3.696858 -3.893336 0
M  V30 53 H -6.529986 -2.169876 -3.253987 0
M  V30 54 H -3.075131 -0.869173 -5.742439 0
M  V30 55 H -1.054715 -0.428932 -4.522964 0
M  V30 END ATOM
M  V30 BEGIN BOND
M  V30 1 1 1 2
M  V30 2 1 2 3
M  V30 3 1 3 4
M  V30 4 1 4 5
M  V30 5 1 5 6
M  V30 6 1 6 7
M  V30 7 2 7 8
M  V30 8 1 7 9
M  V30 9 1 9 10
M  V30 10 1 10 11
M  V30 11 1 11 12
M  V30 12 1 12 13
M  V30 13 1 11 14
M  V30 14 1 14 15
M  V30 15 2 15 16
M  V30 16 1 16 17
M  V30 17 2 17 18
M  V30 18 1 18 19
M  V30 19 2 19 20
M  V30 20 1 20 21
M  V30 21 1 21 22
M  V30 22 1 20 23
M  V30 23 2 23 24
M  V30 24 1 15 25
M  V30 25 2 25 26
M  V30 26 1 25 27
M  V30 27 1 27 11
M  V30 28 1 24 17
M  V30 29 1 1 28
M  V30 30 1 1 29
M  V30 31 1 1 30
M  V30 32 1 2 31
M  V30 33 1 2 32
M  V30 34 1 3 33
M  V30 35 1 3 34
M  V30 36 1 4 35
M  V30 37 1 4 36
M  V30 38 1 5 37
M  V30 39 1 5 38
M  V30 40 1 6 39
M  V30 41 1 6 40
M  V30 42 1 10 41
M  V30 43 1 10 42
M  V30 44 1 12 43
M  V30 45 1 12 44
M  V30 46 1 13 45
M  V30 47 1 14 46
M  V30 48 1 14 47
M  V30 49 1 16 48
M  V30 50 1 18 49
M  V30 51 1 19 50
M  V30 52 1 22 51
M  V30 53 1 22 52
M  V30 54 1 22 53
M  V30 55 1 23 54
M  V30 56 1 24 55
M  V30 END BOND
M  V30 END CTAB
M  END
>  <Dataset>  (136) 
ChEMBL_Kinases

>  <Ligand_Instance>  (136) 
nan

>  <PDB_ID>  (136) 
nan

>  <Standardized_SMILES>  (136) 
CCCCCCC(=O)OCC1(CO)C/C(=C/c2ccc(OC)cc2)C(=O)O1

>  <Name>  (136) 
nan

>  <Pocket>  (136) 
nan

>  <ATP_Site>  (136) 
nan

>  <Peripheral>  (136) 
nan

>  <Num_H_Atoms_ProtBoundConf>  (136) 
nan

>  <Num_Resolved_Atoms>  (136) 
nan

>  <Num_Not_Resolved_Atoms>  (136) 
nan

$$$$
CHEMBL517743
     RDKit          3D

  0  0  0  0  0  0  0  0  0  0999 V3000
M  V30 BEGIN CTAB
M  V30 COUNTS 62 68 0 0 0
M  V30 BEGIN ATOM
M  V30 1 O 1.025455 -2.706730 4.313105 0
M  V30 2 C 1.187320 -1.547303 3.964443 0
M  V30 3 N 1.957833 -0.950174 4.988406 0
M  V30 4 C 2.068824 0.473483 4.644450 0
M  V30 5 C 1.457162 0.523850 3.264115 0
M  V30 6 C 0.860522 -0.659503 2.892612 0
M  V30 7 C 0.258300 -0.796214 1.678009 0
M  V30 8 C 0.276977 0.293295 0.834305 0
M  V30 9 C 0.841945 1.491784 1.104795 0
M  V30 10 C 1.427465 1.564501 2.354297 0
M  V30 11 C 1.957000 2.838572 2.481141 0
M  V30 12 C 2.635650 3.505825 3.449648 0
M  V30 13 C 3.055140 4.812150 3.305688 0
M  V30 14 C 2.770126 5.464694 2.124134 0
M  V30 15 C 2.079637 4.761782 1.158822 0
M  V30 16 C 1.652559 3.451545 1.288975 0
M  V30 17 N 0.967785 2.642885 0.427423 0
M  V30 18 C 0.527562 2.997098 -0.892511 0
M  V30 19 C -0.848436 3.622565 -0.923870 0
M  V30 20 O -1.168686 3.920444 -2.247372 0
M  V30 21 C -0.498789 0.061527 -0.392812 0
M  V30 22 C -0.225694 -1.271363 -0.988917 0
M  V30 23 C -0.620086 -2.352325 -0.009042 0
M  V30 24 C -1.252037 -3.478212 -0.494901 0
M  V30 25 C -1.503904 -4.484602 0.406058 0
M  V30 26 O -2.124487 -5.659298 0.053498 0
M  V30 27 C -2.560330 -5.962340 -1.220835 0
M  V30 28 C -3.654609 -5.077453 -1.768643 0
M  V30 29 C -3.372752 -4.878970 -3.221691 0
M  V30 30 C -2.043618 -5.472678 -3.552383 0
M  V30 31 C -1.503902 -6.086767 -2.275917 0
M  V30 32 C -1.112268 -4.308644 1.741816 0
M  V30 33 C -0.485444 -3.109999 2.078735 0
M  V30 34 C -0.197967 -2.079216 1.270162 0
M  V30 35 H 2.452306 -1.182672 5.874976 0
M  V30 36 H 1.567637 1.129284 5.355340 0
M  V30 37 H 3.160522 0.681352 4.539977 0
M  V30 38 H 2.885535 3.047898 4.393506 0
M  V30 39 H 3.591121 5.350788 4.060806 0
M  V30 40 H 3.075922 6.493752 1.955394 0
M  V30 41 H 1.853967 5.271289 0.229286 0
M  V30 42 H 1.185917 3.910716 -1.141538 0
M  V30 43 H 0.794088 2.346777 -1.711279 0
M  V30 44 H -1.590674 2.984498 -0.420981 0
M  V30 45 H -0.850433 4.619561 -0.401584 0
M  V30 46 H -2.038271 4.333644 -2.367447 0
M  V30 47 H -1.565388 -0.103999 0.049442 0
M  V30 48 H -0.695017 0.858199 -1.062164 0
M  V30 49 H -0.826003 -1.438884 -1.875045 0
M  V30 50 H 0.847167 -1.470452 -1.184780 0
M  V30 51 H -1.501454 -3.498850 -1.519625 0
M  V30 52 H -3.034485 -7.001325 -1.167587 0
M  V30 53 H -3.776270 -4.118768 -1.272797 0
M  V30 54 H -4.673157 -5.568593 -1.703152 0
M  V30 55 H -4.135489 -5.377788 -3.886207 0
M  V30 56 H -3.406956 -3.790707 -3.517139 0
M  V30 57 H -1.362975 -4.651503 -3.922389 0
M  V30 58 H -2.101301 -6.211173 -4.391399 0
M  V30 59 H -0.550517 -5.606304 -2.047024 0
M  V30 60 H -1.263713 -7.156453 -2.523304 0
M  V30 61 H -1.331093 -5.129490 2.413331 0
M  V30 62 H -0.346420 -3.087242 3.091347 0
M  V30 END ATOM
M  V30 BEGIN BOND
M  V30 1 2 1 2
M  V30 2 1 2 3
M  V30 3 1 3 4
M  V30 4 1 4 5
M  V30 5 2 5 6
M  V30 6 1 6 7
M  V30 7 2 7 8
M  V30 8 1 8 9
M  V30 9 2 9 10
M  V30 10 1 10 11
M  V30 11 2 11 12
M  V30 12 1 12 13
M  V30 13 2 13 14
M  V30 14 1 14 15
M  V30 15 2 15 16
M  V30 16 1 16 17
M  V30 17 1 17 18
M  V30 18 1 18 19
M  V30 19 1 19 20
M  V30 20 1 8 21
M  V30 21 1 21 22
M  V30 22 1 22 23
M  V30 23 2 23 24
M  V30 24 1 24 25
M  V30 25 1 25 26
M  V30 26 1 26 27
M  V30 27 1 27 28
M  V30 28 1 28 29
M  V30 29 1 29 30
M  V30 30 1 30 31
M  V30 31 2 25 32
M  V30 32 1 32 33
M  V30 33 2 33 34
M  V30 34 1 6 2
M  V30 35 1 34 7
M  V30 36 1 10 5
M  V30 37 1 16 11
M  V30 38 1 34 23
M  V30 39 1 17 9
M  V30 40 1 31 27
M  V30 41 1 3 35
M  V30 42 1 4 36
M  V30 43 1 4 37
M  V30 44 1 12 38
M  V30 45 1 13 39
M  V30 46 1 14 40
M  V30 47 1 15 41
M  V30 48 1 18 42
M  V30 49 1 18 43
M  V30 50 1 19 44
M  V30 51 1 19 45
M  V30 52 1 20 46
M  V30 53 1 21 47
M  V30 54 1 21 48
M  V30 55 1 22 49
M  V30 56 1 22 50
M  V30 57 1 24 51
M  V30 58 1 27 52
M  V30 59 1 28 53
M  V30 60 1 28 54
M  V30 61 1 29 55
M  V30 62 1 29 56
M  V30 63 1 30 57
M  V30 64 1 30 58
M  V30 65 1 31 59
M  V30 66 1 31 60
M  V30 67 1 32 61
M  V30 68 1 33 62
M  V30 END BOND
M  V30 END CTAB
M  END
>  <Dataset>  (137) 
ChEMBL_Kinases

>  <Ligand_Instance>  (137) 
nan

>  <PDB_ID>  (137) 
nan

>  <Standardized_SMILES>  (137) 
O=C1NCc2c1c1c(c3c2c2ccccc2n3CCO)CCc2cc(OC3CCCC3)ccc2-1

>  <Name>  (137) 
nan

>  <Pocket>  (137) 
nan

>  <ATP_Site>  (137) 
nan

>  <Peripheral>  (137) 
nan

>  <Num_H_Atoms_ProtBoundConf>  (137) 
nan

>  <Num_Resolved_Atoms>  (137) 
nan

>  <Num_Not_Resolved_Atoms>  (137) 
nan

$$$$
CHEMBL3733020
     RDKit          3D

  0  0  0  0  0  0  0  0  0  0999 V3000
M  V30 BEGIN CTAB
M  V30 COUNTS 41 44 0 0 0
M  V30 BEGIN ATOM
M  V30 1 C 0.923217 -4.370198 0.744452 0
M  V30 2 N 0.818673 -3.136574 -0.003951 0
M  V30 3 C 0.716958 -3.409875 -1.429930 0
M  V30 4 C 0.606772 -2.137187 -2.231707 0
M  V30 5 N -0.579016 -1.387501 -1.831377 0
M  V30 6 C 0.805843 -1.800925 0.465024 0
M  V30 7 N 1.678307 -0.829436 0.154788 0
M  V30 8 C 1.496229 0.384530 0.706912 0
M  V30 9 C 2.415026 1.494548 0.410104 0
M  V30 10 C 3.457592 1.232437 -0.450188 0
M  V30 11 C 4.349040 2.237582 -0.762881 0
M  V30 12 N 4.205786 3.464302 -0.235038 0
M  V30 13 C 3.203199 3.759707 0.607175 0
M  V30 14 C 2.299759 2.755781 0.929146 0
M  V30 15 N 0.514719 0.678213 1.532943 0
M  V30 16 C -0.435861 -0.174436 1.941763 0
M  V30 17 C -0.221192 -1.428876 1.351641 0
M  V30 18 S -1.598399 -2.450505 2.017460 0
M  V30 19 C -2.317114 -1.147143 2.996729 0
M  V30 20 C -3.393879 -1.181640 3.780219 0
M  V30 21 C -3.808370 -0.063428 4.471073 0
M  V30 22 C -3.000837 1.031821 4.251374 0
M  V30 23 C -1.887768 1.081731 3.446370 0
M  V30 24 Cl -1.013320 2.619170 3.329366 0
M  V30 25 C -1.500311 -0.056049 2.768753 0
M  V30 26 H 0.039604 -5.005891 0.516657 0
M  V30 27 H 1.813433 -4.950237 0.373556 0
M  V30 28 H 0.969032 -4.185548 1.824148 0
M  V30 29 H -0.224129 -3.992392 -1.562839 0
M  V30 30 H 1.577556 -3.987395 -1.803481 0
M  V30 31 H 0.469523 -2.403573 -3.285683 0
M  V30 32 H 1.502915 -1.515519 -2.119660 0
M  V30 33 H -1.390895 -1.608153 -2.439042 0
M  V30 34 H -0.348220 -0.376433 -1.985435 0
M  V30 35 H 3.587040 0.242662 -0.886318 0
M  V30 36 H 5.158054 1.995987 -1.443595 0
M  V30 37 H 3.077188 4.750703 1.041188 0
M  V30 38 H 1.479268 2.960937 1.605802 0
M  V30 39 H -3.945914 -2.111042 3.868247 0
M  V30 40 H -4.657585 -0.034442 5.108321 0
M  V30 41 H -3.289087 1.958235 4.782996 0
M  V30 END ATOM
M  V30 BEGIN BOND
M  V30 1 1 1 2
M  V30 2 1 2 3
M  V30 3 1 3 4
M  V30 4 1 4 5
M  V30 5 1 2 6
M  V30 6 2 6 7
M  V30 7 1 7 8
M  V30 8 1 8 9
M  V30 9 2 9 10
M  V30 10 1 10 11
M  V30 11 2 11 12
M  V30 12 1 12 13
M  V30 13 2 13 14
M  V30 14 2 8 15
M  V30 15 1 15 16
M  V30 16 2 16 17
M  V30 17 1 17 18
M  V30 18 1 18 19
M  V30 19 2 19 20
M  V30 20 1 20 21
M  V30 21 2 21 22
M  V30 22 1 22 23
M  V30 23 1 23 24
M  V30 24 2 23 25
M  V30 25 1 17 6
M  V30 26 1 25 19
M  V30 27 1 14 9
M  V30 28 1 25 16
M  V30 29 1 1 26
M  V30 30 1 1 27
M  V30 31 1 1 28
M  V30 32 1 3 29
M  V30 33 1 3 30
M  V30 34 1 4 31
M  V30 35 1 4 32
M  V30 36 1 5 33
M  V30 37 1 5 34
M  V30 38 1 10 35
M  V30 39 1 11 36
M  V30 40 1 13 37
M  V30 41 1 14 38
M  V30 42 1 20 39
M  V30 43 1 21 40
M  V30 44 1 22 41
M  V30 END BOND
M  V30 END CTAB
M  END
>  <Dataset>  (138) 
ChEMBL_Kinases

>  <Ligand_Instance>  (138) 
nan

>  <PDB_ID>  (138) 
nan

>  <Standardized_SMILES>  (138) 
CN(CCN)c1nc(-c2ccncc2)nc2c1sc1cccc(Cl)c12

>  <Name>  (138) 
nan

>  <Pocket>  (138) 
nan

>  <ATP_Site>  (138) 
nan

>  <Peripheral>  (138) 
nan

>  <Num_H_Atoms_ProtBoundConf>  (138) 
nan

>  <Num_Resolved_Atoms>  (138) 
nan

>  <Num_Not_Resolved_Atoms>  (138) 
nan

$$$$
CHEMBL516127
     RDKit          3D

  0  0  0  0  0  0  0  0  0  0999 V3000
M  V30 BEGIN CTAB
M  V30 COUNTS 70 74 0 0 0
M  V30 BEGIN ATOM
M  V30 1 C 1.497192 4.907069 4.044111 0
M  V30 2 C 2.649460 4.366126 3.258726 0
M  V30 3 C 3.916385 4.920649 3.471101 0
M  V30 4 C 5.030051 4.462283 2.765523 0
M  V30 5 C 4.920037 3.448395 1.835644 0
M  V30 6 C 6.108976 3.007477 1.115378 0
M  V30 7 O 7.192041 3.576812 1.410737 0
M  V30 8 N 6.095798 2.002957 0.132500 0
M  V30 9 C 7.197092 1.479091 -0.655049 0
M  V30 10 C 7.061987 0.189787 -1.340825 0
M  V30 11 C 6.833854 1.384390 -2.175862 0
M  V30 12 C 3.659474 2.918879 1.646247 0
M  V30 13 C 2.539382 3.343334 2.321273 0
M  V30 14 C 1.222243 2.761747 2.085077 0
M  V30 15 C 0.286745 2.390149 3.019767 0
M  V30 16 C -0.949011 1.855634 2.632598 0
M  V30 17 C -1.120504 1.746483 1.277542 0
M  V30 18 C -2.428402 1.209841 0.954270 0
M  V30 19 O -3.321455 0.957374 1.827303 0
M  V30 20 N -3.066621 0.843130 -0.213162 0
M  V30 21 C -3.945742 0.400350 -1.231300 0
M  V30 22 C -4.045100 -1.097362 -1.316109 0
M  V30 23 C -3.183564 -1.839334 -2.092581 0
M  V30 24 C -3.245342 -3.209901 -2.202726 0
M  V30 25 C -4.214951 -3.910128 -1.507331 0
M  V30 26 N -4.388006 -5.336402 -1.531393 0
M  V30 27 C -5.481000 -6.094991 -0.932094 0
M  V30 28 C -4.922114 -7.039196 0.057236 0
M  V30 29 N -3.517560 -7.172472 0.112102 0
M  V30 30 C -2.913994 -6.459002 1.226934 0
M  V30 31 C -2.781443 -7.032461 -1.086413 0
M  V30 32 C -3.456771 -6.258686 -2.177899 0
M  V30 33 C -5.087031 -3.189716 -0.723647 0
M  V30 34 C -5.012689 -1.818917 -0.623962 0
M  V30 35 C -0.237873 2.092977 0.286517 0
M  V30 36 C 0.990030 2.625777 0.712091 0
M  V30 37 H 0.548242 4.843402 3.484165 0
M  V30 38 H 1.461665 4.560872 5.079237 0
M  V30 39 H 1.694695 6.017140 4.112319 0
M  V30 40 H 4.015087 5.727146 4.209096 0
M  V30 41 H 5.964379 4.953970 3.001743 0
M  V30 42 H 5.172509 1.560814 -0.071338 0
M  V30 43 H 8.214053 1.899632 -0.495907 0
M  V30 44 H 6.215373 -0.487858 -1.129865 0
M  V30 45 H 7.986588 -0.390470 -1.594523 0
M  V30 46 H 5.798759 1.605350 -2.460947 0
M  V30 47 H 7.570120 1.770705 -2.889531 0
M  V30 48 H 3.512666 2.123756 0.933860 0
M  V30 49 H 0.555578 2.529161 4.052266 0
M  V30 50 H -1.651806 1.579191 3.392664 0
M  V30 51 H -2.242973 1.047581 -0.874117 0
M  V30 52 H -3.806655 0.873541 -2.215189 0
M  V30 53 H -5.009511 0.707135 -0.894520 0
M  V30 54 H -2.399836 -1.363428 -2.667745 0
M  V30 55 H -2.565719 -3.752917 -2.810528 0
M  V30 56 H -6.283595 -5.472791 -0.530330 0
M  V30 57 H -5.930255 -6.672872 -1.797585 0
M  V30 58 H -5.295051 -6.738819 1.069352 0
M  V30 59 H -5.364104 -8.046152 -0.106924 0
M  V30 60 H -2.140139 -7.114297 1.654691 0
M  V30 61 H -3.673243 -6.192881 1.992274 0
M  V30 62 H -2.447670 -5.547279 0.809803 0
M  V30 63 H -2.509694 -8.028196 -1.487845 0
M  V30 64 H -1.826293 -6.515330 -0.853000 0
M  V30 65 H -4.073426 -6.914678 -2.835813 0
M  V30 66 H -2.753361 -5.744039 -2.837148 0
M  V30 67 H -5.884933 -3.559488 -0.126031 0
M  V30 68 H -5.670503 -1.192816 -0.024210 0
M  V30 69 H -0.447661 1.976927 -0.765258 0
M  V30 70 H 1.666911 2.891522 -0.086935 0
M  V30 END ATOM
M  V30 BEGIN BOND
M  V30 1 1 1 2
M  V30 2 2 2 3
M  V30 3 1 3 4
M  V30 4 2 4 5
M  V30 5 1 5 6
M  V30 6 2 6 7
M  V30 7 1 6 8
M  V30 8 1 8 9
M  V30 9 1 9 10
M  V30 10 1 10 11
M  V30 11 1 5 12
M  V30 12 2 12 13
M  V30 13 1 13 14
M  V30 14 2 14 15
M  V30 15 1 15 16
M  V30 16 2 16 17
M  V30 17 1 17 18
M  V30 18 2 18 19
M  V30 19 1 18 20
M  V30 20 1 20 21
M  V30 21 1 21 22
M  V30 22 2 22 23
M  V30 23 1 23 24
M  V30 24 2 24 25
M  V30 25 1 25 26
M  V30 26 1 26 27
M  V30 27 1 27 28
M  V30 28 1 28 29
M  V30 29 1 29 30
M  V30 30 1 29 31
M  V30 31 1 31 32
M  V30 32 1 25 33
M  V30 33 2 33 34
M  V30 34 1 17 35
M  V30 35 2 35 36
M  V30 36 1 13 2
M  V30 37 1 36 14
M  V30 38 1 11 9
M  V30 39 1 34 22
M  V30 40 1 32 26
M  V30 41 1 1 37
M  V30 42 1 1 38
M  V30 43 1 1 39
M  V30 44 1 3 40
M  V30 45 1 4 41
M  V30 46 1 8 42
M  V30 47 1 9 43
M  V30 48 1 10 44
M  V30 49 1 10 45
M  V30 50 1 11 46
M  V30 51 1 11 47
M  V30 52 1 12 48
M  V30 53 1 15 49
M  V30 54 1 16 50
M  V30 55 1 20 51
M  V30 56 1 21 52
M  V30 57 1 21 53
M  V30 58 1 23 54
M  V30 59 1 24 55
M  V30 60 1 27 56
M  V30 61 1 27 57
M  V30 62 1 28 58
M  V30 63 1 28 59
M  V30 64 1 30 60
M  V30 65 1 30 61
M  V30 66 1 30 62
M  V30 67 1 31 63
M  V30 68 1 31 64
M  V30 69 1 32 65
M  V30 70 1 32 66
M  V30 71 1 33 67
M  V30 72 1 34 68
M  V30 73 1 35 69
M  V30 74 1 36 70
M  V30 END BOND
M  V30 END CTAB
M  END
>  <Dataset>  (139) 
ChEMBL_Kinases

>  <Ligand_Instance>  (139) 
nan

>  <PDB_ID>  (139) 
nan

>  <Standardized_SMILES>  (139) 
Cc1ccc(C(=O)NC2CC2)cc1-c1ccc(C(=O)NCc2ccc(N3CCN(C)CC3)cc2)cc1

>  <Name>  (139) 
nan

>  <Pocket>  (139) 
nan

>  <ATP_Site>  (139) 
nan

>  <Peripheral>  (139) 
nan

>  <Num_H_Atoms_ProtBoundConf>  (139) 
nan

>  <Num_Resolved_Atoms>  (139) 
nan

>  <Num_Not_Resolved_Atoms>  (139) 
nan

$$$$
CHEMBL516261
     RDKit          3D

  0  0  0  0  0  0  0  0  0  0999 V3000
M  V30 BEGIN CTAB
M  V30 COUNTS 47 51 0 0 0
M  V30 BEGIN ATOM
M  V30 1 C -0.321823 0.646852 6.650870 0
M  V30 2 O -0.256121 0.133343 5.375370 0
M  V30 3 C 0.526664 -1.023816 5.274541 0
M  V30 4 C 0.468495 -1.441563 3.828488 0
M  V30 5 C 1.348032 -0.962676 2.873712 0
M  V30 6 C 1.184954 -1.438263 1.569434 0
M  V30 7 C 0.206673 -2.339912 1.222248 0
M  V30 8 C -0.101631 -2.917474 0.004598 0
M  V30 9 C 0.550198 -2.658502 -1.256048 0
M  V30 10 C 0.884554 -1.519034 -1.887347 0
M  V30 11 C 0.699406 -0.123769 -1.519013 0
M  V30 12 C 1.573578 0.941098 -1.542675 0
M  V30 13 N 1.007684 2.088918 -1.137025 0
M  V30 14 C 1.627736 3.392862 -1.029102 0
M  V30 15 C -0.264639 1.773166 -0.840961 0
M  V30 16 C -1.265403 2.601567 -0.388365 0
M  V30 17 C -2.540102 2.102986 -0.140659 0
M  V30 18 C -2.824650 0.749456 -0.348216 0
M  V30 19 F -4.049684 0.207099 -0.124315 0
M  V30 20 C -1.769593 -0.010481 -0.801452 0
M  V30 21 C -0.490104 0.416964 -1.064561 0
M  V30 22 C 1.549342 -1.838900 -3.165487 0
M  V30 23 O 2.010287 -1.069249 -4.043734 0
M  V30 24 N 1.598342 -3.258696 -3.270794 0
M  V30 25 C 0.986770 -3.787950 -2.102406 0
M  V30 26 O 0.859498 -5.034192 -1.868634 0
M  V30 27 C -1.191400 -3.751696 0.285058 0
M  V30 28 O -1.491981 -3.663143 1.568290 0
M  V30 29 C -0.674085 -2.824027 2.167512 0
M  V30 30 C -0.510741 -2.350571 3.456822 0
M  V30 31 H -0.960657 1.571821 6.662813 0
M  V30 32 H -0.749395 -0.117015 7.349188 0
M  V30 33 H 0.707578 0.904594 7.031978 0
M  V30 34 H 1.561280 -0.787124 5.514087 0
M  V30 35 H 0.129830 -1.832551 5.906347 0
M  V30 36 H 2.105445 -0.254365 3.181764 0
M  V30 37 H 1.920663 -1.009830 0.908775 0
M  V30 38 H 2.607000 0.781866 -1.869977 0
M  V30 39 H 0.856154 4.186881 -0.917903 0
M  V30 40 H 2.218185 3.651681 -1.939927 0
M  V30 41 H 2.233060 3.441756 -0.099915 0
M  V30 42 H -1.201010 3.655494 -0.183669 0
M  V30 43 H -3.373102 2.713642 0.218651 0
M  V30 44 H -2.003481 -1.050558 -0.968321 0
M  V30 45 H 2.022104 -3.792964 -4.087840 0
M  V30 46 H -1.618670 -4.322711 -0.528175 0
M  V30 47 H -1.195156 -2.725285 4.197572 0
M  V30 END ATOM
M  V30 BEGIN BOND
M  V30 1 1 1 2
M  V30 2 1 2 3
M  V30 3 1 3 4
M  V30 4 2 4 5
M  V30 5 1 5 6
M  V30 6 2 6 7
M  V30 7 1 7 8
M  V30 8 1 8 9
M  V30 9 2 9 10
M  V30 10 1 10 11
M  V30 11 2 11 12
M  V30 12 1 12 13
M  V30 13 1 13 14
M  V30 14 1 13 15
M  V30 15 2 15 16
M  V30 16 1 16 17
M  V30 17 2 17 18
M  V30 18 1 18 19
M  V30 19 1 18 20
M  V30 20 2 20 21
M  V30 21 1 10 22
M  V30 22 2 22 23
M  V30 23 1 22 24
M  V30 24 1 24 25
M  V30 25 2 25 26
M  V30 26 2 8 27
M  V30 27 1 27 28
M  V30 28 1 28 29
M  V30 29 2 29 30
M  V30 30 1 30 4
M  V30 31 1 29 7
M  V30 32 1 25 9
M  V30 33 1 21 11
M  V30 34 1 21 15
M  V30 35 1 1 31
M  V30 36 1 1 32
M  V30 37 1 1 33
M  V30 38 1 3 34
M  V30 39 1 3 35
M  V30 40 1 5 36
M  V30 41 1 6 37
M  V30 42 1 12 38
M  V30 43 1 14 39
M  V30 44 1 14 40
M  V30 45 1 14 41
M  V30 46 1 16 42
M  V30 47 1 17 43
M  V30 48 1 20 44
M  V30 49 1 24 45
M  V30 50 1 27 46
M  V30 51 1 30 47
M  V30 END BOND
M  V30 END CTAB
M  END
>  <Dataset>  (140) 
ChEMBL_Kinases

>  <Ligand_Instance>  (140) 
nan

>  <PDB_ID>  (140) 
nan

>  <Standardized_SMILES>  (140) 
COCc1ccc2c(C3=C(c4cn(C)c5ccc(F)cc45)C(=O)NC3=O)coc2c1

>  <Name>  (140) 
nan

>  <Pocket>  (140) 
nan

>  <ATP_Site>  (140) 
nan

>  <Peripheral>  (140) 
nan

>  <Num_H_Atoms_ProtBoundConf>  (140) 
nan

>  <Num_Resolved_Atoms>  (140) 
nan

>  <Num_Not_Resolved_Atoms>  (140) 
nan

$$$$
CHEMBL516264
     RDKit          3D

  0  0  0  0  0  0  0  0  0  0999 V3000
M  V30 BEGIN CTAB
M  V30 COUNTS 53 56 0 0 0
M  V30 BEGIN ATOM
M  V30 1 C -1.937757 0.945821 4.058614 0
M  V30 2 C -0.644837 1.122298 3.391612 0
M  V30 3 C 0.219168 2.107169 3.863661 0
M  V30 4 C 1.438331 2.305134 3.268091 0
M  V30 5 C 1.854077 1.556087 2.200537 0
M  V30 6 C 3.147526 1.753242 1.555101 0
M  V30 7 O 3.531703 1.057275 0.564554 0
M  V30 8 N 4.074033 2.726985 1.974195 0
M  V30 9 C 5.312307 2.844104 1.280470 0
M  V30 10 C 6.478940 2.171541 1.583393 0
M  V30 11 C 7.628222 2.358094 0.844427 0
M  V30 12 C 7.628908 3.226923 -0.217349 0
M  V30 13 C 6.463040 3.900694 -0.522087 0
M  V30 14 C 5.301702 3.732309 0.200041 0
M  V30 15 C 1.014672 0.574975 1.716219 0
M  V30 16 C -0.232636 0.363085 2.315637 0
M  V30 17 C -1.093610 -0.671201 1.789337 0
M  V30 18 C -1.245055 -0.758919 0.417928 0
M  V30 19 C -2.039574 -1.703721 -0.199722 0
M  V30 20 C -2.732579 -2.623685 0.562752 0
M  V30 21 C -3.608744 -3.678936 0.063161 0
M  V30 22 O -4.209498 -4.482001 0.799613 0
M  V30 23 N -3.847445 -3.874062 -1.326238 0
M  V30 24 C -4.755042 -4.982332 -1.637876 0
M  V30 25 C -4.952882 -5.119152 -3.127340 0
M  V30 26 C -5.876287 -6.238408 -3.557196 0
M  V30 27 C -4.408527 -6.298369 -3.837128 0
M  V30 28 C -2.576740 -2.530261 1.931061 0
M  V30 29 C -1.788739 -1.595378 2.573058 0
M  V30 30 H -2.762832 0.592686 3.411967 0
M  V30 31 H -2.277682 1.979244 4.367101 0
M  V30 32 H -1.869813 0.406473 5.035470 0
M  V30 33 H -0.090277 2.708644 4.704784 0
M  V30 34 H 2.051670 3.073996 3.676998 0
M  V30 35 H 3.861732 3.354841 2.779116 0
M  V30 36 H 6.387279 1.508264 2.434498 0
M  V30 37 H 8.513111 1.806992 1.124242 0
M  V30 38 H 8.509381 3.401110 -0.821673 0
M  V30 39 H 6.472789 4.583780 -1.360952 0
M  V30 40 H 4.403457 4.288773 -0.080388 0
M  V30 41 H 1.331454 -0.026544 0.870209 0
M  V30 42 H -0.730832 -0.068672 -0.251154 0
M  V30 43 H -2.167572 -1.784313 -1.271183 0
M  V30 44 H -3.388079 -3.249553 -2.031228 0
M  V30 45 H -5.743138 -4.681107 -1.206360 0
M  V30 46 H -4.427005 -5.928515 -1.180912 0
M  V30 47 H -5.134825 -4.161125 -3.663913 0
M  V30 48 H -6.584520 -6.093512 -4.388437 0
M  V30 49 H -6.256228 -6.933798 -2.778344 0
M  V30 50 H -4.122802 -6.256845 -4.898148 0
M  V30 51 H -3.768750 -6.972983 -3.198435 0
M  V30 52 H -3.085046 -3.215087 2.626577 0
M  V30 53 H -1.678082 -1.536044 3.639241 0
M  V30 END ATOM
M  V30 BEGIN BOND
M  V30 1 1 1 2
M  V30 2 2 2 3
M  V30 3 1 3 4
M  V30 4 2 4 5
M  V30 5 1 5 6
M  V30 6 2 6 7
M  V30 7 1 6 8
M  V30 8 1 8 9
M  V30 9 2 9 10
M  V30 10 1 10 11
M  V30 11 2 11 12
M  V30 12 1 12 13
M  V30 13 2 13 14
M  V30 14 1 5 15
M  V30 15 2 15 16
M  V30 16 1 16 17
M  V30 17 2 17 18
M  V30 18 1 18 19
M  V30 19 2 19 20
M  V30 20 1 20 21
M  V30 21 2 21 22
M  V30 22 1 21 23
M  V30 23 1 23 24
M  V30 24 1 24 25
M  V30 25 1 25 26
M  V30 26 1 26 27
M  V30 27 1 20 28
M  V30 28 2 28 29
M  V30 29 1 16 2
M  V30 30 1 29 17
M  V30 31 1 14 9
M  V30 32 1 27 25
M  V30 33 1 1 30
M  V30 34 1 1 31
M  V30 35 1 1 32
M  V30 36 1 3 33
M  V30 37 1 4 34
M  V30 38 1 8 35
M  V30 39 1 10 36
M  V30 40 1 11 37
M  V30 41 1 12 38
M  V30 42 1 13 39
M  V30 43 1 14 40
M  V30 44 1 15 41
M  V30 45 1 18 42
M  V30 46 1 19 43
M  V30 47 1 23 44
M  V30 48 1 24 45
M  V30 49 1 24 46
M  V30 50 1 25 47
M  V30 51 1 26 48
M  V30 52 1 26 49
M  V30 53 1 27 50
M  V30 54 1 27 51
M  V30 55 1 28 52
M  V30 56 1 29 53
M  V30 END BOND
M  V30 END CTAB
M  END
>  <Dataset>  (141) 
ChEMBL_Kinases

>  <Ligand_Instance>  (141) 
nan

>  <PDB_ID>  (141) 
nan

>  <Standardized_SMILES>  (141) 
Cc1ccc(C(=O)Nc2ccccc2)cc1-c1ccc(C(=O)NCC2CC2)cc1

>  <Name>  (141) 
nan

>  <Pocket>  (141) 
nan

>  <ATP_Site>  (141) 
nan

>  <Peripheral>  (141) 
nan

>  <Num_H_Atoms_ProtBoundConf>  (141) 
nan

>  <Num_Resolved_Atoms>  (141) 
nan

>  <Num_Not_Resolved_Atoms>  (141) 
nan

$$$$
CHEMBL516287
     RDKit          3D

  0  0  0  0  0  0  0  0  0  0999 V3000
M  V30 BEGIN CTAB
M  V30 COUNTS 47 50 0 0 0
M  V30 BEGIN ATOM
M  V30 1 O 1.016174 -5.483085 2.504460 0
M  V30 2 C 0.642787 -4.365734 2.117760 0
M  V30 3 N 1.860017 -3.629535 1.825929 0
M  V30 4 C 3.310558 -3.646349 1.802714 0
M  V30 5 C 3.856533 -2.345819 1.301318 0
M  V30 6 C 3.496365 -1.862657 -0.041566 0
M  V30 7 C 4.866899 -2.396871 0.190386 0
M  V30 8 C -0.546090 -3.544597 1.872523 0
M  V30 9 C -0.682283 -3.133752 0.574339 0
M  V30 10 C -1.644840 -2.216203 0.204262 0
M  V30 11 C -2.449893 -1.742185 1.193833 0
M  V30 12 C -3.430362 -0.694422 1.533372 0
M  V30 13 C -4.285653 0.230778 1.825616 0
M  V30 14 C -4.687249 1.500616 1.746510 0
M  V30 15 C -3.830298 2.243981 1.021098 0
M  V30 16 C -2.666657 1.700200 0.443503 0
M  V30 17 N -1.770207 2.529481 -0.285342 0
M  V30 18 C -0.454287 2.496938 0.357636 0
M  V30 19 O -0.315785 1.825960 1.424732 0
M  V30 20 C 0.630973 3.234287 -0.262529 0
M  V30 21 C 1.377230 4.338800 -0.097086 0
M  V30 22 C 2.290116 4.335570 -1.144856 0
M  V30 23 O 2.079135 3.275549 -1.887332 0
M  V30 24 C 1.083753 2.554200 -1.412455 0
M  V30 25 C -2.603698 0.306407 0.770626 0
M  V30 26 C -2.296556 -2.187285 2.529379 0
M  V30 27 C -1.303522 -3.144981 2.949834 0
M  V30 28 H 1.638929 -2.607662 1.473750 0
M  V30 29 H 3.647852 -4.540799 1.222336 0
M  V30 30 H 3.772751 -3.793227 2.808739 0
M  V30 31 H 4.045268 -1.512246 2.049459 0
M  V30 32 H 3.400113 -0.780744 -0.178066 0
M  V30 33 H 2.861925 -2.461970 -0.781565 0
M  V30 34 H 5.779443 -1.757249 0.247214 0
M  V30 35 H 5.091598 -3.365952 -0.328319 0
M  V30 36 H -0.140095 -3.425682 -0.320649 0
M  V30 37 H -2.009662 -1.711795 -0.659466 0
M  V30 38 H -4.843426 -0.602898 2.394045 0
M  V30 39 H -5.609409 1.705532 2.258840 0
M  V30 40 H -4.135818 3.293460 0.929207 0
M  V30 41 H -2.107446 3.028067 -1.127322 0
M  V30 42 H 1.231141 5.028003 0.746506 0
M  V30 43 H 3.046185 5.094942 -1.289418 0
M  V30 44 H 0.829374 1.635705 -1.979231 0
M  V30 45 H -1.600689 0.186383 0.189097 0
M  V30 46 H -2.778815 -1.975584 3.502253 0
M  V30 47 H -1.072292 -3.559844 3.905527 0
M  V30 END ATOM
M  V30 BEGIN BOND
M  V30 1 2 1 2
M  V30 2 1 2 3
M  V30 3 1 3 4
M  V30 4 1 4 5
M  V30 5 1 5 6
M  V30 6 1 6 7
M  V30 7 1 2 8
M  V30 8 2 8 9
M  V30 9 1 9 10
M  V30 10 2 10 11
M  V30 11 1 11 12
M  V30 12 2 12 13
M  V30 13 1 13 14
M  V30 14 2 14 15
M  V30 15 1 15 16
M  V30 16 1 16 17
M  V30 17 1 17 18
M  V30 18 2 18 19
M  V30 19 1 18 20
M  V30 20 1 20 21
M  V30 21 2 21 22
M  V30 22 1 22 23
M  V30 23 1 23 24
M  V30 24 2 16 25
M  V30 25 1 11 26
M  V30 26 2 26 27
M  V30 27 1 7 5
M  V30 28 1 27 8
M  V30 29 1 25 12
M  V30 30 2 24 20
M  V30 31 1 3 28
M  V30 32 1 4 29
M  V30 33 1 4 30
M  V30 34 1 5 31
M  V30 35 1 6 32
M  V30 36 1 6 33
M  V30 37 1 7 34
M  V30 38 1 7 35
M  V30 39 1 9 36
M  V30 40 1 10 37
M  V30 41 1 13 38
M  V30 42 1 14 39
M  V30 43 1 15 40
M  V30 44 1 17 41
M  V30 45 1 21 42
M  V30 46 1 22 43
M  V30 47 1 24 44
M  V30 48 1 25 45
M  V30 49 1 26 46
M  V30 50 1 27 47
M  V30 END BOND
M  V30 END CTAB
M  END
>  <Dataset>  (142) 
ChEMBL_Kinases

>  <Ligand_Instance>  (142) 
nan

>  <PDB_ID>  (142) 
nan

>  <Standardized_SMILES>  (142) 
O=C(NCC1CC1)c1ccc(-c2cccc(NC(=O)c3ccoc3)c2)cc1

>  <Name>  (142) 
nan

>  <Pocket>  (142) 
nan

>  <ATP_Site>  (142) 
nan

>  <Peripheral>  (142) 
nan

>  <Num_H_Atoms_ProtBoundConf>  (142) 
nan

>  <Num_Resolved_Atoms>  (142) 
nan

>  <Num_Not_Resolved_Atoms>  (142) 
nan

$$$$
CHEMBL516488
     RDKit          3D

  0  0  0  0  0  0  0  0  0  0999 V3000
M  V30 BEGIN CTAB
M  V30 COUNTS 52 56 0 0 0
M  V30 BEGIN ATOM
M  V30 1 C 0.888739 0.502310 3.784973 0
M  V30 2 N 0.790090 -0.705650 3.052842 0
M  V30 3 C 1.920399 -1.557317 2.999535 0
M  V30 4 C 3.094432 -1.068219 2.229423 0
M  V30 5 O 3.590599 0.128616 2.741496 0
M  V30 6 C 2.870578 -1.018346 0.755959 0
M  V30 7 N 1.797763 -0.185216 0.307390 0
M  V30 8 C 1.798197 1.136980 0.014760 0
M  V30 9 C 2.904665 1.966135 0.123228 0
M  V30 10 C 2.813236 3.285980 -0.192369 0
M  V30 11 C 1.587278 3.762613 -0.620537 0
M  V30 12 O 1.508908 5.126115 -0.941465 0
M  V30 13 C 0.526263 2.896907 -0.709146 0
M  V30 14 C 0.561345 1.571043 -0.407575 0
M  V30 15 C -0.250838 0.502093 -0.385714 0
M  V30 16 C -1.548477 0.377511 -0.706277 0
M  V30 17 C -2.185949 -0.835599 -0.613345 0
M  V30 18 C -1.483966 -1.960507 -0.180816 0
M  V30 19 C -2.091544 -3.280224 -0.062845 0
M  V30 20 C -2.731247 -3.761001 1.066210 0
M  V30 21 C -3.255223 -5.037925 1.009943 0
M  V30 22 C -3.204668 -5.894276 -0.073153 0
M  V30 23 C -2.551777 -5.381917 -1.202044 0
M  V30 24 C -2.019714 -4.114762 -1.177214 0
M  V30 25 Cl -1.217669 -3.580288 -2.664401 0
M  V30 26 C -0.156031 -1.781243 0.136473 0
M  V30 27 C 0.512976 -0.556216 0.049877 0
M  V30 28 C -3.603617 -0.799279 -1.000893 0
M  V30 29 O -4.414213 -1.745078 -1.012758 0
M  V30 30 N -3.814811 0.583311 -1.357944 0
M  V30 31 C -2.584691 1.262136 -1.175951 0
M  V30 32 O -2.605857 2.471779 -1.443977 0
M  V30 33 H 1.746129 1.143373 3.615152 0
M  V30 34 H -0.012972 1.141911 3.535539 0
M  V30 35 H 0.790075 0.364331 4.892251 0
M  V30 36 H -0.060451 -1.211850 3.352075 0
M  V30 37 H 1.597610 -2.521347 2.502756 0
M  V30 38 H 2.279845 -1.871934 4.015167 0
M  V30 39 H 3.916402 -1.851198 2.379759 0
M  V30 40 H 4.243785 -0.075146 3.443458 0
M  V30 41 H 2.707360 -2.057976 0.379965 0
M  V30 42 H 3.791777 -0.669871 0.228011 0
M  V30 43 H 3.868712 1.624035 0.452311 0
M  V30 44 H 3.666832 3.943653 -0.113109 0
M  V30 45 H 0.799270 5.666330 -0.474593 0
M  V30 46 H -0.361530 3.375289 -1.048237 0
M  V30 47 H -2.788180 -3.126530 1.921013 0
M  V30 48 H -3.757117 -5.417075 1.893449 0
M  V30 49 H -3.637441 -6.880531 -0.045692 0
M  V30 50 H -2.482311 -6.007400 -2.079350 0
M  V30 51 H 0.376112 -2.650086 0.465365 0
M  V30 52 H -4.764741 0.875015 -1.675285 0
M  V30 END ATOM
M  V30 BEGIN BOND
M  V30 1 1 1 2
M  V30 2 1 2 3
M  V30 3 1 3 4
M  V30 4 1 4 5
M  V30 5 1 4 6
M  V30 6 1 6 7
M  V30 7 1 7 8
M  V30 8 2 8 9
M  V30 9 1 9 10
M  V30 10 2 10 11
M  V30 11 1 11 12
M  V30 12 1 11 13
M  V30 13 2 13 14
M  V30 14 1 14 15
M  V30 15 2 15 16
M  V30 16 1 16 17
M  V30 17 2 17 18
M  V30 18 1 18 19
M  V30 19 2 19 20
M  V30 20 1 20 21
M  V30 21 2 21 22
M  V30 22 1 22 23
M  V30 23 2 23 24
M  V30 24 1 24 25
M  V30 25 1 18 26
M  V30 26 2 26 27
M  V30 27 1 17 28
M  V30 28 2 28 29
M  V30 29 1 28 30
M  V30 30 1 30 31
M  V30 31 2 31 32
M  V30 32 1 27 7
M  V30 33 1 14 8
M  V30 34 1 27 15
M  V30 35 1 31 16
M  V30 36 1 24 19
M  V30 37 1 1 33
M  V30 38 1 1 34
M  V30 39 1 1 35
M  V30 40 1 2 36
M  V30 41 1 3 37
M  V30 42 1 3 38
M  V30 43 1 4 39
M  V30 44 1 5 40
M  V30 45 1 6 41
M  V30 46 1 6 42
M  V30 47 1 9 43
M  V30 48 1 10 44
M  V30 49 1 12 45
M  V30 50 1 13 46
M  V30 51 1 20 47
M  V30 52 1 21 48
M  V30 53 1 22 49
M  V30 54 1 23 50
M  V30 55 1 26 51
M  V30 56 1 30 52
M  V30 END BOND
M  V30 END CTAB
M  END
>  <Dataset>  (143) 
ChEMBL_Kinases

>  <Ligand_Instance>  (143) 
nan

>  <PDB_ID>  (143) 
nan

>  <Standardized_SMILES>  (143) 
CNCC(O)Cn1c2ccc(O)cc2c2c3c(c(-c4ccccc4Cl)cc21)C(=O)NC3=O

>  <Name>  (143) 
nan

>  <Pocket>  (143) 
nan

>  <ATP_Site>  (143) 
nan

>  <Peripheral>  (143) 
nan

>  <Num_H_Atoms_ProtBoundConf>  (143) 
nan

>  <Num_Resolved_Atoms>  (143) 
nan

>  <Num_Not_Resolved_Atoms>  (143) 
nan

$$$$
CHEMBL516500
     RDKit          3D

  0  0  0  0  0  0  0  0  0  0999 V3000
M  V30 BEGIN CTAB
M  V30 COUNTS 78 80 0 0 0
M  V30 BEGIN ATOM
M  V30 1 C 3.039153 -5.986676 0.948533 0
M  V30 2 C 4.020363 -5.266085 0.039473 0
M  V30 3 C 4.328543 -6.185789 -1.124448 0
M  V30 4 C 3.525277 -3.963593 -0.418713 0
M  V30 5 C 2.436863 -3.845704 -1.222371 0
M  V30 6 C 1.948552 -2.604094 -1.668539 0
M  V30 7 C 0.787951 -2.594589 -2.516283 0
M  V30 8 C -0.429560 -2.463229 -1.581432 0
M  V30 9 C 0.606116 -1.642663 -3.602200 0
M  V30 10 C 2.607836 -1.447041 -1.269639 0
M  V30 11 C 2.197028 -0.112887 -1.688153 0
M  V30 12 O 2.699490 0.379649 -2.705518 0
M  V30 13 O 1.314502 0.597215 -1.030902 0
M  V30 14 C 0.562246 1.645785 -0.784576 0
M  V30 15 C -0.518724 2.208878 -1.621841 0
M  V30 16 C -0.023522 2.794993 -2.907918 0
M  V30 17 O 0.492760 1.929237 -3.829813 0
M  V30 18 C -1.742087 1.392176 -1.798523 0
M  V30 19 C -2.435760 1.567444 -0.495123 0
M  V30 20 C -3.453603 0.871148 -0.053907 0
M  V30 21 C -4.126186 1.057765 1.226061 0
M  V30 22 C -4.564512 2.230395 1.800352 0
M  V30 23 C -5.141251 2.106124 3.041761 0
M  V30 24 C -5.344651 0.975813 3.795929 0
M  V30 25 N -5.956355 0.980258 5.070171 0
M  V30 26 C -6.086569 -0.305164 5.726856 0
M  V30 27 C -6.382297 2.270849 5.568824 0
M  V30 28 C -4.882053 -0.188094 3.166803 0
M  V30 29 C -4.284999 -0.155567 1.909796 0
M  V30 30 C -1.738060 2.640377 0.204098 0
M  V30 31 O -1.816340 2.741619 1.469228 0
M  V30 32 O -1.100882 3.340886 -0.845780 0
M  V30 33 C 3.744731 -1.476067 -0.437665 0
M  V30 34 C 4.532701 -0.357685 0.036741 0
M  V30 35 C 5.614175 0.118010 -0.903609 0
M  V30 36 C 3.779889 0.795719 0.645174 0
M  V30 37 C 4.128574 -2.780703 -0.063413 0
M  V30 38 H 2.009183 -5.788824 0.612909 0
M  V30 39 H 3.277078 -7.070116 0.891401 0
M  V30 40 H 3.124145 -5.652077 2.003011 0
M  V30 41 H 4.945511 -5.097448 0.637454 0
M  V30 42 H 3.430305 -6.589475 -1.596546 0
M  V30 43 H 4.917923 -7.054076 -0.729509 0
M  V30 44 H 4.990707 -5.650564 -1.826468 0
M  V30 45 H 1.924104 -4.760704 -1.532081 0
M  V30 46 H 0.646627 -3.635075 -2.944798 0
M  V30 47 H -0.654594 -3.433741 -1.099110 0
M  V30 48 H -0.164809 -1.708008 -0.800628 0
M  V30 49 H -1.311762 -2.076959 -2.115033 0
M  V30 50 H 1.536555 -1.564722 -4.218683 0
M  V30 51 H -0.111091 -2.092464 -4.361558 0
M  V30 52 H 0.126243 -0.701745 -3.347926 0
M  V30 53 H 1.176297 2.567135 -0.389231 0
M  V30 54 H 0.025546 1.406961 0.218984 0
M  V30 55 H 0.833983 3.490313 -2.633934 0
M  V30 56 H -0.769499 3.497337 -3.359321 0
M  V30 57 H 0.044321 1.972410 -4.712492 0
M  V30 58 H -2.365564 1.878592 -2.601562 0
M  V30 59 H -1.619072 0.356115 -2.091615 0
M  V30 60 H -3.838124 0.071809 -0.712633 0
M  V30 61 H -4.440064 3.128062 1.245336 0
M  V30 62 H -5.492972 3.040737 3.506654 0
M  V30 63 H -6.702554 -0.225098 6.643239 0
M  V30 64 H -5.109028 -0.716446 6.060720 0
M  V30 65 H -6.602367 -1.028047 5.058078 0
M  V30 66 H -6.849070 2.138897 6.565465 0
M  V30 67 H -7.146251 2.666721 4.864816 0
M  V30 68 H -5.481060 2.917141 5.644425 0
M  V30 69 H -5.003616 -1.139477 3.700224 0
M  V30 70 H -3.969151 -1.129234 1.535624 0
M  V30 71 H 5.152072 -0.742227 0.909651 0
M  V30 72 H 6.053022 -0.708329 -1.485180 0
M  V30 73 H 6.461457 0.595046 -0.365372 0
M  V30 74 H 5.175386 0.939886 -1.517584 0
M  V30 75 H 4.406971 1.308051 1.445488 0
M  V30 76 H 2.882634 0.499477 1.179440 0
M  V30 77 H 3.675143 1.570912 -0.128314 0
M  V30 78 H 5.010948 -2.899924 0.589141 0
M  V30 END ATOM
M  V30 BEGIN BOND
M  V30 1 1 1 2
M  V30 2 1 2 3
M  V30 3 1 2 4
M  V30 4 2 4 5
M  V30 5 1 5 6
M  V30 6 1 6 7
M  V30 7 1 7 8
M  V30 8 1 7 9
M  V30 9 2 6 10
M  V30 10 1 10 11
M  V30 11 2 11 12
M  V30 12 1 11 13
M  V30 13 1 13 14
M  V30 14 1 14 15
M  V30 15 1 15 16
M  V30 16 1 16 17
M  V30 17 1 15 18
M  V30 18 1 18 19
M  V30 19 2 19 20
M  V30 20 1 20 21
M  V30 21 2 21 22
M  V30 22 1 22 23
M  V30 23 2 23 24
M  V30 24 1 24 25
M  V30 25 1 25 26
M  V30 26 1 25 27
M  V30 27 1 24 28
M  V30 28 2 28 29
M  V30 29 1 19 30
M  V30 30 2 30 31
M  V30 31 1 30 32
M  V30 32 1 10 33
M  V30 33 1 33 34
M  V30 34 1 34 35
M  V30 35 1 34 36
M  V30 36 2 33 37
M  V30 37 1 37 4
M  V30 38 1 32 15
M  V30 39 1 29 21
M  V30 40 1 1 38
M  V30 41 1 1 39
M  V30 42 1 1 40
M  V30 43 1 2 41
M  V30 44 1 3 42
M  V30 45 1 3 43
M  V30 46 1 3 44
M  V30 47 1 5 45
M  V30 48 1 7 46
M  V30 49 1 8 47
M  V30 50 1 8 48
M  V30 51 1 8 49
M  V30 52 1 9 50
M  V30 53 1 9 51
M  V30 54 1 9 52
M  V30 55 1 14 53
M  V30 56 1 14 54
M  V30 57 1 16 55
M  V30 58 1 16 56
M  V30 59 1 17 57
M  V30 60 1 18 58
M  V30 61 1 18 59
M  V30 62 1 20 60
M  V30 63 1 22 61
M  V30 64 1 23 62
M  V30 65 1 26 63
M  V30 66 1 26 64
M  V30 67 1 26 65
M  V30 68 1 27 66
M  V30 69 1 27 67
M  V30 70 1 27 68
M  V30 71 1 28 69
M  V30 72 1 29 70
M  V30 73 1 34 71
M  V30 74 1 35 72
M  V30 75 1 35 73
M  V30 76 1 35 74
M  V30 77 1 36 75
M  V30 78 1 36 76
M  V30 79 1 36 77
M  V30 80 1 37 78
M  V30 END BOND
M  V30 END CTAB
M  END
>  <Dataset>  (144) 
ChEMBL_Kinases

>  <Ligand_Instance>  (144) 
nan

>  <PDB_ID>  (144) 
nan

>  <Standardized_SMILES>  (144) 
CC(C)c1cc(C(C)C)c(C(=O)OCC2(CO)C/C(=C/c3ccc(N(C)C)cc3)C(=O)O2)c(C(C)C)c1

>  <Name>  (144) 
nan

>  <Pocket>  (144) 
nan

>  <ATP_Site>  (144) 
nan

>  <Peripheral>  (144) 
nan

>  <Num_H_Atoms_ProtBoundConf>  (144) 
nan

>  <Num_Resolved_Atoms>  (144) 
nan

>  <Num_Not_Resolved_Atoms>  (144) 
nan

$$$$
CHEMBL516504
     RDKit          3D

  0  0  0  0  0  0  0  0  0  0999 V3000
M  V30 BEGIN CTAB
M  V30 COUNTS 38 41 0 0 0
M  V30 BEGIN ATOM
M  V30 1 O 2.518583 -5.006927 3.317913 0
M  V30 2 C 3.525531 -4.655270 2.637733 0
M  V30 3 N 4.696719 -5.335760 2.702090 0
M  V30 4 C 5.736041 -4.892761 1.937197 0
M  V30 5 N 5.634916 -3.826442 1.140502 0
M  V30 6 C 4.515617 -3.098194 1.017825 0
M  V30 7 N 4.066908 -2.010662 0.343938 0
M  V30 8 C 2.787205 -1.772413 0.670364 0
M  V30 9 C 1.977939 -0.678925 0.136467 0
M  V30 10 C 2.570360 0.187344 -0.781525 0
M  V30 11 C 1.837966 1.245498 -1.318534 0
M  V30 12 N 0.544263 1.393299 -0.915420 0
M  V30 13 C -0.003006 0.542548 -0.027735 0
M  V30 14 C -1.395769 0.760732 0.359845 0
M  V30 15 C -2.107921 1.759562 -0.138703 0
M  V30 16 C -3.496736 2.083027 0.164612 0
M  V30 17 C -4.131838 3.171385 -0.435128 0
M  V30 18 C -5.447147 3.446587 -0.123439 0
M  V30 19 C -6.191983 2.688954 0.770324 0
M  V30 20 F -7.484150 2.956554 1.078695 0
M  V30 21 C -5.563310 1.616615 1.360067 0
M  V30 22 C -4.254915 1.344758 1.048528 0
M  V30 23 C 0.667308 -0.522124 0.539306 0
M  V30 24 C 2.374211 -2.722052 1.581751 0
M  V30 25 C 3.470972 -3.555498 1.796084 0
M  V30 26 H 4.781327 -6.172849 3.325424 0
M  V30 27 H 6.672417 -5.446875 1.996545 0
M  V30 28 H 4.700494 -1.491132 -0.318230 0
M  V30 29 H 3.593527 0.099997 -1.123551 0
M  V30 30 H 2.291149 1.926772 -2.035373 0
M  V30 31 H -1.906275 0.121449 1.066712 0
M  V30 32 H -1.583965 2.390548 -0.844449 0
M  V30 33 H -3.594066 3.798900 -1.143641 0
M  V30 34 H -5.921395 4.292609 -0.597444 0
M  V30 35 H -6.134714 1.013175 2.063163 0
M  V30 36 H -3.844630 0.491841 1.553607 0
M  V30 37 H 0.206680 -1.198259 1.255101 0
M  V30 38 H 1.366409 -2.767143 2.021559 0
M  V30 END ATOM
M  V30 BEGIN BOND
M  V30 1 2 1 2
M  V30 2 1 2 3
M  V30 3 1 3 4
M  V30 4 2 4 5
M  V30 5 1 5 6
M  V30 6 1 6 7
M  V30 7 1 7 8
M  V30 8 1 8 9
M  V30 9 2 9 10
M  V30 10 1 10 11
M  V30 11 2 11 12
M  V30 12 1 12 13
M  V30 13 1 13 14
M  V30 14 2 14 15
M  V30 15 1 15 16
M  V30 16 2 16 17
M  V30 17 1 17 18
M  V30 18 2 18 19
M  V30 19 1 19 20
M  V30 20 1 19 21
M  V30 21 2 21 22
M  V30 22 2 13 23
M  V30 23 2 8 24
M  V30 24 1 24 25
M  V30 25 1 25 2
M  V30 26 2 25 6
M  V30 27 1 23 9
M  V30 28 1 22 16
M  V30 29 1 3 26
M  V30 30 1 4 27
M  V30 31 1 7 28
M  V30 32 1 10 29
M  V30 33 1 11 30
M  V30 34 1 14 31
M  V30 35 1 15 32
M  V30 36 1 17 33
M  V30 37 1 18 34
M  V30 38 1 21 35
M  V30 39 1 22 36
M  V30 40 1 23 37
M  V30 41 1 24 38
M  V30 END BOND
M  V30 END CTAB
M  END
>  <Dataset>  (145) 
ChEMBL_Kinases

>  <Ligand_Instance>  (145) 
nan

>  <PDB_ID>  (145) 
nan

>  <Standardized_SMILES>  (145) 
O=c1[nH]cnc2[nH]c(-c3ccnc(/C=C/c4ccc(F)cc4)c3)cc12

>  <Name>  (145) 
nan

>  <Pocket>  (145) 
nan

>  <ATP_Site>  (145) 
nan

>  <Peripheral>  (145) 
nan

>  <Num_H_Atoms_ProtBoundConf>  (145) 
nan

>  <Num_Resolved_Atoms>  (145) 
nan

>  <Num_Not_Resolved_Atoms>  (145) 
nan

$$$$
CHEMBL3733000
     RDKit          3D

  0  0  0  0  0  0  0  0  0  0999 V3000
M  V30 BEGIN CTAB
M  V30 COUNTS 59 64 0 0 0
M  V30 BEGIN ATOM
M  V30 1 Cl 3.025956 -6.055381 0.939116 0
M  V30 2 C 3.460641 -4.585525 1.752340 0
M  V30 3 C 3.646325 -4.597480 3.122474 0
M  V30 4 C 3.991583 -3.442007 3.786667 0
M  V30 5 C 4.162188 -2.235237 3.097877 0
M  V30 6 C 3.983632 -2.192680 1.731396 0
M  V30 7 C 4.111444 -1.033565 0.840016 0
M  V30 8 N 2.946284 -0.286095 0.583076 0
M  V30 9 C 2.257832 0.323625 1.642735 0
M  V30 10 C 0.770202 0.229351 1.645357 0
M  V30 11 N 0.237654 0.366706 0.280643 0
M  V30 12 C -1.152229 0.397752 -0.010667 0
M  V30 13 N -1.496529 1.666659 -0.287817 0
M  V30 14 C -2.728975 2.100261 -0.565676 0
M  V30 15 C -3.148924 3.459946 -0.871277 0
M  V30 16 C -2.165720 4.433227 -0.878021 0
M  V30 17 C -2.532387 5.728601 -1.163439 0
M  V30 18 N -3.808303 6.087620 -1.436314 0
M  V30 19 C -4.753918 5.122399 -1.424773 0
M  V30 20 C -4.470153 3.780411 -1.144955 0
M  V30 21 N -3.674528 1.144898 -0.554883 0
M  V30 22 C -3.394129 -0.150529 -0.284531 0
M  V30 23 S -4.331860 -1.597513 -0.191997 0
M  V30 24 C -2.947903 -2.727314 0.226346 0
M  V30 25 C -1.889363 -1.894703 0.257660 0
M  V30 26 C -2.129269 -0.572531 -0.004239 0
M  V30 27 C -0.717925 -2.752064 0.562140 0
M  V30 28 C -0.807724 -3.950334 -0.365510 0
M  V30 29 C -1.831579 -4.887018 0.232083 0
M  V30 30 C -3.126419 -4.163844 0.450809 0
M  V30 31 C 1.136788 0.480257 -0.850490 0
M  V30 32 C 2.312586 -0.418889 -0.671026 0
M  V30 33 C 3.633244 -3.386322 1.090526 0
M  V30 34 H 3.536409 -5.489757 3.751814 0
M  V30 35 H 4.162169 -3.328662 4.846466 0
M  V30 36 H 4.432282 -1.315841 3.566977 0
M  V30 37 H 4.905014 -0.332792 1.239779 0
M  V30 38 H 4.539420 -1.326829 -0.163751 0
M  V30 39 H 2.540721 1.418868 1.644303 0
M  V30 40 H 2.660346 -0.052457 2.604728 0
M  V30 41 H 0.334530 -0.605480 2.190546 0
M  V30 42 H 0.371328 1.152518 2.165334 0
M  V30 43 H -1.112948 4.296023 -0.680838 0
M  V30 44 H -1.868776 6.596732 -1.205194 0
M  V30 45 H -5.807658 5.317469 -1.632542 0
M  V30 46 H -5.229593 3.018175 -1.137722 0
M  V30 47 H -0.763167 -3.126488 1.604578 0
M  V30 48 H 0.255270 -2.237976 0.447883 0
M  V30 49 H -1.078675 -3.647514 -1.396921 0
M  V30 50 H 0.192195 -4.433609 -0.361406 0
M  V30 51 H -1.395035 -5.341052 1.145271 0
M  V30 52 H -2.002659 -5.716534 -0.489576 0
M  V30 53 H -3.926689 -4.581113 -0.192687 0
M  V30 54 H -3.441767 -4.397859 1.510259 0
M  V30 55 H 0.644548 0.286561 -1.806995 0
M  V30 56 H 1.512725 1.527265 -0.853258 0
M  V30 57 H 2.111031 -1.495670 -0.868422 0
M  V30 58 H 3.056150 -0.143694 -1.478121 0
M  V30 59 H 3.473176 -3.447899 0.023394 0
M  V30 END ATOM
M  V30 BEGIN BOND
M  V30 1 1 1 2
M  V30 2 2 2 3
M  V30 3 1 3 4
M  V30 4 2 4 5
M  V30 5 1 5 6
M  V30 6 1 6 7
M  V30 7 1 7 8
M  V30 8 1 8 9
M  V30 9 1 9 10
M  V30 10 1 10 11
M  V30 11 1 11 12
M  V30 12 2 12 13
M  V30 13 1 13 14
M  V30 14 1 14 15
M  V30 15 2 15 16
M  V30 16 1 16 17
M  V30 17 2 17 18
M  V30 18 1 18 19
M  V30 19 2 19 20
M  V30 20 2 14 21
M  V30 21 1 21 22
M  V30 22 1 22 23
M  V30 23 1 23 24
M  V30 24 2 24 25
M  V30 25 1 25 26
M  V30 26 1 25 27
M  V30 27 1 27 28
M  V30 28 1 28 29
M  V30 29 1 29 30
M  V30 30 1 11 31
M  V30 31 1 31 32
M  V30 32 2 6 33
M  V30 33 1 33 2
M  V30 34 1 32 8
M  V30 35 1 26 12
M  V30 36 1 20 15
M  V30 37 2 26 22
M  V30 38 1 30 24
M  V30 39 1 3 34
M  V30 40 1 4 35
M  V30 41 1 5 36
M  V30 42 1 7 37
M  V30 43 1 7 38
M  V30 44 1 9 39
M  V30 45 1 9 40
M  V30 46 1 10 41
M  V30 47 1 10 42
M  V30 48 1 16 43
M  V30 49 1 17 44
M  V30 50 1 19 45
M  V30 51 1 20 46
M  V30 52 1 27 47
M  V30 53 1 27 48
M  V30 54 1 28 49
M  V30 55 1 28 50
M  V30 56 1 29 51
M  V30 57 1 29 52
M  V30 58 1 30 53
M  V30 59 1 30 54
M  V30 60 1 31 55
M  V30 61 1 31 56
M  V30 62 1 32 57
M  V30 63 1 32 58
M  V30 64 1 33 59
M  V30 END BOND
M  V30 END CTAB
M  END
>  <Dataset>  (146) 
ChEMBL_Kinases

>  <Ligand_Instance>  (146) 
nan

>  <PDB_ID>  (146) 
nan

>  <Standardized_SMILES>  (146) 
Clc1cccc(CN2CCN(c3nc(-c4ccncc4)nc4sc5c(c34)CCCC5)CC2)c1

>  <Name>  (146) 
nan

>  <Pocket>  (146) 
nan

>  <ATP_Site>  (146) 
nan

>  <Peripheral>  (146) 
nan

>  <Num_H_Atoms_ProtBoundConf>  (146) 
nan

>  <Num_Resolved_Atoms>  (146) 
nan

>  <Num_Not_Resolved_Atoms>  (146) 
nan

$$$$
CHEMBL516509
     RDKit          3D

  0  0  0  0  0  0  0  0  0  0999 V3000
M  V30 BEGIN CTAB
M  V30 COUNTS 60 61 0 0 0
M  V30 BEGIN ATOM
M  V30 1 C 1.297816 -3.680329 2.146562 0
M  V30 2 C 2.038535 -3.228098 0.946544 0
M  V30 3 C 3.116363 -2.249528 1.342453 0
M  V30 4 C 2.489209 -1.056851 2.003325 0
M  V30 5 O 2.202810 -0.545509 3.090318 0
M  V30 6 O 2.047071 -0.156697 1.050654 0
M  V30 7 C 1.421099 1.070989 1.278504 0
M  V30 8 C 1.081688 1.689594 -0.071647 0
M  V30 9 C 2.312654 1.766191 -0.946029 0
M  V30 10 O 2.005251 2.254488 -2.213769 0
M  V30 11 C 0.312558 2.957232 0.007289 0
M  V30 12 C -1.062313 2.502437 0.336783 0
M  V30 13 C -2.106066 2.979820 0.985133 0
M  V30 14 C -3.404057 2.372218 1.216638 0
M  V30 15 C -3.669715 1.110923 1.723351 0
M  V30 16 C -4.936473 0.612444 1.880617 0
M  V30 17 C -6.025816 1.404003 1.516770 0
M  V30 18 C -5.812612 2.664737 1.008730 0
M  V30 19 C -4.509539 3.128149 0.866665 0
M  V30 20 C -4.345286 4.492638 0.299288 0
M  V30 21 F -3.705087 5.348463 1.144716 0
M  V30 22 F -5.547746 5.031016 -0.109443 0
M  V30 23 F -3.603133 4.327669 -0.876006 0
M  V30 24 C -1.090854 1.215464 -0.342401 0
M  V30 25 O -2.133033 0.506613 -0.577245 0
M  V30 26 O 0.176280 0.808509 -0.732376 0
M  V30 27 C 2.620275 -4.274791 0.070068 0
M  V30 28 C 1.707015 -5.245137 -0.554190 0
M  V30 29 C 0.656772 -4.646194 -1.449760 0
M  V30 30 C 2.561569 -6.124863 -1.488220 0
M  V30 31 C 1.130859 -6.187661 0.454120 0
M  V30 32 H 1.506569 -2.944936 2.980382 0
M  V30 33 H 0.187705 -3.625218 2.038948 0
M  V30 34 H 1.628502 -4.651010 2.568324 0
M  V30 35 H 1.326041 -2.626330 0.332021 0
M  V30 36 H 3.737020 -1.930571 0.482532 0
M  V30 37 H 3.792355 -2.730060 2.120869 0
M  V30 38 H 0.471518 0.842507 1.831575 0
M  V30 39 H 1.967494 1.774841 1.918991 0
M  V30 40 H 3.110395 2.392492 -0.501408 0
M  V30 41 H 2.677523 0.729163 -1.083602 0
M  V30 42 H 2.072912 1.564487 -2.925836 0
M  V30 43 H 0.703518 3.682174 0.750557 0
M  V30 44 H 0.282472 3.404378 -1.004896 0
M  V30 45 H -1.905272 3.980132 1.388403 0
M  V30 46 H -2.825592 0.522126 2.011101 0
M  V30 47 H -5.082501 -0.382036 2.282188 0
M  V30 48 H -7.043803 1.060144 1.620695 0
M  V30 49 H -6.656407 3.304253 0.715572 0
M  V30 50 H 3.400331 -4.830134 0.665584 0
M  V30 51 H 3.194404 -3.736313 -0.732576 0
M  V30 52 H 0.300911 -5.427724 -2.158302 0
M  V30 53 H -0.257601 -4.372487 -0.844678 0
M  V30 54 H 1.011647 -3.806589 -2.045554 0
M  V30 55 H 3.122178 -5.450715 -2.175920 0
M  V30 56 H 1.884601 -6.725645 -2.127088 0
M  V30 57 H 3.274326 -6.744632 -0.943891 0
M  V30 58 H 1.881081 -6.579686 1.163805 0
M  V30 59 H 0.720477 -7.123357 -0.038885 0
M  V30 60 H 0.247776 -5.762158 0.968516 0
M  V30 END ATOM
M  V30 BEGIN BOND
M  V30 1 1 1 2
M  V30 2 1 2 3
M  V30 3 1 3 4
M  V30 4 2 4 5
M  V30 5 1 4 6
M  V30 6 1 6 7
M  V30 7 1 7 8
M  V30 8 1 8 9
M  V30 9 1 9 10
M  V30 10 1 8 11
M  V30 11 1 11 12
M  V30 12 2 12 13
M  V30 13 1 13 14
M  V30 14 2 14 15
M  V30 15 1 15 16
M  V30 16 2 16 17
M  V30 17 1 17 18
M  V30 18 2 18 19
M  V30 19 1 19 20
M  V30 20 1 20 21
M  V30 21 1 20 22
M  V30 22 1 20 23
M  V30 23 1 12 24
M  V30 24 2 24 25
M  V30 25 1 24 26
M  V30 26 1 2 27
M  V30 27 1 27 28
M  V30 28 1 28 29
M  V30 29 1 28 30
M  V30 30 1 28 31
M  V30 31 1 26 8
M  V30 32 1 19 14
M  V30 33 1 1 32
M  V30 34 1 1 33
M  V30 35 1 1 34
M  V30 36 1 2 35
M  V30 37 1 3 36
M  V30 38 1 3 37
M  V30 39 1 7 38
M  V30 40 1 7 39
M  V30 41 1 9 40
M  V30 42 1 9 41
M  V30 43 1 10 42
M  V30 44 1 11 43
M  V30 45 1 11 44
M  V30 46 1 13 45
M  V30 47 1 15 46
M  V30 48 1 16 47
M  V30 49 1 17 48
M  V30 50 1 18 49
M  V30 51 1 27 50
M  V30 52 1 27 51
M  V30 53 1 29 52
M  V30 54 1 29 53
M  V30 55 1 29 54
M  V30 56 1 30 55
M  V30 57 1 30 56
M  V30 58 1 30 57
M  V30 59 1 31 58
M  V30 60 1 31 59
M  V30 61 1 31 60
M  V30 END BOND
M  V30 END CTAB
M  END
>  <Dataset>  (147) 
ChEMBL_Kinases

>  <Ligand_Instance>  (147) 
nan

>  <PDB_ID>  (147) 
nan

>  <Standardized_SMILES>  (147) 
CC(CC(=O)OCC1(CO)C/C(=C/c2ccccc2C(F)(F)F)C(=O)O1)CC(C)(C)C

>  <Name>  (147) 
nan

>  <Pocket>  (147) 
nan

>  <ATP_Site>  (147) 
nan

>  <Peripheral>  (147) 
nan

>  <Num_H_Atoms_ProtBoundConf>  (147) 
nan

>  <Num_Resolved_Atoms>  (147) 
nan

>  <Num_Not_Resolved_Atoms>  (147) 
nan

$$$$
CHEMBL3732988
     RDKit          3D

  0  0  0  0  0  0  0  0  0  0999 V3000
M  V30 BEGIN CTAB
M  V30 COUNTS 45 48 0 0 0
M  V30 BEGIN ATOM
M  V30 1 C -1.105094 -4.088082 -0.912472 0
M  V30 2 C 0.358054 -3.964253 -0.545154 0 CFG=1
M  V30 3 N 1.153083 -4.614776 -1.558440 0
M  V30 4 C 0.763508 -2.528150 -0.470535 0
M  V30 5 N 0.049805 -1.731823 0.496599 0
M  V30 6 C 0.350701 -0.347927 0.653790 0
M  V30 7 N 1.315417 0.122163 -0.142533 0
M  V30 8 C 1.791281 1.353128 -0.205271 0
M  V30 9 C 2.840430 1.789589 -1.096084 0
M  V30 10 C 3.261837 3.094966 -1.080375 0
M  V30 11 C 4.268820 3.462539 -1.952341 0
M  V30 12 N 4.821625 2.568994 -2.793056 0
M  V30 13 C 4.424359 1.283053 -2.826157 0
M  V30 14 C 3.416550 0.888557 -1.962276 0
M  V30 15 N 1.215180 2.212936 0.647092 0
M  V30 16 C 0.265443 1.767302 1.436685 0
M  V30 17 S -0.634917 2.724457 2.643136 0
M  V30 18 C -1.686648 1.328652 3.219918 0
M  V30 19 C -1.263914 0.261200 2.448762 0
M  V30 20 C -0.266941 0.496640 1.541948 0
M  V30 21 C -2.098398 -0.863617 2.901981 0
M  V30 22 C -1.859438 -0.992179 4.418280 0
M  V30 23 C -2.735945 0.060934 5.066867 0
M  V30 24 C -2.728725 1.341239 4.257943 0
M  V30 25 H -1.612455 -3.106954 -1.018653 0
M  V30 26 H -1.222489 -4.714786 -1.802099 0
M  V30 27 H -1.622680 -4.594203 -0.073402 0
M  V30 28 H 0.575800 -4.505446 0.417348 0
M  V30 29 H 1.285726 -5.623095 -1.320165 0
M  V30 30 H 0.684359 -4.590076 -2.498269 0
M  V30 31 H 0.613130 -2.111536 -1.508307 0
M  V30 32 H 1.868931 -2.465301 -0.318410 0
M  V30 33 H -0.586463 -2.424063 0.899167 0
M  V30 34 H 2.814251 3.806095 -0.403760 0
M  V30 35 H 4.614569 4.482953 -1.956166 0
M  V30 36 H 4.931523 0.621912 -3.545039 0
M  V30 37 H 3.140360 -0.144467 -2.031249 0
M  V30 38 H -3.182578 -0.526571 2.811393 0
M  V30 39 H -1.964723 -1.818821 2.412913 0
M  V30 40 H -2.198422 -1.976426 4.797820 0
M  V30 41 H -0.801484 -0.770829 4.615896 0
M  V30 42 H -3.754874 -0.372789 5.145830 0
M  V30 43 H -2.359598 0.198560 6.101494 0
M  V30 44 H -3.738683 1.469625 3.828428 0
M  V30 45 H -2.571438 2.167670 4.977072 0
M  V30 END ATOM
M  V30 BEGIN BOND
M  V30 1 1 1 2
M  V30 2 1 2 3
M  V30 3 1 2 4
M  V30 4 1 4 5
M  V30 5 1 5 6
M  V30 6 2 6 7
M  V30 7 1 7 8
M  V30 8 1 8 9
M  V30 9 2 9 10
M  V30 10 1 10 11
M  V30 11 2 11 12
M  V30 12 1 12 13
M  V30 13 2 13 14
M  V30 14 2 8 15
M  V30 15 1 15 16
M  V30 16 1 16 17
M  V30 17 1 17 18
M  V30 18 2 18 19
M  V30 19 1 19 20
M  V30 20 1 19 21
M  V30 21 1 21 22
M  V30 22 1 22 23
M  V30 23 1 23 24
M  V30 24 1 20 6
M  V30 25 1 14 9
M  V30 26 2 20 16
M  V30 27 1 24 18
M  V30 28 1 1 25
M  V30 29 1 1 26
M  V30 30 1 1 27
M  V30 31 1 2 28 CFG=1
M  V30 32 1 3 29
M  V30 33 1 3 30
M  V30 34 1 4 31
M  V30 35 1 4 32
M  V30 36 1 5 33
M  V30 37 1 10 34
M  V30 38 1 11 35
M  V30 39 1 13 36
M  V30 40 1 14 37
M  V30 41 1 21 38
M  V30 42 1 21 39
M  V30 43 1 22 40
M  V30 44 1 22 41
M  V30 45 1 23 42
M  V30 46 1 23 43
M  V30 47 1 24 44
M  V30 48 1 24 45
M  V30 END BOND
M  V30 END CTAB
M  END
>  <Dataset>  (148) 
ChEMBL_Kinases

>  <Ligand_Instance>  (148) 
nan

>  <PDB_ID>  (148) 
nan

>  <Standardized_SMILES>  (148) 
C[C@@H](N)CNc1nc(-c2ccncc2)nc2sc3c(c12)CCCC3

>  <Name>  (148) 
nan

>  <Pocket>  (148) 
nan

>  <ATP_Site>  (148) 
nan

>  <Peripheral>  (148) 
nan

>  <Num_H_Atoms_ProtBoundConf>  (148) 
nan

>  <Num_Resolved_Atoms>  (148) 
nan

>  <Num_Not_Resolved_Atoms>  (148) 
nan

$$$$
CHEMBL517068
     RDKit          3D

  0  0  0  0  0  0  0  0  0  0999 V3000
M  V30 BEGIN CTAB
M  V30 COUNTS 40 43 0 0 0
M  V30 BEGIN ATOM
M  V30 1 C 5.007973 -4.336760 3.069662 0
M  V30 2 C 3.739554 -3.723526 2.606572 0
M  V30 3 O 2.653743 -4.323892 2.803305 0
M  V30 4 N 3.682230 -2.470477 1.939670 0
M  V30 5 C 2.507717 -1.823663 1.469750 0
M  V30 6 N 2.484677 -0.632902 0.840657 0
M  V30 7 C 1.212380 -0.320700 0.536601 0
M  V30 8 C 0.881460 0.906298 -0.143730 0
M  V30 9 C 0.278005 0.729706 -1.373896 0
M  V30 10 C -0.108910 1.799243 -2.170050 0
M  V30 11 C 0.136801 3.081551 -1.676636 0
M  V30 12 F -0.228146 4.160547 -2.427824 0
M  V30 13 C 0.747813 3.247635 -0.430987 0
M  V30 14 C 1.010152 4.617082 0.092821 0
M  V30 15 N 1.111142 2.168636 0.317094 0
M  V30 16 C 0.403430 -1.348421 0.988418 0
M  V30 17 C -1.052014 -1.379998 0.845593 0
M  V30 18 C -1.615562 -2.398578 0.095095 0
M  V30 19 C -3.009516 -2.421620 -0.035833 0
M  V30 20 C -3.684435 -1.403372 0.612154 0
M  V30 21 N -5.023695 -1.239213 0.615093 0
M  V30 22 C -5.289533 -0.133300 1.357718 0
M  V30 23 N -4.103550 0.343763 1.785422 0
M  V30 24 N -3.127597 -0.430013 1.330892 0
M  V30 25 C -1.791369 -0.384394 1.472676 0
M  V30 26 N 1.234380 -2.244231 1.551085 0
M  V30 27 H 4.846047 -5.434498 3.165692 0
M  V30 28 H 5.830664 -4.222940 2.321751 0
M  V30 29 H 5.327304 -3.975885 4.065823 0
M  V30 30 H 4.614707 -2.036501 1.813471 0
M  V30 31 H 0.048804 -0.224138 -1.835100 0
M  V30 32 H -0.585675 1.699271 -3.141481 0
M  V30 33 H 0.454815 5.355355 -0.523003 0
M  V30 34 H 2.090848 4.903847 -0.027903 0
M  V30 35 H 0.659449 4.738312 1.137921 0
M  V30 36 H -1.000563 -3.156256 -0.377393 0
M  V30 37 H -3.506757 -3.192246 -0.609345 0
M  V30 38 H -6.213986 0.382176 1.637562 0
M  V30 39 H -1.284412 0.380934 2.043231 0
M  V30 40 H 0.865103 -3.105276 1.963282 0
M  V30 END ATOM
M  V30 BEGIN BOND
M  V30 1 1 1 2
M  V30 2 2 2 3
M  V30 3 1 2 4
M  V30 4 1 4 5
M  V30 5 2 5 6
M  V30 6 1 6 7
M  V30 7 1 7 8
M  V30 8 2 8 9
M  V30 9 1 9 10
M  V30 10 2 10 11
M  V30 11 1 11 12
M  V30 12 1 11 13
M  V30 13 1 13 14
M  V30 14 2 13 15
M  V30 15 2 7 16
M  V30 16 1 16 17
M  V30 17 1 17 18
M  V30 18 2 18 19
M  V30 19 1 19 20
M  V30 20 2 20 21
M  V30 21 1 21 22
M  V30 22 2 22 23
M  V30 23 1 23 24
M  V30 24 1 24 25
M  V30 25 1 16 26
M  V30 26 1 26 5
M  V30 27 1 15 8
M  V30 28 2 25 17
M  V30 29 1 24 20
M  V30 30 1 1 27
M  V30 31 1 1 28
M  V30 32 1 1 29
M  V30 33 1 4 30
M  V30 34 1 9 31
M  V30 35 1 10 32
M  V30 36 1 14 33
M  V30 37 1 14 34
M  V30 38 1 14 35
M  V30 39 1 18 36
M  V30 40 1 19 37
M  V30 41 1 22 38
M  V30 42 1 25 39
M  V30 43 1 26 40
M  V30 END BOND
M  V30 END CTAB
M  END
>  <Dataset>  (149) 
ChEMBL_Kinases

>  <Ligand_Instance>  (149) 
nan

>  <PDB_ID>  (149) 
nan

>  <Standardized_SMILES>  (149) 
CC(=O)Nc1nc(-c2ccc(F)c(C)n2)c(-c2ccc3ncnn3c2)[nH]1

>  <Name>  (149) 
nan

>  <Pocket>  (149) 
nan

>  <ATP_Site>  (149) 
nan

>  <Peripheral>  (149) 
nan

>  <Num_H_Atoms_ProtBoundConf>  (149) 
nan

>  <Num_Resolved_Atoms>  (149) 
nan

>  <Num_Not_Resolved_Atoms>  (149) 
nan

$$$$
CHEMBL516640
     RDKit          3D

  0  0  0  0  0  0  0  0  0  0999 V3000
M  V30 BEGIN CTAB
M  V30 COUNTS 49 53 0 0 0
M  V30 BEGIN ATOM
M  V30 1 C 2.032176 -5.053669 3.354824 0
M  V30 2 O 1.554514 -4.865967 2.055217 0
M  V30 3 C 1.908737 -3.802761 1.235527 0
M  V30 4 C 2.770081 -2.780586 1.561750 0
M  V30 5 C 3.021524 -1.786851 0.626046 0
M  V30 6 C 2.417660 -1.806437 -0.636201 0
M  V30 7 N 2.842759 -0.681330 -1.395742 0
M  V30 8 C 3.802137 -0.555046 -2.357928 0
M  V30 9 N 3.853213 0.711175 -2.798903 0
M  V30 10 C 2.933381 1.463017 -2.146554 0
M  V30 11 C 2.535158 2.784656 -2.172183 0
M  V30 12 C 1.516403 3.257805 -1.338451 0
M  V30 13 C 0.900146 2.375334 -0.472613 0
M  V30 14 C -0.169057 2.789044 0.429569 0
M  V30 15 N -0.688288 4.022835 0.557198 0
M  V30 16 N -1.636077 3.984639 1.479063 0
M  V30 17 C -1.710520 2.703334 1.935864 0
M  V30 18 S -2.933463 2.402763 3.200925 0
M  V30 19 C -2.918213 0.660225 3.701348 0
M  V30 20 C -3.377717 -0.153676 2.555560 0
M  V30 21 C -4.762279 -0.347388 2.497332 0
M  V30 22 C -5.351449 -1.074682 1.508196 0
M  V30 23 C -4.570283 -1.649091 0.518780 0
M  V30 24 C -3.201728 -1.466357 0.563416 0
M  V30 25 C -2.363844 -2.057928 -0.460950 0
M  V30 26 N -1.710714 -2.541315 -1.283845 0
M  V30 27 C -2.614408 -0.729899 1.566619 0
M  V30 28 O -0.802250 2.038414 1.263454 0
M  V30 29 C 1.329550 1.062614 -0.479663 0
M  V30 30 C 2.331713 0.561403 -1.288690 0
M  V30 31 C 1.557259 -2.839737 -0.943851 0
M  V30 32 C 1.317016 -3.820057 -0.004137 0
M  V30 33 H 2.292033 -4.097570 3.828819 0
M  V30 34 H 2.926955 -5.732196 3.353141 0
M  V30 35 H 1.240395 -5.498633 4.014437 0
M  V30 36 H 3.211954 -2.807744 2.545709 0
M  V30 37 H 3.721181 -1.036589 1.009727 0
M  V30 38 H 4.383515 -1.430044 -2.646767 0
M  V30 39 H 3.042855 3.436713 -2.862227 0
M  V30 40 H 1.214728 4.291680 -1.368569 0
M  V30 41 H -3.591705 0.563599 4.578283 0
M  V30 42 H -1.890734 0.348238 4.037915 0
M  V30 43 H -5.470001 0.059924 3.224465 0
M  V30 44 H -6.401948 -1.251222 1.419653 0
M  V30 45 H -4.944993 -2.237586 -0.299311 0
M  V30 46 H -1.568938 -0.564081 1.642807 0
M  V30 47 H 0.829763 0.379902 0.212231 0
M  V30 48 H 1.161704 -2.736688 -1.943457 0
M  V30 49 H 0.623000 -4.599635 -0.332230 0
M  V30 END ATOM
M  V30 BEGIN BOND
M  V30 1 1 1 2
M  V30 2 1 2 3
M  V30 3 2 3 4
M  V30 4 1 4 5
M  V30 5 2 5 6
M  V30 6 1 6 7
M  V30 7 1 7 8
M  V30 8 2 8 9
M  V30 9 1 9 10
M  V30 10 2 10 11
M  V30 11 1 11 12
M  V30 12 2 12 13
M  V30 13 1 13 14
M  V30 14 2 14 15
M  V30 15 1 15 16
M  V30 16 2 16 17
M  V30 17 1 17 18
M  V30 18 1 18 19
M  V30 19 1 19 20
M  V30 20 2 20 21
M  V30 21 1 21 22
M  V30 22 2 22 23
M  V30 23 1 23 24
M  V30 24 1 24 25
M  V30 25 3 25 26
M  V30 26 2 24 27
M  V30 27 1 17 28
M  V30 28 1 13 29
M  V30 29 2 29 30
M  V30 30 1 6 31
M  V30 31 2 31 32
M  V30 32 1 32 3
M  V30 33 1 30 7
M  V30 34 1 30 10
M  V30 35 1 28 14
M  V30 36 1 27 20
M  V30 37 1 1 33
M  V30 38 1 1 34
M  V30 39 1 1 35
M  V30 40 1 4 36
M  V30 41 1 5 37
M  V30 42 1 8 38
M  V30 43 1 11 39
M  V30 44 1 12 40
M  V30 45 1 19 41
M  V30 46 1 19 42
M  V30 47 1 21 43
M  V30 48 1 22 44
M  V30 49 1 23 45
M  V30 50 1 27 46
M  V30 51 1 29 47
M  V30 52 1 31 48
M  V30 53 1 32 49
M  V30 END BOND
M  V30 END CTAB
M  END
>  <Dataset>  (150) 
ChEMBL_Kinases

>  <Ligand_Instance>  (150) 
nan

>  <PDB_ID>  (150) 
nan

>  <Standardized_SMILES>  (150) 
COc1ccc(-n2cnc3ccc(-c4nnc(SCc5cccc(C#N)c5)o4)cc32)cc1

>  <Name>  (150) 
nan

>  <Pocket>  (150) 
nan

>  <ATP_Site>  (150) 
nan

>  <Peripheral>  (150) 
nan

>  <Num_H_Atoms_ProtBoundConf>  (150) 
nan

>  <Num_Resolved_Atoms>  (150) 
nan

>  <Num_Not_Resolved_Atoms>  (150) 
nan

$$$$
CHEMBL516651
     RDKit          3D

  0  0  0  0  0  0  0  0  0  0999 V3000
M  V30 BEGIN CTAB
M  V30 COUNTS 59 59 0 0 0
M  V30 BEGIN ATOM
M  V30 1 C 2.676320 -4.346765 5.540217 0
M  V30 2 C 1.343678 -4.154297 4.875439 0
M  V30 3 C 1.026683 -2.791994 4.399942 0
M  V30 4 C 1.856847 -2.167728 3.353515 0
M  V30 5 C 3.298816 -1.977505 3.654099 0
M  V30 6 C 4.030130 -1.278038 2.502749 0
M  V30 7 C 3.453603 0.052401 2.236901 0
M  V30 8 C 2.887402 0.592817 1.171281 0
M  V30 9 C 2.292878 1.914101 0.844557 0
M  V30 10 C 1.271126 1.511465 -0.216251 0
M  V30 11 C 1.144282 2.545116 -1.308034 0
M  V30 12 O 0.202109 2.050210 -2.207533 0
M  V30 13 C -0.048940 1.395028 0.507653 0
M  V30 14 O -1.092416 0.982450 -0.338613 0
M  V30 15 C -2.342154 0.850152 0.251566 0
M  V30 16 O -2.134834 1.163988 1.447552 0
M  V30 17 C -3.558586 0.432833 -0.452977 0
M  V30 18 C -3.206754 0.181573 -1.909203 0
M  V30 19 C -4.424321 -0.249751 -2.675307 0
M  V30 20 C -4.046104 -0.487746 -4.105858 0
M  V30 21 C -2.992909 -1.560041 -4.275949 0
M  V30 22 C -3.456458 -2.874888 -3.737027 0
M  V30 23 O 1.692869 0.311272 -0.784560 0
M  V30 24 C 2.764652 -0.214358 -0.036044 0
M  V30 25 O 3.459331 -1.195556 -0.379447 0
M  V30 26 H 2.509385 -4.968250 6.473698 0
M  V30 27 H 3.389641 -4.942547 4.898849 0
M  V30 28 H 3.101018 -3.407180 5.923226 0
M  V30 29 H 0.552300 -4.415211 5.640546 0
M  V30 30 H 1.260915 -4.931200 4.063236 0
M  V30 31 H -0.065189 -2.816079 4.083476 0
M  V30 32 H 1.040780 -2.110493 5.299262 0
M  V30 33 H 1.723194 -2.807207 2.419629 0
M  V30 34 H 1.356734 -1.204428 3.046053 0
M  V30 35 H 3.814237 -2.970403 3.750731 0
M  V30 36 H 3.444599 -1.431847 4.598123 0
M  V30 37 H 5.087764 -1.121841 2.867982 0
M  V30 38 H 4.129508 -1.934943 1.634366 0
M  V30 39 H 3.505218 0.735218 3.102848 0
M  V30 40 H 1.797700 2.403655 1.701841 0
M  V30 41 H 3.086877 2.559650 0.400293 0
M  V30 42 H 0.898559 3.554431 -0.925835 0
M  V30 43 H 2.114428 2.531597 -1.862683 0
M  V30 44 H -0.207413 2.736866 -2.772231 0
M  V30 45 H -0.327990 2.349225 0.974790 0
M  V30 46 H 0.000284 0.648897 1.325149 0
M  V30 47 H -4.308638 1.237742 -0.444663 0
M  V30 48 H -3.912260 -0.497056 0.027306 0
M  V30 49 H -2.388470 -0.578646 -1.943494 0
M  V30 50 H -2.813055 1.108031 -2.361333 0
M  V30 51 H -5.154312 0.568869 -2.656243 0
M  V30 52 H -4.891413 -1.155175 -2.234723 0
M  V30 53 H -3.658741 0.474454 -4.511357 0
M  V30 54 H -4.949591 -0.715253 -4.710724 0
M  V30 55 H -2.844939 -1.700759 -5.376246 0
M  V30 56 H -2.040483 -1.222416 -3.841870 0
M  V30 57 H -3.669735 -2.840778 -2.658932 0
M  V30 58 H -4.337615 -3.205128 -4.332727 0
M  V30 59 H -2.671679 -3.631470 -3.947466 0
M  V30 END ATOM
M  V30 BEGIN BOND
M  V30 1 1 1 2
M  V30 2 1 2 3
M  V30 3 1 3 4
M  V30 4 1 4 5
M  V30 5 1 5 6
M  V30 6 1 6 7
M  V30 7 2 7 8
M  V30 8 1 8 9
M  V30 9 1 9 10
M  V30 10 1 10 11
M  V30 11 1 11 12
M  V30 12 1 10 13
M  V30 13 1 13 14
M  V30 14 1 14 15
M  V30 15 2 15 16
M  V30 16 1 15 17
M  V30 17 1 17 18
M  V30 18 1 18 19
M  V30 19 1 19 20
M  V30 20 1 20 21
M  V30 21 1 21 22
M  V30 22 1 10 23
M  V30 23 1 23 24
M  V30 24 2 24 25
M  V30 25 1 24 8
M  V30 26 1 1 26
M  V30 27 1 1 27
M  V30 28 1 1 28
M  V30 29 1 2 29
M  V30 30 1 2 30
M  V30 31 1 3 31
M  V30 32 1 3 32
M  V30 33 1 4 33
M  V30 34 1 4 34
M  V30 35 1 5 35
M  V30 36 1 5 36
M  V30 37 1 6 37
M  V30 38 1 6 38
M  V30 39 1 7 39
M  V30 40 1 9 40
M  V30 41 1 9 41
M  V30 42 1 11 42
M  V30 43 1 11 43
M  V30 44 1 12 44
M  V30 45 1 13 45
M  V30 46 1 13 46
M  V30 47 1 17 47
M  V30 48 1 17 48
M  V30 49 1 18 49
M  V30 50 1 18 50
M  V30 51 1 19 51
M  V30 52 1 19 52
M  V30 53 1 20 53
M  V30 54 1 20 54
M  V30 55 1 21 55
M  V30 56 1 21 56
M  V30 57 1 22 57
M  V30 58 1 22 58
M  V30 59 1 22 59
M  V30 END BOND
M  V30 END CTAB
M  END
>  <Dataset>  (151) 
ChEMBL_Kinases

>  <Ligand_Instance>  (151) 
nan

>  <PDB_ID>  (151) 
nan

>  <Standardized_SMILES>  (151) 
CCCCCC/C=C1/CC(CO)(COC(=O)CCCCCC)OC1=O

>  <Name>  (151) 
nan

>  <Pocket>  (151) 
nan

>  <ATP_Site>  (151) 
nan

>  <Peripheral>  (151) 
nan

>  <Num_H_Atoms_ProtBoundConf>  (151) 
nan

>  <Num_Resolved_Atoms>  (151) 
nan

>  <Num_Not_Resolved_Atoms>  (151) 
nan

$$$$
CHEMBL516760
     RDKit          3D

  0  0  0  0  0  0  0  0  0  0999 V3000
M  V30 BEGIN CTAB
M  V30 COUNTS 34 36 0 0 0
M  V30 BEGIN ATOM
M  V30 1 N -1.392114 -4.526449 1.701975 0
M  V30 2 C -0.394773 -3.532469 1.899604 0
M  V30 3 O 0.820100 -3.553055 2.241862 0
M  V30 4 N -0.841681 -2.224787 1.666507 0
M  V30 5 C 0.075767 -1.064194 1.828005 0
M  V30 6 N 0.744991 -0.582457 1.069922 0
M  V30 7 C 1.581443 0.450145 1.155897 0
M  V30 8 C 2.404798 0.980667 0.074012 0
M  V30 9 C 2.414614 0.460747 -1.202255 0
M  V30 10 C 3.181075 0.939248 -2.246178 0
M  V30 11 C 4.004931 2.020416 -2.007463 0
M  V30 12 F 4.756890 2.489436 -3.032657 0
M  V30 13 C 4.046538 2.592031 -0.754204 0
M  V30 14 C 3.250417 2.056276 0.237121 0
M  V30 15 C 1.605201 1.011164 2.434775 0
M  V30 16 S 0.392630 -0.035914 3.390093 0
M  V30 17 C -2.121029 -1.720976 1.266335 0
M  V30 18 C -2.302248 -1.615501 -0.116942 0
M  V30 19 Cl -1.052445 -2.068359 -1.255251 0
M  V30 20 C -3.520312 -1.133800 -0.576644 0
M  V30 21 C -4.530563 -0.765727 0.265021 0
M  V30 22 C -4.313669 -0.884287 1.621955 0
M  V30 23 C -3.123089 -1.357325 2.157061 0
M  V30 24 Cl -2.798763 -1.526129 3.855964 0
M  V30 25 H -1.580909 -5.290865 0.995167 0
M  V30 26 H -2.192032 -4.590112 2.395594 0
M  V30 27 H 1.772347 -0.397684 -1.425726 0
M  V30 28 H 3.120078 0.462350 -3.216583 0
M  V30 29 H 4.688424 3.436983 -0.561985 0
M  V30 30 H 3.325722 2.546240 1.197956 0
M  V30 31 H 2.238660 1.914461 2.791072 0
M  V30 32 H -3.693537 -1.039726 -1.636434 0
M  V30 33 H -5.495153 -0.384432 -0.092438 0
M  V30 34 H -5.073916 -0.609399 2.337105 0
M  V30 END ATOM
M  V30 BEGIN BOND
M  V30 1 1 1 2
M  V30 2 2 2 3
M  V30 3 1 2 4
M  V30 4 1 4 5
M  V30 5 2 5 6
M  V30 6 1 6 7
M  V30 7 1 7 8
M  V30 8 2 8 9
M  V30 9 1 9 10
M  V30 10 2 10 11
M  V30 11 1 11 12
M  V30 12 1 11 13
M  V30 13 2 13 14
M  V30 14 2 7 15
M  V30 15 1 15 16
M  V30 16 1 4 17
M  V30 17 2 17 18
M  V30 18 1 18 19
M  V30 19 1 18 20
M  V30 20 2 20 21
M  V30 21 1 21 22
M  V30 22 2 22 23
M  V30 23 1 23 24
M  V30 24 1 16 5
M  V30 25 1 23 17
M  V30 26 1 14 8
M  V30 27 1 1 25
M  V30 28 1 1 26
M  V30 29 1 9 27
M  V30 30 1 10 28
M  V30 31 1 13 29
M  V30 32 1 14 30
M  V30 33 1 15 31
M  V30 34 1 20 32
M  V30 35 1 21 33
M  V30 36 1 22 34
M  V30 END BOND
M  V30 END CTAB
M  END
>  <Dataset>  (152) 
ChEMBL_Kinases

>  <Ligand_Instance>  (152) 
nan

>  <PDB_ID>  (152) 
nan

>  <Standardized_SMILES>  (152) 
NC(=O)N(c1nc(-c2ccc(F)cc2)cs1)c1c(Cl)cccc1Cl

>  <Name>  (152) 
nan

>  <Pocket>  (152) 
nan

>  <ATP_Site>  (152) 
nan

>  <Peripheral>  (152) 
nan

>  <Num_H_Atoms_ProtBoundConf>  (152) 
nan

>  <Num_Resolved_Atoms>  (152) 
nan

>  <Num_Not_Resolved_Atoms>  (152) 
nan

$$$$
CHEMBL516802
     RDKit          3D

  0  0  0  0  0  0  0  0  0  0999 V3000
M  V30 BEGIN CTAB
M  V30 COUNTS 53 57 0 0 0
M  V30 BEGIN ATOM
M  V30 1 O -2.669881 -5.941773 -0.363052 0
M  V30 2 C -2.345202 -5.096644 -1.270996 0
M  V30 3 C -1.432806 -4.082199 -0.757460 0
M  V30 4 C -2.046693 -3.031985 -0.114434 0
M  V30 5 C -1.357229 -1.971169 0.444711 0
M  V30 6 C 0.030784 -1.963770 0.352739 0
M  V30 7 C 0.801976 -0.862851 0.931445 0
M  V30 8 C 2.111735 -0.705616 0.947112 0
M  V30 9 C 2.865481 0.395521 1.527939 0
M  V30 10 C 2.256249 1.454840 2.144920 0
M  V30 11 C 3.032303 2.473187 2.687941 0
M  V30 12 C 2.438501 3.629700 3.354755 0
M  V30 13 C 1.080987 3.843998 3.503548 0
M  V30 14 C 0.852556 5.032964 4.179308 0
M  V30 15 C -0.327695 5.676054 4.564560 0
M  V30 16 O -1.437541 5.119546 4.272824 0
M  V30 17 N -0.178543 6.853191 5.223594 0
M  V30 18 C 1.028682 7.352861 5.480601 0
M  V30 19 N 2.156340 6.713672 5.098953 0
M  V30 20 C 2.129265 5.538706 4.438159 0
M  V30 21 N 3.033103 4.683860 3.936608 0
M  V30 22 C 4.403826 2.386210 2.588730 0
M  V30 23 C 4.999547 1.310641 1.962554 0
M  V30 24 N 4.208984 0.350921 1.453319 0
M  V30 25 C 0.640030 -3.015971 -0.291086 0
M  V30 26 C -0.053994 -4.074302 -0.848342 0
M  V30 27 N -2.937460 -5.350173 -2.519472 0
M  V30 28 C -3.807191 -6.506140 -2.587492 0
M  V30 29 C -3.350658 -7.343018 -3.787001 0
M  V30 30 O -3.115801 -6.589916 -4.911922 0
M  V30 31 C -3.509217 -5.261560 -4.809092 0
M  V30 32 C -2.739052 -4.555227 -3.704612 0
M  V30 33 H -3.139995 -2.966644 -0.000958 0
M  V30 34 H -1.878728 -1.157152 0.947500 0
M  V30 35 H 0.235703 -0.060634 1.415223 0
M  V30 36 H 2.630009 -1.527606 0.455368 0
M  V30 37 H 1.185180 1.534779 2.229895 0
M  V30 38 H 0.326029 3.155411 3.131319 0
M  V30 39 H -1.111329 7.276150 5.480743 0
M  V30 40 H 1.054836 8.292939 6.010875 0
M  V30 41 H 4.077782 4.817331 3.991506 0
M  V30 42 H 5.022446 3.166845 3.002118 0
M  V30 43 H 6.085250 1.204064 1.862648 0
M  V30 44 H 1.701600 -3.092421 -0.409291 0
M  V30 45 H 0.377260 -4.919345 -1.362793 0
M  V30 46 H -4.875843 -6.218607 -2.753435 0
M  V30 47 H -3.805335 -7.106704 -1.667238 0
M  V30 48 H -2.359271 -7.796980 -3.508094 0
M  V30 49 H -4.069133 -8.164415 -3.974065 0
M  V30 50 H -3.193801 -4.773168 -5.771159 0
M  V30 51 H -4.600708 -5.129980 -4.681104 0
M  V30 52 H -3.162303 -3.548135 -3.521273 0
M  V30 53 H -1.674970 -4.463269 -3.939541 0
M  V30 END ATOM
M  V30 BEGIN BOND
M  V30 1 2 1 2
M  V30 2 1 2 3
M  V30 3 2 3 4
M  V30 4 1 4 5
M  V30 5 2 5 6
M  V30 6 1 6 7
M  V30 7 2 7 8
M  V30 8 1 8 9
M  V30 9 2 9 10
M  V30 10 1 10 11
M  V30 11 1 11 12
M  V30 12 2 12 13
M  V30 13 1 13 14
M  V30 14 1 14 15
M  V30 15 2 15 16
M  V30 16 1 15 17
M  V30 17 1 17 18
M  V30 18 2 18 19
M  V30 19 1 19 20
M  V30 20 1 20 21
M  V30 21 2 11 22
M  V30 22 1 22 23
M  V30 23 2 23 24
M  V30 24 1 6 25
M  V30 25 2 25 26
M  V30 26 1 2 27
M  V30 27 1 27 28
M  V30 28 1 28 29
M  V30 29 1 29 30
M  V30 30 1 30 31
M  V30 31 1 31 32
M  V30 32 1 26 3
M  V30 33 1 32 27
M  V30 34 1 24 9
M  V30 35 1 21 12
M  V30 36 2 20 14
M  V30 37 1 4 33
M  V30 38 1 5 34
M  V30 39 1 7 35
M  V30 40 1 8 36
M  V30 41 1 10 37
M  V30 42 1 13 38
M  V30 43 1 17 39
M  V30 44 1 18 40
M  V30 45 1 21 41
M  V30 46 1 22 42
M  V30 47 1 23 43
M  V30 48 1 25 44
M  V30 49 1 26 45
M  V30 50 1 28 46
M  V30 51 1 28 47
M  V30 52 1 29 48
M  V30 53 1 29 49
M  V30 54 1 31 50
M  V30 55 1 31 51
M  V30 56 1 32 52
M  V30 57 1 32 53
M  V30 END BOND
M  V30 END CTAB
M  END
>  <Dataset>  (153) 
ChEMBL_Kinases

>  <Ligand_Instance>  (153) 
nan

>  <PDB_ID>  (153) 
nan

>  <Standardized_SMILES>  (153) 
O=C(c1ccc(/C=C/c2cc(-c3cc4c(=O)[nH]cnc4[nH]3)ccn2)cc1)N1CCOCC1

>  <Name>  (153) 
nan

>  <Pocket>  (153) 
nan

>  <ATP_Site>  (153) 
nan

>  <Peripheral>  (153) 
nan

>  <Num_H_Atoms_ProtBoundConf>  (153) 
nan

>  <Num_Resolved_Atoms>  (153) 
nan

>  <Num_Not_Resolved_Atoms>  (153) 
nan

$$$$
CHEMBL516816
     RDKit          3D

  0  0  0  0  0  0  0  0  0  0999 V3000
M  V30 BEGIN CTAB
M  V30 COUNTS 69 73 0 0 0
M  V30 BEGIN ATOM
M  V30 1 C 3.599581 -4.120383 1.975394 0
M  V30 2 O 2.455043 -3.320299 1.774795 0
M  V30 3 C 2.512098 -2.072944 1.133671 0
M  V30 4 C 3.732611 -1.629268 0.691608 0
M  V30 5 C 3.838017 -0.410913 0.056639 0
M  V30 6 C 2.731752 0.381014 -0.146786 0
M  V30 7 N 2.807660 1.627202 -0.798904 0
M  V30 8 C 1.793352 2.623080 -0.958155 0
M  V30 9 C 1.376887 2.831273 -2.394704 0
M  V30 10 N 2.391310 2.477841 -3.332239 0
M  V30 11 C 2.077792 1.470013 -4.274958 0
M  V30 12 C 3.211473 1.134011 -5.215835 0
M  V30 13 C 0.962834 2.012083 -5.182362 0
M  V30 14 C 3.721159 2.593308 -2.878514 0
M  V30 15 C 3.982809 2.135716 -1.461073 0
M  V30 16 C 1.552284 -0.122544 0.318296 0
M  V30 17 C 1.348781 -1.321768 0.961237 0
M  V30 18 N 0.117806 -1.831443 1.436885 0
M  V30 19 C -1.175287 -1.247170 1.375241 0
M  V30 20 N -2.231683 -1.904088 1.884517 0
M  V30 21 C -3.474366 -1.412485 1.860085 0
M  V30 22 N -4.560638 -2.134267 2.407399 0
M  V30 23 C -4.688692 -3.370083 3.085812 0
M  V30 24 C -5.443214 -4.439067 2.596918 0
M  V30 25 C -5.496879 -5.602205 3.352878 0
M  V30 26 C -4.844479 -5.747588 4.553627 0
M  V30 27 C -4.093358 -4.706967 5.058244 0
M  V30 28 F -3.443292 -4.825118 6.236657 0
M  V30 29 C -4.063608 -3.579300 4.288372 0
M  V30 30 C -3.297758 -2.479723 4.815312 0
M  V30 31 N -2.573190 -2.495707 6.016828 0
M  V30 32 O -2.788280 -1.354408 4.903450 0
M  V30 33 C -3.738085 -0.189589 1.303309 0
M  V30 34 C -4.858003 0.608652 1.107852 0
M  V30 35 C -4.445192 1.770288 0.463691 0
M  V30 36 N -3.121442 1.657945 0.286007 0
M  V30 37 C -2.674622 0.500520 0.776629 0
M  V30 38 N -1.461257 -0.057072 0.838694 0
M  V30 39 H 4.195835 -3.579187 2.760966 0
M  V30 40 H 4.202365 -4.279600 1.067407 0
M  V30 41 H 3.247102 -5.082300 2.403568 0
M  V30 42 H 4.609497 -2.270314 0.858777 0
M  V30 43 H 4.821428 -0.155986 -0.245252 0
M  V30 44 H 2.156135 3.590376 -0.509856 0
M  V30 45 H 0.857758 2.407239 -0.404073 0
M  V30 46 H 0.450929 2.254836 -2.625223 0
M  V30 47 H 1.132447 3.903448 -2.529207 0
M  V30 48 H 1.666874 0.539345 -3.830101 0
M  V30 49 H 3.615578 2.056508 -5.673434 0
M  V30 50 H 3.970991 0.461292 -4.787171 0
M  V30 51 H 2.735020 0.547961 -6.052968 0
M  V30 52 H 0.513583 1.122438 -5.670488 0
M  V30 53 H 0.233936 2.598176 -4.613549 0
M  V30 54 H 1.439828 2.584551 -6.004719 0
M  V30 55 H 4.009679 3.664924 -2.939691 0
M  V30 56 H 4.396912 2.082967 -3.602563 0
M  V30 57 H 4.307178 3.017441 -0.828473 0
M  V30 58 H 4.858248 1.455388 -1.406375 0
M  V30 59 H 0.685121 0.497693 0.157648 0
M  V30 60 H 0.162727 -2.779798 1.904491 0
M  V30 61 H -5.541585 -1.785644 2.366965 0
M  V30 62 H -5.948185 -4.290010 1.641234 0
M  V30 63 H -6.111231 -6.347908 2.862423 0
M  V30 64 H -4.943887 -6.692827 5.072982 0
M  V30 65 H -2.113485 -3.031935 6.779502 0
M  V30 66 H -2.112671 -3.028796 6.780871 0
M  V30 67 H -5.870261 0.344579 1.415637 0
M  V30 68 H -5.172555 2.535552 0.215068 0
M  V30 69 H -2.586401 2.405266 -0.176590 0
M  V30 END ATOM
M  V30 BEGIN BOND
M  V30 1 1 1 2
M  V30 2 1 2 3
M  V30 3 2 3 4
M  V30 4 1 4 5
M  V30 5 2 5 6
M  V30 6 1 6 7
M  V30 7 1 7 8
M  V30 8 1 8 9
M  V30 9 1 9 10
M  V30 10 1 10 11
M  V30 11 1 11 12
M  V30 12 1 11 13
M  V30 13 1 10 14
M  V30 14 1 14 15
M  V30 15 1 6 16
M  V30 16 2 16 17
M  V30 17 1 17 18
M  V30 18 1 18 19
M  V30 19 2 19 20
M  V30 20 1 20 21
M  V30 21 1 21 22
M  V30 22 1 22 23
M  V30 23 2 23 24
M  V30 24 1 24 25
M  V30 25 2 25 26
M  V30 26 1 26 27
M  V30 27 1 27 28
M  V30 28 2 27 29
M  V30 29 1 29 30
M  V30 30 1 30 31
M  V30 31 2 30 32
M  V30 32 2 21 33
M  V30 33 1 33 34
M  V30 34 2 34 35
M  V30 35 1 35 36
M  V30 36 1 36 37
M  V30 37 2 37 38
M  V30 38 1 17 3
M  V30 39 1 38 19
M  V30 40 1 15 7
M  V30 41 1 29 23
M  V30 42 1 37 33
M  V30 43 1 1 39
M  V30 44 1 1 40
M  V30 45 1 1 41
M  V30 46 1 4 42
M  V30 47 1 5 43
M  V30 48 1 8 44
M  V30 49 1 8 45
M  V30 50 1 9 46
M  V30 51 1 9 47
M  V30 52 1 11 48
M  V30 53 1 12 49
M  V30 54 1 12 50
M  V30 55 1 12 51
M  V30 56 1 13 52
M  V30 57 1 13 53
M  V30 58 1 13 54
M  V30 59 1 14 55
M  V30 60 1 14 56
M  V30 61 1 15 57
M  V30 62 1 15 58
M  V30 63 1 16 59
M  V30 64 1 18 60
M  V30 65 1 22 61
M  V30 66 1 24 62
M  V30 67 1 25 63
M  V30 68 1 26 64
M  V30 69 1 31 65
M  V30 70 1 31 66
M  V30 71 1 34 67
M  V30 72 1 35 68
M  V30 73 1 36 69
M  V30 END BOND
M  V30 END CTAB
M  END
>  <Dataset>  (154) 
ChEMBL_Kinases

>  <Ligand_Instance>  (154) 
nan

>  <PDB_ID>  (154) 
nan

>  <Standardized_SMILES>  (154) 
COc1ccc(N2CCN(C(C)C)CC2)cc1Nc1nc(Nc2cccc(F)c2C(N)=O)c2cc[nH]c2n1

>  <Name>  (154) 
nan

>  <Pocket>  (154) 
nan

>  <ATP_Site>  (154) 
nan

>  <Peripheral>  (154) 
nan

>  <Num_H_Atoms_ProtBoundConf>  (154) 
nan

>  <Num_Resolved_Atoms>  (154) 
nan

>  <Num_Not_Resolved_Atoms>  (154) 
nan

$$$$
CHEMBL3732984
     RDKit          3D

  0  0  0  0  0  0  0  0  0  0999 V3000
M  V30 BEGIN CTAB
M  V30 COUNTS 52 56 0 0 0
M  V30 BEGIN ATOM
M  V30 1 C 1.534260 -6.424410 2.432468 0
M  V30 2 C 1.089540 -5.218319 1.909856 0
M  V30 3 C -0.282111 -5.077549 1.860174 0
M  V30 4 C -0.821511 -3.837739 1.323657 0
M  V30 5 N -0.081776 -2.862432 0.889681 0
M  V30 6 C -0.394475 -1.667891 0.370909 0
M  V30 7 N 0.615997 -0.717470 -0.027262 0
M  V30 8 C 1.607109 0.214688 -0.417782 0
M  V30 9 C 2.573518 0.607790 0.694454 0 CFG=1
M  V30 10 C 3.548870 1.586742 0.128737 0
M  V30 11 C 4.372787 2.196689 1.267466 0
M  V30 12 C 3.505444 2.855365 2.293182 0
M  V30 13 C 2.068036 2.635980 1.917386 0
M  V30 14 N 1.854648 1.202500 1.792418 0
M  V30 15 C -1.741248 -1.385688 0.260691 0
M  V30 16 C -2.370068 -0.288859 -0.214035 0
M  V30 17 C -3.796972 -0.268203 -0.207180 0
M  V30 18 S -4.214519 -1.846213 0.488506 0
M  V30 19 C -2.550890 -2.389891 0.708584 0
M  V30 20 N -2.106432 -3.536895 1.205647 0
M  V30 21 C -4.636856 0.852344 -0.680334 0
M  V30 22 C -4.243232 1.308215 -2.064968 0
M  V30 23 C -2.759728 1.186571 -2.166446 0
M  V30 24 C -2.081658 1.029409 -0.813099 0
M  V30 25 C -1.216991 -6.028568 2.283411 0
M  V30 26 C -0.648299 -7.190394 2.785696 0
M  V30 27 N 0.677478 -7.372583 2.853779 0
M  V30 28 H 2.618869 -6.586130 2.493598 0
M  V30 29 H 1.715666 -4.433221 1.561819 0
M  V30 30 H 1.482615 -1.270409 0.176140 0
M  V30 31 H 1.168799 1.204501 -0.752933 0
M  V30 32 H 2.213327 -0.103199 -1.301133 0
M  V30 33 H 3.144520 -0.288509 1.016226 0
M  V30 34 H 3.124381 2.404038 -0.462333 0
M  V30 35 H 4.310381 1.015029 -0.472136 0
M  V30 36 H 4.934612 1.371164 1.761521 0
M  V30 37 H 5.051251 2.962485 0.839637 0
M  V30 38 H 3.703639 3.956267 2.375961 0
M  V30 39 H 3.644906 2.402671 3.302312 0
M  V30 40 H 1.368319 2.970262 2.732164 0
M  V30 41 H 1.848379 3.113095 0.959604 0
M  V30 42 H 0.836563 0.970975 1.763168 0
M  V30 43 H -5.696036 0.538788 -0.624319 0
M  V30 44 H -4.432796 1.712639 0.005358 0
M  V30 45 H -4.705608 0.580292 -2.764286 0
M  V30 46 H -4.604399 2.342579 -2.241673 0
M  V30 47 H -2.348065 2.102418 -2.654030 0
M  V30 48 H -2.480289 0.341416 -2.813940 0
M  V30 49 H -1.014238 1.143764 -0.988662 0
M  V30 50 H -2.382935 1.845365 -0.122783 0
M  V30 51 H -2.271862 -5.814473 2.199139 0
M  V30 52 H -1.366578 -7.941540 3.119672 0
M  V30 END ATOM
M  V30 BEGIN BOND
M  V30 1 2 1 2
M  V30 2 1 2 3
M  V30 3 1 3 4
M  V30 4 2 4 5
M  V30 5 1 5 6
M  V30 6 1 6 7
M  V30 7 1 7 8
M  V30 8 1 8 9
M  V30 9 1 9 10
M  V30 10 1 10 11
M  V30 11 1 11 12
M  V30 12 1 12 13
M  V30 13 1 13 14
M  V30 14 2 6 15
M  V30 15 1 15 16
M  V30 16 2 16 17
M  V30 17 1 17 18
M  V30 18 1 18 19
M  V30 19 2 19 20
M  V30 20 1 17 21
M  V30 21 1 21 22
M  V30 22 1 22 23
M  V30 23 1 23 24
M  V30 24 2 3 25
M  V30 25 1 25 26
M  V30 26 2 26 27
M  V30 27 1 27 1
M  V30 28 1 20 4
M  V30 29 1 14 9
M  V30 30 1 19 15
M  V30 31 1 24 16
M  V30 32 1 1 28
M  V30 33 1 2 29
M  V30 34 1 7 30
M  V30 35 1 8 31
M  V30 36 1 8 32
M  V30 37 1 9 33 CFG=1
M  V30 38 1 10 34
M  V30 39 1 10 35
M  V30 40 1 11 36
M  V30 41 1 11 37
M  V30 42 1 12 38
M  V30 43 1 12 39
M  V30 44 1 13 40
M  V30 45 1 13 41
M  V30 46 1 14 42
M  V30 47 1 21 43
M  V30 48 1 21 44
M  V30 49 1 22 45
M  V30 50 1 22 46
M  V30 51 1 23 47
M  V30 52 1 23 48
M  V30 53 1 24 49
M  V30 54 1 24 50
M  V30 55 1 25 51
M  V30 56 1 26 52
M  V30 END BOND
M  V30 END CTAB
M  END
>  <Dataset>  (155) 
ChEMBL_Kinases

>  <Ligand_Instance>  (155) 
nan

>  <PDB_ID>  (155) 
nan

>  <Standardized_SMILES>  (155) 
c1cc(-c2nc(NC[C@H]3CCCCN3)c3c4c(sc3n2)CCCC4)ccn1

>  <Name>  (155) 
nan

>  <Pocket>  (155) 
nan

>  <ATP_Site>  (155) 
nan

>  <Peripheral>  (155) 
nan

>  <Num_H_Atoms_ProtBoundConf>  (155) 
nan

>  <Num_Resolved_Atoms>  (155) 
nan

>  <Num_Not_Resolved_Atoms>  (155) 
nan

$$$$
CHEMBL3732977
     RDKit          3D

  0  0  0  0  0  0  0  0  0  0999 V3000
M  V30 BEGIN CTAB
M  V30 COUNTS 52 55 0 0 0
M  V30 BEGIN ATOM
M  V30 1 C 1.727640 -6.788156 3.400182 0
M  V30 2 C 1.162366 -5.529896 2.756523 0
M  V30 3 C 0.390301 -4.741972 3.813386 0
M  V30 4 C 2.261591 -4.713651 2.228997 0
M  V30 5 O 2.969774 -5.622466 2.693785 0
M  V30 6 N 1.890817 -3.516787 1.581367 0
M  V30 7 C 0.550860 -3.062776 1.398405 0
M  V30 8 C 0.519271 -2.397243 0.001357 0
M  V30 9 C 1.073506 -1.040850 0.214556 0
M  V30 10 C 2.333904 -1.281279 0.754984 0
M  V30 11 S 3.006583 0.392609 1.009542 0
M  V30 12 C 1.623311 1.210446 0.407025 0
M  V30 13 N 1.437400 2.560954 0.306600 0
M  V30 14 C 0.286919 3.046055 -0.186959 0
M  V30 15 C 0.000504 4.463769 -0.330251 0
M  V30 16 C 0.968535 5.370685 0.064601 0
M  V30 17 C 0.696209 6.738981 -0.071742 0
M  V30 18 N -0.476070 7.158950 -0.573459 0
M  V30 19 C -1.392636 6.251185 -0.946571 0
M  V30 20 C -1.228178 4.882795 -0.855856 0
M  V30 21 N -0.582905 2.114290 -0.539198 0
M  V30 22 C -0.439882 0.784042 -0.457285 0
M  V30 23 N -1.580973 0.024413 -0.924007 0
M  V30 24 C -2.740217 0.729861 -1.425613 0
M  V30 25 C -3.797532 -0.232959 -1.865669 0
M  V30 26 N -4.241188 -1.091328 -0.768337 0
M  V30 27 C 0.734840 0.260185 0.047058 0
M  V30 28 C 2.909746 -2.639388 1.038782 0
M  V30 29 H 2.407118 -6.567663 4.253053 0
M  V30 30 H 2.277257 -7.399373 2.678734 0
M  V30 31 H 0.882458 -7.416126 3.818832 0
M  V30 32 H 0.450772 -5.886856 1.992699 0
M  V30 33 H 0.817268 -3.735491 3.891362 0
M  V30 34 H 0.517530 -5.217609 4.812292 0
M  V30 35 H -0.698812 -4.776822 3.611208 0
M  V30 36 H -0.205768 -3.868322 1.444654 0
M  V30 37 H 0.248158 -2.266158 2.099132 0
M  V30 38 H -0.477780 -2.469954 -0.404680 0
M  V30 39 H 1.254213 -3.006120 -0.606287 0
M  V30 40 H 1.922486 5.033049 0.472936 0
M  V30 41 H 1.498814 7.388293 0.257347 0
M  V30 42 H -2.324933 6.653483 -1.346926 0
M  V30 43 H -1.992764 4.181212 -1.168093 0
M  V30 44 H -1.810218 -0.969623 -1.002085 0
M  V30 45 H -2.411705 1.304255 -2.326192 0
M  V30 46 H -3.180629 1.404725 -0.659730 0
M  V30 47 H -3.424513 -0.938879 -2.655966 0
M  V30 48 H -4.681141 0.263481 -2.263764 0
M  V30 49 H -5.242670 -1.381245 -0.919721 0
M  V30 50 H -3.601746 -1.922837 -0.723123 0
M  V30 51 H 3.387360 -3.056540 0.133674 0
M  V30 52 H 3.689090 -2.575889 1.822131 0
M  V30 END ATOM
M  V30 BEGIN BOND
M  V30 1 1 1 2
M  V30 2 1 2 3
M  V30 3 1 2 4
M  V30 4 2 4 5
M  V30 5 1 4 6
M  V30 6 1 6 7
M  V30 7 1 7 8
M  V30 8 1 8 9
M  V30 9 2 9 10
M  V30 10 1 10 11
M  V30 11 1 11 12
M  V30 12 2 12 13
M  V30 13 1 13 14
M  V30 14 1 14 15
M  V30 15 2 15 16
M  V30 16 1 16 17
M  V30 17 2 17 18
M  V30 18 1 18 19
M  V30 19 2 19 20
M  V30 20 2 14 21
M  V30 21 1 21 22
M  V30 22 1 22 23
M  V30 23 1 23 24
M  V30 24 1 24 25
M  V30 25 1 25 26
M  V30 26 2 22 27
M  V30 27 1 10 28
M  V30 28 1 28 6
M  V30 29 1 27 9
M  V30 30 1 27 12
M  V30 31 1 20 15
M  V30 32 1 1 29
M  V30 33 1 1 30
M  V30 34 1 1 31
M  V30 35 1 2 32
M  V30 36 1 3 33
M  V30 37 1 3 34
M  V30 38 1 3 35
M  V30 39 1 7 36
M  V30 40 1 7 37
M  V30 41 1 8 38
M  V30 42 1 8 39
M  V30 43 1 16 40
M  V30 44 1 17 41
M  V30 45 1 19 42
M  V30 46 1 20 43
M  V30 47 1 23 44
M  V30 48 1 24 45
M  V30 49 1 24 46
M  V30 50 1 25 47
M  V30 51 1 25 48
M  V30 52 1 26 49
M  V30 53 1 26 50
M  V30 54 1 28 51
M  V30 55 1 28 52
M  V30 END BOND
M  V30 END CTAB
M  END
>  <Dataset>  (156) 
ChEMBL_Kinases

>  <Ligand_Instance>  (156) 
nan

>  <PDB_ID>  (156) 
nan

>  <Standardized_SMILES>  (156) 
CC(C)C(=O)N1CCc2c(sc3nc(-c4ccncc4)nc(NCCN)c23)C1

>  <Name>  (156) 
nan

>  <Pocket>  (156) 
nan

>  <ATP_Site>  (156) 
nan

>  <Peripheral>  (156) 
nan

>  <Num_H_Atoms_ProtBoundConf>  (156) 
nan

>  <Num_Resolved_Atoms>  (156) 
nan

>  <Num_Not_Resolved_Atoms>  (156) 
nan

$$$$
CHEMBL516908
     RDKit          3D

  0  0  0  0  0  0  0  0  0  0999 V3000
M  V30 BEGIN CTAB
M  V30 COUNTS 53 56 0 0 0
M  V30 BEGIN ATOM
M  V30 1 C 1.613962 -4.052246 2.528015 0
M  V30 2 C 2.334221 -2.835532 2.084798 0
M  V30 3 C 3.702474 -2.794346 2.220262 0
M  V30 4 C 4.436103 -1.695822 1.830983 0
M  V30 5 C 3.847193 -0.578170 1.285463 0
M  V30 6 N 4.680471 0.502271 0.915354 0
M  V30 7 C 4.321612 1.743548 0.342124 0
M  V30 8 O 3.116696 1.991616 0.100035 0
M  V30 9 C 5.286872 2.814017 -0.008760 0
M  V30 10 C 4.590192 4.000917 -0.597472 0
M  V30 11 C 3.822021 3.767591 -1.833630 0
M  V30 12 C 5.061440 4.626769 -1.856331 0
M  V30 13 C 2.483261 -0.652055 1.164473 0
M  V30 14 C 1.719199 -1.729329 1.541215 0
M  V30 15 C 0.270330 -1.730210 1.377889 0
M  V30 16 C -0.337853 -0.554747 1.799025 0
M  V30 17 C -1.717474 -0.329764 1.736338 0
M  V30 18 C -2.460290 -1.370314 1.218219 0
M  V30 19 C -3.906174 -1.167374 1.138558 0
M  V30 20 O -4.381712 -0.065020 1.543583 0
M  V30 21 N -4.849486 -2.086392 0.648784 0
M  V30 22 C -6.272789 -1.718733 0.640118 0
M  V30 23 C -7.003392 -2.919770 0.057040 0
M  V30 24 C -8.458639 -2.939493 -0.116503 0
M  V30 25 C -7.600483 -2.731609 -1.327965 0
M  V30 26 C -1.899497 -2.555334 0.787719 0
M  V30 27 C -0.538100 -2.725316 0.871226 0
M  V30 28 H 2.150458 -4.452971 3.437106 0
M  V30 29 H 0.586666 -3.840369 2.873489 0
M  V30 30 H 1.634713 -4.877004 1.771437 0
M  V30 31 H 4.251142 -3.624731 2.637996 0
M  V30 32 H 5.529645 -1.714571 1.961410 0
M  V30 33 H 5.707802 0.439044 1.058003 0
M  V30 34 H 5.997792 2.379820 -0.761390 0
M  V30 35 H 5.836567 3.113127 0.905365 0
M  V30 36 H 4.175653 4.703206 0.165328 0
M  V30 37 H 3.936989 2.811082 -2.387270 0
M  V30 38 H 2.826856 4.266870 -1.952279 0
M  V30 39 H 4.855932 5.704101 -2.011657 0
M  V30 40 H 5.986649 4.278924 -2.352698 0
M  V30 41 H 1.947250 0.165024 0.753826 0
M  V30 42 H 0.223104 0.295786 2.217244 0
M  V30 43 H -2.152224 0.598100 2.073924 0
M  V30 44 H -4.484313 -3.007623 0.306766 0
M  V30 45 H -6.603649 -1.486620 1.666595 0
M  V30 46 H -6.459493 -0.829403 0.035738 0
M  V30 47 H -6.516922 -3.927173 0.191758 0
M  V30 48 H -8.993065 -3.907167 -0.044494 0
M  V30 49 H -9.082977 -2.104393 0.287132 0
M  V30 50 H -7.644686 -1.691320 -1.721417 0
M  V30 51 H -7.502540 -3.540352 -2.079056 0
M  V30 52 H -2.479284 -3.369057 0.382709 0
M  V30 53 H -0.002156 -3.611463 0.561477 0
M  V30 END ATOM
M  V30 BEGIN BOND
M  V30 1 1 1 2
M  V30 2 2 2 3
M  V30 3 1 3 4
M  V30 4 2 4 5
M  V30 5 1 5 6
M  V30 6 1 6 7
M  V30 7 2 7 8
M  V30 8 1 7 9
M  V30 9 1 9 10
M  V30 10 1 10 11
M  V30 11 1 11 12
M  V30 12 1 5 13
M  V30 13 2 13 14
M  V30 14 1 14 15
M  V30 15 2 15 16
M  V30 16 1 16 17
M  V30 17 2 17 18
M  V30 18 1 18 19
M  V30 19 2 19 20
M  V30 20 1 19 21
M  V30 21 1 21 22
M  V30 22 1 22 23
M  V30 23 1 23 24
M  V30 24 1 24 25
M  V30 25 1 18 26
M  V30 26 2 26 27
M  V30 27 1 14 2
M  V30 28 1 27 15
M  V30 29 1 12 10
M  V30 30 1 25 23
M  V30 31 1 1 28
M  V30 32 1 1 29
M  V30 33 1 1 30
M  V30 34 1 3 31
M  V30 35 1 4 32
M  V30 36 1 6 33
M  V30 37 1 9 34
M  V30 38 1 9 35
M  V30 39 1 10 36
M  V30 40 1 11 37
M  V30 41 1 11 38
M  V30 42 1 12 39
M  V30 43 1 12 40
M  V30 44 1 13 41
M  V30 45 1 16 42
M  V30 46 1 17 43
M  V30 47 1 21 44
M  V30 48 1 22 45
M  V30 49 1 22 46
M  V30 50 1 23 47
M  V30 51 1 24 48
M  V30 52 1 24 49
M  V30 53 1 25 50
M  V30 54 1 25 51
M  V30 55 1 26 52
M  V30 56 1 27 53
M  V30 END BOND
M  V30 END CTAB
M  END
>  <Dataset>  (157) 
ChEMBL_Kinases

>  <Ligand_Instance>  (157) 
nan

>  <PDB_ID>  (157) 
nan

>  <Standardized_SMILES>  (157) 
Cc1ccc(NC(=O)CC2CC2)cc1-c1ccc(C(=O)NCC2CC2)cc1

>  <Name>  (157) 
GW796920X

>  <Pocket>  (157) 
nan

>  <ATP_Site>  (157) 
nan

>  <Peripheral>  (157) 
nan

>  <Num_H_Atoms_ProtBoundConf>  (157) 
nan

>  <Num_Resolved_Atoms>  (157) 
nan

>  <Num_Not_Resolved_Atoms>  (157) 
nan

$$$$
CHEMBL3732976
     RDKit          3D

  0  0  0  0  0  0  0  0  0  0999 V3000
M  V30 BEGIN CTAB
M  V30 COUNTS 67 71 0 0 0
M  V30 BEGIN ATOM
M  V30 1 C 1.493985 4.328100 2.800666 0
M  V30 2 C 1.112010 3.078770 3.560462 0
M  V30 3 C 2.178093 2.645586 4.513578 0
M  V30 4 C -0.126480 3.432427 4.357322 0
M  V30 5 C 0.775598 1.991945 2.650523 0
M  V30 6 S 0.845161 2.228760 0.828382 0
M  V30 7 C 0.300518 0.460416 0.530366 0
M  V30 8 C 0.106073 -0.163886 -0.720906 0
M  V30 9 N 0.342867 0.601703 -1.883231 0
M  V30 10 C 0.146821 -0.020156 -3.171027 0
M  V30 11 C -1.288132 -0.470416 -3.377397 0 CFG=1
M  V30 12 N -2.113966 0.717715 -3.278960 0
M  V30 13 C -1.464096 -1.115024 -4.736035 0
M  V30 14 C -0.592302 -2.306099 -4.889179 0
M  V30 15 C 0.707387 -2.266547 -5.395840 0
M  V30 16 C 1.458663 -3.416333 -5.508897 0
M  V30 17 C 0.966579 -4.643818 -5.131178 0
M  V30 18 C -0.320405 -4.708636 -4.625551 0
M  V30 19 C -1.087937 -3.555370 -4.506728 0
M  V30 20 N -0.286484 -1.439199 -0.694625 0
M  V30 21 C -0.456155 -1.997617 0.531489 0
M  V30 22 C -0.890575 -3.408077 0.657866 0
M  V30 23 C -1.107732 -4.105979 -0.509298 0
M  V30 24 C -1.514373 -5.425127 -0.469651 0
M  V30 25 N -1.707421 -6.057630 0.708002 0
M  V30 26 C -1.493335 -5.369500 1.834164 0
M  V30 27 C -1.087310 -4.052755 1.859705 0
M  V30 28 N -0.262130 -1.374383 1.703922 0
M  V30 29 C 0.132060 -0.094361 1.788080 0
M  V30 30 C 0.379623 0.703950 2.850180 0
M  V30 31 C 0.233772 0.222351 4.239039 0
M  V30 32 C 1.250887 -0.367428 4.962618 0
M  V30 33 C 1.121036 -0.816878 6.242083 0
M  V30 34 C -0.095321 -0.686141 6.879016 0
M  V30 35 F -0.154170 -1.156968 8.157571 0
M  V30 36 C -1.157077 -0.106074 6.216738 0
M  V30 37 C -0.983386 0.335760 4.921733 0
M  V30 38 H 2.007361 4.137402 1.853992 0
M  V30 39 H 2.081937 4.960781 3.506510 0
M  V30 40 H 0.583030 4.913667 2.546857 0
M  V30 41 H 2.856755 1.872468 4.087536 0
M  V30 42 H 1.818317 2.410018 5.519782 0
M  V30 43 H 2.862124 3.535490 4.660396 0
M  V30 44 H -1.043745 3.020500 3.843217 0
M  V30 45 H -0.039547 3.027868 5.390149 0
M  V30 46 H -0.283861 4.537877 4.417571 0
M  V30 47 H 0.646910 1.576804 -1.842084 0
M  V30 48 H 0.790076 -0.920977 -3.305502 0
M  V30 49 H 0.446896 0.663773 -3.990531 0
M  V30 50 H -1.639542 -1.185102 -2.614853 0
M  V30 51 H -1.604236 1.524495 -2.820874 0
M  V30 52 H -2.376258 1.031046 -4.249386 0
M  V30 53 H -1.291697 -0.389757 -5.560886 0
M  V30 54 H -2.510335 -1.466952 -4.838777 0
M  V30 55 H 1.039772 -1.261001 -5.678070 0
M  V30 56 H 2.459344 -3.323920 -5.908447 0
M  V30 57 H 1.576083 -5.540544 -5.228468 0
M  V30 58 H -0.694546 -5.678195 -4.332845 0
M  V30 59 H -2.100250 -3.658153 -4.101154 0
M  V30 60 H -0.965256 -3.638821 -1.468892 0
M  V30 61 H -1.673891 -5.937266 -1.426631 0
M  V30 62 H -1.657581 -5.907639 2.752049 0
M  V30 63 H -0.914813 -3.498444 2.758533 0
M  V30 64 H 2.190803 -0.442221 4.401821 0
M  V30 65 H 2.022644 -1.259475 6.673919 0
M  V30 66 H -2.099657 -0.015961 6.739781 0
M  V30 67 H -1.838425 0.788944 4.425057 0
M  V30 END ATOM
M  V30 BEGIN BOND
M  V30 1 1 1 2
M  V30 2 1 2 3
M  V30 3 1 2 4
M  V30 4 1 2 5
M  V30 5 1 5 6
M  V30 6 1 6 7
M  V30 7 2 7 8
M  V30 8 1 8 9
M  V30 9 1 9 10
M  V30 10 1 10 11
M  V30 11 1 11 12
M  V30 12 1 11 13
M  V30 13 1 13 14
M  V30 14 2 14 15
M  V30 15 1 15 16
M  V30 16 2 16 17
M  V30 17 1 17 18
M  V30 18 2 18 19
M  V30 19 1 8 20
M  V30 20 2 20 21
M  V30 21 1 21 22
M  V30 22 2 22 23
M  V30 23 1 23 24
M  V30 24 2 24 25
M  V30 25 1 25 26
M  V30 26 2 26 27
M  V30 27 1 21 28
M  V30 28 2 28 29
M  V30 29 1 29 30
M  V30 30 1 30 31
M  V30 31 2 31 32
M  V30 32 1 32 33
M  V30 33 2 33 34
M  V30 34 1 34 35
M  V30 35 1 34 36
M  V30 36 2 36 37
M  V30 37 2 30 5
M  V30 38 1 37 31
M  V30 39 1 29 7
M  V30 40 1 19 14
M  V30 41 1 27 22
M  V30 42 1 1 38
M  V30 43 1 1 39
M  V30 44 1 1 40
M  V30 45 1 3 41
M  V30 46 1 3 42
M  V30 47 1 3 43
M  V30 48 1 4 44
M  V30 49 1 4 45
M  V30 50 1 4 46
M  V30 51 1 9 47
M  V30 52 1 10 48
M  V30 53 1 10 49
M  V30 54 1 11 50 CFG=1
M  V30 55 1 12 51
M  V30 56 1 12 52
M  V30 57 1 13 53
M  V30 58 1 13 54
M  V30 59 1 15 55
M  V30 60 1 16 56
M  V30 61 1 17 57
M  V30 62 1 18 58
M  V30 63 1 19 59
M  V30 64 1 23 60
M  V30 65 1 24 61
M  V30 66 1 26 62
M  V30 67 1 27 63
M  V30 68 1 32 64
M  V30 69 1 33 65
M  V30 70 1 36 66
M  V30 71 1 37 67
M  V30 END BOND
M  V30 END CTAB
M  END
>  <Dataset>  (158) 
ChEMBL_Kinases

>  <Ligand_Instance>  (158) 
nan

>  <PDB_ID>  (158) 
nan

>  <Standardized_SMILES>  (158) 
CC(C)(C)c1sc2c(NC[C@@H](N)Cc3ccccc3)nc(-c3ccncc3)nc2c1-c1ccc(F)cc1

>  <Name>  (158) 
nan

>  <Pocket>  (158) 
nan

>  <ATP_Site>  (158) 
nan

>  <Peripheral>  (158) 
nan

>  <Num_H_Atoms_ProtBoundConf>  (158) 
nan

>  <Num_Resolved_Atoms>  (158) 
nan

>  <Num_Not_Resolved_Atoms>  (158) 
nan

$$$$
CHEMBL575460
     RDKit          3D

  0  0  0  0  0  0  0  0  0  0999 V3000
M  V30 BEGIN CTAB
M  V30 COUNTS 39 42 0 0 0
M  V30 BEGIN ATOM
M  V30 1 C -0.864218 -5.631951 3.468124 0
M  V30 2 C -0.667330 -4.687801 2.340646 0
M  V30 3 C 0.513875 -4.787764 1.643441 0
M  V30 4 C 0.737683 -3.948070 0.607162 0
M  V30 5 C -0.177951 -2.980083 0.209867 0
M  V30 6 N 0.095885 -2.135398 -0.880148 0
M  V30 7 C -0.529012 -1.049007 -1.577687 0
M  V30 8 C -0.648551 0.161046 -0.693491 0
M  V30 9 N 0.446229 0.894785 -0.667950 0
M  V30 10 C 0.579782 2.028171 0.028997 0
M  V30 11 C -0.644073 2.301871 0.727728 0
M  V30 12 S -0.281703 3.901884 1.636890 0
M  V30 13 C 1.416310 4.034237 1.007373 0
M  V30 14 C 2.367081 5.013692 1.255927 0
M  V30 15 C 3.596161 4.895472 0.658197 0
M  V30 16 C 3.761356 3.792582 -0.143763 0
M  V30 17 Cl 5.359054 3.673064 -0.898088 0
M  V30 18 C 2.836966 2.828456 -0.393286 0
M  V30 19 C 1.594253 2.916611 0.190243 0
M  V30 20 C -1.831756 1.515451 0.706250 0
M  V30 21 O -2.752602 1.984994 1.407393 0
M  V30 22 N -1.778718 0.430666 -0.037610 0
M  V30 23 C -1.334133 -2.947338 0.960636 0
M  V30 24 C -1.621509 -3.774127 2.026671 0
M  V30 25 O -2.804694 -3.690628 2.742636 0
M  V30 26 H -1.921998 -5.950178 3.434719 0
M  V30 27 H -0.151272 -6.461917 3.453773 0
M  V30 28 H -0.768073 -5.034057 4.404302 0
M  V30 29 H 1.242867 -5.510831 1.909606 0
M  V30 30 H 1.687586 -4.048773 0.067920 0
M  V30 31 H 1.019337 -2.313699 -1.351859 0
M  V30 32 H -0.112695 -0.809872 -2.548867 0
M  V30 33 H -1.586985 -1.405376 -1.791597 0
M  V30 34 H 2.034250 5.797971 1.917195 0
M  V30 35 H 4.323046 5.665543 0.862336 0
M  V30 36 H 3.136635 2.026019 -1.052593 0
M  V30 37 H -2.634849 -0.128030 -0.061898 0
M  V30 38 H -2.092887 -2.244103 0.727698 0
M  V30 39 H -2.956385 -2.964317 3.449227 0
M  V30 END ATOM
M  V30 BEGIN BOND
M  V30 1 1 1 2
M  V30 2 2 2 3
M  V30 3 1 3 4
M  V30 4 2 4 5
M  V30 5 1 5 6
M  V30 6 1 6 7
M  V30 7 1 7 8
M  V30 8 2 8 9
M  V30 9 1 9 10
M  V30 10 2 10 11
M  V30 11 1 11 12
M  V30 12 1 12 13
M  V30 13 2 13 14
M  V30 14 1 14 15
M  V30 15 2 15 16
M  V30 16 1 16 17
M  V30 17 1 16 18
M  V30 18 2 18 19
M  V30 19 1 11 20
M  V30 20 2 20 21
M  V30 21 1 20 22
M  V30 22 1 5 23
M  V30 23 2 23 24
M  V30 24 1 24 25
M  V30 25 1 24 2
M  V30 26 1 22 8
M  V30 27 1 19 10
M  V30 28 1 19 13
M  V30 29 1 1 26
M  V30 30 1 1 27
M  V30 31 1 1 28
M  V30 32 1 3 29
M  V30 33 1 4 30
M  V30 34 1 6 31
M  V30 35 1 7 32
M  V30 36 1 7 33
M  V30 37 1 14 34
M  V30 38 1 15 35
M  V30 39 1 18 36
M  V30 40 1 22 37
M  V30 41 1 23 38
M  V30 42 1 25 39
M  V30 END BOND
M  V30 END CTAB
M  END
>  <Dataset>  (159) 
ChEMBL_Kinases

>  <Ligand_Instance>  (159) 
nan

>  <PDB_ID>  (159) 
nan

>  <Standardized_SMILES>  (159) 
Cc1ccc(NCc2nc3c(sc4ccc(Cl)cc43)c(=O)[nH]2)cc1O

>  <Name>  (159) 
nan

>  <Pocket>  (159) 
nan

>  <ATP_Site>  (159) 
nan

>  <Peripheral>  (159) 
nan

>  <Num_H_Atoms_ProtBoundConf>  (159) 
nan

>  <Num_Resolved_Atoms>  (159) 
nan

>  <Num_Not_Resolved_Atoms>  (159) 
nan

$$$$
CHEMBL51697
     RDKit          3D

  0  0  0  0  0  0  0  0  0  0999 V3000
M  V30 BEGIN CTAB
M  V30 COUNTS 36 38 0 0 0
M  V30 BEGIN ATOM
M  V30 1 C -2.384371 -1.817768 2.170305 0
M  V30 2 N -0.933050 -1.847082 2.167607 0
M  V30 3 C -0.409416 -2.735240 1.177157 0
M  V30 4 C 0.804454 -2.277692 0.487155 0
M  V30 5 C 1.855856 -3.136398 0.163432 0
M  V30 6 N 1.768030 -4.520583 0.508216 0
M  V30 7 C 2.940248 -2.582977 -0.484512 0
M  V30 8 C 3.013082 -1.246609 -0.811578 0
M  V30 9 C 1.976895 -0.394779 -0.493758 0
M  V30 10 C 0.885444 -0.934783 0.154696 0
M  V30 11 C -0.347823 -0.182518 0.590067 0 CFG=2
M  V30 12 C -0.258504 1.241377 0.219596 0
M  V30 13 C -0.748682 1.649388 -1.028762 0
M  V30 14 C -0.668985 2.981167 -1.383716 0
M  V30 15 C -0.099684 3.877969 -0.480821 0
M  V30 16 C 0.389754 3.478173 0.762617 0
M  V30 17 C 0.291223 2.138817 1.078875 0
M  V30 18 C -0.464078 -0.477220 2.044687 0
M  V30 19 H -2.776609 -0.780063 2.217065 0
M  V30 20 H -2.821606 -2.339350 3.061331 0
M  V30 21 H -2.829713 -2.337345 1.298585 0
M  V30 22 H -0.158974 -3.714883 1.670243 0
M  V30 23 H -1.178840 -2.969884 0.400412 0
M  V30 24 H 0.912716 -5.008494 0.129187 0
M  V30 25 H 2.454849 -5.079839 1.086107 0
M  V30 26 H 3.778431 -3.220210 -0.752889 0
M  V30 27 H 3.854955 -0.800100 -1.318278 0
M  V30 28 H 1.919410 0.676112 -0.699498 0
M  V30 29 H -1.192966 -0.629655 0.026019 0
M  V30 30 H -1.183795 0.878496 -1.684788 0
M  V30 31 H -1.050962 3.253566 -2.338423 0
M  V30 32 H -0.034471 4.927911 -0.755369 0
M  V30 33 H 0.821976 4.245567 1.413572 0
M  V30 34 H 0.675409 1.857502 2.041923 0
M  V30 35 H 0.547617 -0.480026 2.545277 0
M  V30 36 H -1.134155 0.180581 2.613244 0
M  V30 END ATOM
M  V30 BEGIN BOND
M  V30 1 1 1 2
M  V30 2 1 2 3
M  V30 3 1 3 4
M  V30 4 2 4 5
M  V30 5 1 5 6
M  V30 6 1 5 7
M  V30 7 2 7 8
M  V30 8 1 8 9
M  V30 9 2 9 10
M  V30 10 1 10 11
M  V30 11 1 11 12
M  V30 12 2 12 13
M  V30 13 1 13 14
M  V30 14 2 14 15
M  V30 15 1 15 16
M  V30 16 2 16 17
M  V30 17 1 11 18
M  V30 18 1 18 2
M  V30 19 1 10 4
M  V30 20 1 17 12
M  V30 21 1 1 19
M  V30 22 1 1 20
M  V30 23 1 1 21
M  V30 24 1 3 22
M  V30 25 1 3 23
M  V30 26 1 6 24
M  V30 27 1 6 25
M  V30 28 1 7 26
M  V30 29 1 8 27
M  V30 30 1 9 28
M  V30 31 1 11 29 CFG=3
M  V30 32 1 13 30
M  V30 33 1 14 31
M  V30 34 1 15 32
M  V30 35 1 16 33
M  V30 36 1 17 34
M  V30 37 1 18 35
M  V30 38 1 18 36
M  V30 END BOND
M  V30 END CTAB
M  END
>  <Dataset>  (160) 
ChEMBL_Kinases

>  <Ligand_Instance>  (160) 
nan

>  <PDB_ID>  (160) 
nan

>  <Standardized_SMILES>  (160) 
CN1Cc2c(N)cccc2[C@H](c2ccccc2)C1

>  <Name>  (160) 
nan

>  <Pocket>  (160) 
nan

>  <ATP_Site>  (160) 
nan

>  <Peripheral>  (160) 
nan

>  <Num_H_Atoms_ProtBoundConf>  (160) 
nan

>  <Num_Resolved_Atoms>  (160) 
nan

>  <Num_Not_Resolved_Atoms>  (160) 
nan

$$$$
CHEMBL516638
     RDKit          3D

  0  0  0  0  0  0  0  0  0  0999 V3000
M  V30 BEGIN CTAB
M  V30 COUNTS 54 55 0 0 0
M  V30 BEGIN ATOM
M  V30 1 C -0.579595 -1.448707 3.442037 0
M  V30 2 C 0.350691 -1.143429 2.276345 0
M  V30 3 C 1.647848 -0.586746 2.786595 0
M  V30 4 C 2.588333 -0.280492 1.672326 0
M  V30 5 C 3.913975 0.286320 2.073923 0
M  V30 6 C 4.615499 -0.684479 2.968723 0
M  V30 7 C 4.813919 -2.001277 2.280152 0
M  V30 8 C 1.920457 0.650564 0.749018 0
M  V30 9 O 2.252495 1.869038 0.759221 0
M  V30 10 O 0.935545 0.446663 -0.196696 0
M  V30 11 C 0.488114 1.571792 -0.926433 0
M  V30 12 C -0.490767 1.156240 -1.984837 0
M  V30 13 C -1.096621 2.363912 -2.614892 0
M  V30 14 O -1.747273 3.069586 -1.572236 0
M  V30 15 C -1.640804 0.319484 -1.449316 0
M  V30 16 C -1.236522 -1.056323 -1.738285 0
M  V30 17 C -1.749614 -2.254621 -1.570409 0
M  V30 18 C -3.051097 -2.440327 -0.954289 0
M  V30 19 C -4.259562 -1.819794 -1.166202 0
M  V30 20 C -5.404939 -2.090046 -0.473067 0
M  V30 21 C -5.373399 -3.048445 0.513476 0
M  V30 22 F -6.536853 -3.296122 1.186478 0
M  V30 23 C -4.199405 -3.713501 0.784085 0
M  V30 24 Cl -4.276741 -4.898041 2.055415 0
M  V30 25 C -3.059096 -3.409619 0.058034 0
M  V30 26 C 0.085404 -0.973771 -2.372662 0
M  V30 27 O 0.986515 -1.871344 -2.480639 0
M  V30 28 O 0.215975 0.314079 -2.872018 0
M  V30 29 H -0.001242 -1.306048 4.400848 0
M  V30 30 H -0.929161 -2.493687 3.353019 0
M  V30 31 H -1.471818 -0.793548 3.427073 0
M  V30 32 H 0.520192 -2.066009 1.722484 0
M  V30 33 H -0.188154 -0.374436 1.667686 0
M  V30 34 H 1.375307 0.339850 3.373958 0
M  V30 35 H 2.140523 -1.314546 3.459154 0
M  V30 36 H 2.815852 -1.234692 1.103108 0
M  V30 37 H 4.524177 0.343471 1.124936 0
M  V30 38 H 3.840389 1.294990 2.522639 0
M  V30 39 H 5.627589 -0.283332 3.197974 0
M  V30 40 H 4.050083 -0.792858 3.927917 0
M  V30 41 H 4.033796 -2.751943 2.607060 0
M  V30 42 H 4.819377 -1.955246 1.181146 0
M  V30 43 H 5.774269 -2.485646 2.589402 0
M  V30 44 H 0.051486 2.345695 -0.252368 0
M  V30 45 H 1.367397 2.052054 -1.392882 0
M  V30 46 H -1.922753 2.109100 -3.326969 0
M  V30 47 H -0.360343 3.059603 -3.054087 0
M  V30 48 H -2.038387 2.473360 -0.845295 0
M  V30 49 H -2.567250 0.553180 -2.002847 0
M  V30 50 H -1.758506 0.515961 -0.353105 0
M  V30 51 H -1.257643 -3.195736 -1.875919 0
M  V30 52 H -4.234001 -1.085677 -1.955888 0
M  V30 53 H -6.271307 -1.523350 -0.757556 0
M  V30 54 H -2.161395 -3.984555 0.333364 0
M  V30 END ATOM
M  V30 BEGIN BOND
M  V30 1 1 1 2
M  V30 2 1 2 3
M  V30 3 1 3 4
M  V30 4 1 4 5
M  V30 5 1 5 6
M  V30 6 1 6 7
M  V30 7 1 4 8
M  V30 8 2 8 9
M  V30 9 1 8 10
M  V30 10 1 10 11
M  V30 11 1 11 12
M  V30 12 1 12 13
M  V30 13 1 13 14
M  V30 14 1 12 15
M  V30 15 1 15 16
M  V30 16 2 16 17
M  V30 17 1 17 18
M  V30 18 2 18 19
M  V30 19 1 19 20
M  V30 20 2 20 21
M  V30 21 1 21 22
M  V30 22 1 21 23
M  V30 23 1 23 24
M  V30 24 2 23 25
M  V30 25 1 16 26
M  V30 26 2 26 27
M  V30 27 1 26 28
M  V30 28 1 28 12
M  V30 29 1 25 18
M  V30 30 1 1 29
M  V30 31 1 1 30
M  V30 32 1 1 31
M  V30 33 1 2 32
M  V30 34 1 2 33
M  V30 35 1 3 34
M  V30 36 1 3 35
M  V30 37 1 4 36
M  V30 38 1 5 37
M  V30 39 1 5 38
M  V30 40 1 6 39
M  V30 41 1 6 40
M  V30 42 1 7 41
M  V30 43 1 7 42
M  V30 44 1 7 43
M  V30 45 1 11 44
M  V30 46 1 11 45
M  V30 47 1 13 46
M  V30 48 1 13 47
M  V30 49 1 14 48
M  V30 50 1 15 49
M  V30 51 1 15 50
M  V30 52 1 17 51
M  V30 53 1 19 52
M  V30 54 1 20 53
M  V30 55 1 25 54
M  V30 END BOND
M  V30 END CTAB
M  END
>  <Dataset>  (161) 
ChEMBL_Kinases

>  <Ligand_Instance>  (161) 
nan

>  <PDB_ID>  (161) 
nan

>  <Standardized_SMILES>  (161) 
CCCC(CCC)C(=O)OCC1(CO)C/C(=C\c2ccc(F)c(Cl)c2)C(=O)O1

>  <Name>  (161) 
nan

>  <Pocket>  (161) 
nan

>  <ATP_Site>  (161) 
nan

>  <Peripheral>  (161) 
nan

>  <Num_H_Atoms_ProtBoundConf>  (161) 
nan

>  <Num_Resolved_Atoms>  (161) 
nan

>  <Num_Not_Resolved_Atoms>  (161) 
nan

$$$$
CHEMBL3731624
     RDKit          3D

  0  0  0  0  0  0  0  0  0  0999 V3000
M  V30 BEGIN CTAB
M  V30 COUNTS 53 57 0 0 0
M  V30 BEGIN ATOM
M  V30 1 C 1.874923 -2.625674 4.627649 0
M  V30 2 C 2.813123 -2.888092 3.500746 0
M  V30 3 N 4.092040 -3.310198 3.412746 0
M  V30 4 N 4.441469 -3.369837 2.137722 0
M  V30 5 C 3.402663 -2.989574 1.369012 0
M  V30 6 C 3.605590 -2.991497 -0.106320 0
M  V30 7 C 2.348140 -2.676025 2.216339 0
M  V30 8 C 1.101470 -2.233748 1.608291 0
M  V30 9 N 0.754618 -0.978823 1.320286 0
M  V30 10 C -0.402759 -0.590940 0.758098 0
M  V30 11 N -0.385815 0.816168 0.563669 0
M  V30 12 C -0.218406 1.377090 -0.777818 0
M  V30 13 C 1.193214 1.830035 -0.990738 0
M  V30 14 C 1.658223 2.763622 0.119553 0
M  V30 15 N 1.833036 1.933346 1.311011 0
M  V30 16 C 0.763751 2.207809 2.252539 0
M  V30 17 C -0.544173 1.623061 1.777778 0
M  V30 18 C -1.342054 -1.542936 0.436561 0
M  V30 19 C -2.542711 -1.232064 -0.129684 0
M  V30 20 C -3.357000 -2.375140 -0.374009 0
M  V30 21 S -2.389617 -3.755265 0.201589 0
M  V30 22 C -1.001336 -2.818657 0.723168 0
M  V30 23 N 0.172797 -3.148734 1.285932 0
M  V30 24 C -4.739740 -2.246144 -1.012454 0
M  V30 25 C -4.669970 -1.362277 -2.249662 0
M  V30 26 C -3.708005 -0.242737 -2.062696 0
M  V30 27 C -3.343494 -0.074259 -0.580661 0
M  V30 28 H 2.377657 -2.806761 5.596986 0
M  V30 29 H 1.555612 -1.568154 4.534203 0
M  V30 30 H 0.988492 -3.262480 4.454899 0
M  V30 31 H 5.426702 -3.689732 1.951346 0
M  V30 32 H 4.060368 -3.940861 -0.454678 0
M  V30 33 H 2.613745 -2.880515 -0.607572 0
M  V30 34 H 4.233232 -2.120141 -0.413910 0
M  V30 35 H -0.969368 2.151895 -0.943127 0
M  V30 36 H -0.412641 0.556814 -1.513933 0
M  V30 37 H 1.854367 0.937890 -0.968640 0
M  V30 38 H 1.285595 2.278197 -1.984914 0
M  V30 39 H 2.625346 3.182969 -0.169827 0
M  V30 40 H 0.892148 3.545394 0.326858 0
M  V30 41 H 2.745411 2.150715 1.772621 0
M  V30 42 H 0.654092 3.294692 2.420246 0
M  V30 43 H 1.086231 1.769837 3.226359 0
M  V30 44 H -1.226314 2.453693 1.505926 0
M  V30 45 H -1.005575 0.964284 2.541130 0
M  V30 46 H -5.370483 -1.821976 -0.228233 0
M  V30 47 H -5.068609 -3.271075 -1.296794 0
M  V30 48 H -5.710058 -1.057782 -2.462713 0
M  V30 49 H -4.275332 -2.037122 -3.060999 0
M  V30 50 H -2.751178 -0.435850 -2.612723 0
M  V30 51 H -4.144904 0.680372 -2.458336 0
M  V30 52 H -2.931750 0.899864 -0.355387 0
M  V30 53 H -4.356701 -0.086658 -0.069833 0
M  V30 END ATOM
M  V30 BEGIN BOND
M  V30 1 1 1 2
M  V30 2 2 2 3
M  V30 3 1 3 4
M  V30 4 1 4 5
M  V30 5 1 5 6
M  V30 6 2 5 7
M  V30 7 1 7 8
M  V30 8 2 8 9
M  V30 9 1 9 10
M  V30 10 1 10 11
M  V30 11 1 11 12
M  V30 12 1 12 13
M  V30 13 1 13 14
M  V30 14 1 14 15
M  V30 15 1 15 16
M  V30 16 1 16 17
M  V30 17 2 10 18
M  V30 18 1 18 19
M  V30 19 2 19 20
M  V30 20 1 20 21
M  V30 21 1 21 22
M  V30 22 2 22 23
M  V30 23 1 20 24
M  V30 24 1 24 25
M  V30 25 1 25 26
M  V30 26 1 26 27
M  V30 27 1 7 2
M  V30 28 1 23 8
M  V30 29 1 17 11
M  V30 30 1 22 18
M  V30 31 1 27 19
M  V30 32 1 1 28
M  V30 33 1 1 29
M  V30 34 1 1 30
M  V30 35 1 4 31
M  V30 36 1 6 32
M  V30 37 1 6 33
M  V30 38 1 6 34
M  V30 39 1 12 35
M  V30 40 1 12 36
M  V30 41 1 13 37
M  V30 42 1 13 38
M  V30 43 1 14 39
M  V30 44 1 14 40
M  V30 45 1 15 41
M  V30 46 1 16 42
M  V30 47 1 16 43
M  V30 48 1 17 44
M  V30 49 1 17 45
M  V30 50 1 24 46
M  V30 51 1 24 47
M  V30 52 1 25 48
M  V30 53 1 25 49
M  V30 54 1 26 50
M  V30 55 1 26 51
M  V30 56 1 27 52
M  V30 57 1 27 53
M  V30 END BOND
M  V30 END CTAB
M  END
>  <Dataset>  (162) 
ChEMBL_Kinases

>  <Ligand_Instance>  (162) 
nan

>  <PDB_ID>  (162) 
nan

>  <Standardized_SMILES>  (162) 
Cc1n[nH]c(C)c1-c1nc(N2CCCNCC2)c2c3c(sc2n1)CCCC3

>  <Name>  (162) 
nan

>  <Pocket>  (162) 
nan

>  <ATP_Site>  (162) 
nan

>  <Peripheral>  (162) 
nan

>  <Num_H_Atoms_ProtBoundConf>  (162) 
nan

>  <Num_Resolved_Atoms>  (162) 
nan

>  <Num_Not_Resolved_Atoms>  (162) 
nan

$$$$
CHEMBL3731614
     RDKit          3D

  0  0  0  0  0  0  0  0  0  0999 V3000
M  V30 BEGIN CTAB
M  V30 COUNTS 42 46 0 0 0
M  V30 BEGIN ATOM
M  V30 1 Cl 0.690534 -4.850110 2.592155 0
M  V30 2 C 2.065639 -3.752321 2.735795 0
M  V30 3 C 3.151694 -4.213786 3.433716 0
M  V30 4 C 4.316514 -3.520290 3.659436 0
M  V30 5 C 4.335368 -2.255254 3.111488 0
M  V30 6 C 3.223549 -1.788890 2.399663 0
M  V30 7 S 2.962468 -0.264969 1.610316 0
M  V30 8 C 1.348485 -0.615071 1.028850 0
M  V30 9 C 0.435599 0.177792 0.264060 0
M  V30 10 N 0.833858 1.474881 -0.125565 0
M  V30 11 C -0.113440 2.249017 -0.893881 0
M  V30 12 C -0.159157 3.659794 -0.368514 0
M  V30 13 N 1.110171 4.311441 -0.288582 0
M  V30 14 C 2.234061 3.451042 -0.482936 0
M  V30 15 C 2.103515 2.097257 0.174387 0
M  V30 16 N -0.751728 -0.340581 -0.048970 0
M  V30 17 C -0.979234 -1.588556 0.396328 0
M  V30 18 C -2.255338 -2.281930 0.119675 0
M  V30 19 C -3.202151 -1.600033 -0.611617 0
M  V30 20 C -4.426440 -2.175275 -0.916780 0
M  V30 21 N -4.725262 -3.405050 -0.512401 0
M  V30 22 C -3.817336 -4.081081 0.198583 0
M  V30 23 C -2.581979 -3.557496 0.531490 0
M  V30 24 N -0.123883 -2.301691 1.099835 0
M  V30 25 C 1.104975 -1.892299 1.479755 0
M  V30 26 C 2.101889 -2.457094 2.182493 0
M  V30 27 H 3.133810 -5.225771 3.870791 0
M  V30 28 H 5.172340 -3.876399 4.206064 0
M  V30 29 H 5.190329 -1.604398 3.214732 0
M  V30 30 H 0.157811 2.288455 -1.960070 0
M  V30 31 H -1.154907 1.860414 -0.803571 0
M  V30 32 H -0.698760 3.740114 0.591293 0
M  V30 33 H -0.775175 4.268628 -1.088359 0
M  V30 34 H 1.172738 4.833982 0.608120 0
M  V30 35 H 2.455668 3.261741 -1.557126 0
M  V30 36 H 3.152424 3.900943 -0.053397 0
M  V30 37 H 2.235978 2.148557 1.270596 0
M  V30 38 H 2.976031 1.503312 -0.215455 0
M  V30 39 H -3.053522 -0.595827 -0.985206 0
M  V30 40 H -5.164446 -1.622315 -1.496265 0
M  V30 41 H -4.003966 -5.087155 0.555631 0
M  V30 42 H -1.813833 -4.066272 1.105156 0
M  V30 END ATOM
M  V30 BEGIN BOND
M  V30 1 1 1 2
M  V30 2 2 2 3
M  V30 3 1 3 4
M  V30 4 2 4 5
M  V30 5 1 5 6
M  V30 6 1 6 7
M  V30 7 1 7 8
M  V30 8 2 8 9
M  V30 9 1 9 10
M  V30 10 1 10 11
M  V30 11 1 11 12
M  V30 12 1 12 13
M  V30 13 1 13 14
M  V30 14 1 14 15
M  V30 15 1 9 16
M  V30 16 2 16 17
M  V30 17 1 17 18
M  V30 18 2 18 19
M  V30 19 1 19 20
M  V30 20 2 20 21
M  V30 21 1 21 22
M  V30 22 2 22 23
M  V30 23 1 17 24
M  V30 24 2 24 25
M  V30 25 1 25 26
M  V30 26 1 26 2
M  V30 27 2 26 6
M  V30 28 1 25 8
M  V30 29 1 15 10
M  V30 30 1 23 18
M  V30 31 1 3 27
M  V30 32 1 4 28
M  V30 33 1 5 29
M  V30 34 1 11 30
M  V30 35 1 11 31
M  V30 36 1 12 32
M  V30 37 1 12 33
M  V30 38 1 13 34
M  V30 39 1 14 35
M  V30 40 1 14 36
M  V30 41 1 15 37
M  V30 42 1 15 38
M  V30 43 1 19 39
M  V30 44 1 20 40
M  V30 45 1 22 41
M  V30 46 1 23 42
M  V30 END BOND
M  V30 END CTAB
M  END
>  <Dataset>  (163) 
ChEMBL_Kinases

>  <Ligand_Instance>  (163) 
nan

>  <PDB_ID>  (163) 
nan

>  <Standardized_SMILES>  (163) 
Clc1cccc2sc3c(N4CCNCC4)nc(-c4ccncc4)nc3c12

>  <Name>  (163) 
nan

>  <Pocket>  (163) 
nan

>  <ATP_Site>  (163) 
nan

>  <Peripheral>  (163) 
nan

>  <Num_H_Atoms_ProtBoundConf>  (163) 
nan

>  <Num_Resolved_Atoms>  (163) 
nan

>  <Num_Not_Resolved_Atoms>  (163) 
nan

$$$$
CHEMBL3731611
     RDKit          3D

  0  0  0  0  0  0  0  0  0  0999 V3000
M  V30 BEGIN CTAB
M  V30 COUNTS 47 51 0 0 0
M  V30 BEGIN ATOM
M  V30 1 O -0.255113 -3.943380 4.083946 0
M  V30 2 C -1.436362 -4.061331 3.625284 0
M  V30 3 N -2.110784 -3.032880 2.936715 0
M  V30 4 C -1.586061 -1.735608 2.655709 0
M  V30 5 C -0.903245 -1.596865 1.463672 0
M  V30 6 C -0.383971 -0.353329 1.164545 0
M  V30 7 C 0.356180 -0.121549 -0.084533 0
M  V30 8 N 0.839120 1.127596 -0.313054 0
M  V30 9 C 1.512125 1.314189 -1.462299 0
M  V30 10 N 2.090971 2.510196 -1.896665 0
M  V30 11 C 1.984339 3.682231 -1.070514 0 CFG=2
M  V30 12 C 2.639724 3.395577 0.262099 0
M  V30 13 C 1.849957 4.251371 1.211097 0
M  V30 14 N 0.523065 4.354630 0.687817 0
M  V30 15 C 0.552764 3.975254 -0.688062 0
M  V30 16 C 1.667122 0.236682 -2.325973 0
M  V30 17 S 2.484485 0.126706 -3.901509 0
M  V30 18 C 2.089093 -1.709147 -4.148990 0
M  V30 19 C 1.352571 -2.058432 -2.968891 0
M  V30 20 C 1.172820 -1.041873 -2.092021 0
M  V30 21 N 0.517074 -1.129249 -0.921739 0
M  V30 22 C -0.525218 0.730082 2.004727 0
M  V30 23 C -1.224398 0.534981 3.196972 0
M  V30 24 N -1.726329 -0.680956 3.478687 0
M  V30 25 C -2.084467 -5.356383 3.852676 0
M  V30 26 C -1.521628 -6.414876 4.507253 0
M  V30 27 C -2.476643 -7.424598 4.491720 0
M  V30 28 C -3.582040 -6.932223 3.825345 0
M  V30 29 O -3.305077 -5.704461 3.464925 0
M  V30 30 H -3.094664 -3.260544 2.604991 0
M  V30 31 H -0.776678 -2.419208 0.790158 0
M  V30 32 H 2.603357 2.630890 -2.783593 0
M  V30 33 H 2.438193 4.580204 -1.556908 0
M  V30 34 H 3.696846 3.756611 0.218835 0
M  V30 35 H 2.664889 2.343069 0.544653 0
M  V30 36 H 2.332377 5.256841 1.370568 0
M  V30 37 H 1.768476 3.677911 2.171638 0
M  V30 38 H 0.150046 5.299197 0.830699 0
M  V30 39 H -0.157175 3.161161 -0.960346 0
M  V30 40 H 0.204547 4.839187 -1.333178 0
M  V30 41 H 2.309545 -2.511991 -4.987099 0
M  V30 42 H 1.012298 -3.073766 -2.880379 0
M  V30 43 H -0.127722 1.724920 1.798630 0
M  V30 44 H -1.333585 1.387638 3.854411 0
M  V30 45 H -0.561920 -6.537810 4.966950 0
M  V30 46 H -2.489059 -8.433855 4.880266 0
M  V30 47 H -4.559757 -7.307086 3.552364 0
M  V30 END ATOM
M  V30 BEGIN BOND
M  V30 1 2 1 2
M  V30 2 1 2 3
M  V30 3 1 3 4
M  V30 4 2 4 5
M  V30 5 1 5 6
M  V30 6 1 6 7
M  V30 7 2 7 8
M  V30 8 1 8 9
M  V30 9 1 9 10
M  V30 10 1 10 11
M  V30 11 1 11 12
M  V30 12 1 12 13
M  V30 13 1 13 14
M  V30 14 1 14 15
M  V30 15 2 9 16
M  V30 16 1 16 17
M  V30 17 1 17 18
M  V30 18 2 18 19
M  V30 19 1 19 20
M  V30 20 2 20 21
M  V30 21 2 6 22
M  V30 22 1 22 23
M  V30 23 2 23 24
M  V30 24 1 2 25
M  V30 25 2 25 26
M  V30 26 1 26 27
M  V30 27 2 27 28
M  V30 28 1 28 29
M  V30 29 1 24 4
M  V30 30 1 29 25
M  V30 31 1 21 7
M  V30 32 1 15 11
M  V30 33 1 20 16
M  V30 34 1 3 30
M  V30 35 1 5 31
M  V30 36 1 10 32
M  V30 37 1 11 33 CFG=3
M  V30 38 1 12 34
M  V30 39 1 12 35
M  V30 40 1 13 36
M  V30 41 1 13 37
M  V30 42 1 14 38
M  V30 43 1 15 39
M  V30 44 1 15 40
M  V30 45 1 18 41
M  V30 46 1 19 42
M  V30 47 1 22 43
M  V30 48 1 23 44
M  V30 49 1 26 45
M  V30 50 1 27 46
M  V30 51 1 28 47
M  V30 END BOND
M  V30 END CTAB
M  END
>  <Dataset>  (164) 
ChEMBL_Kinases

>  <Ligand_Instance>  (164) 
nan

>  <PDB_ID>  (164) 
nan

>  <Standardized_SMILES>  (164) 
O=C(Nc1cc(-c2nc(N[C@@H]3CCNC3)c3sccc3n2)ccn1)c1ccco1

>  <Name>  (164) 
nan

>  <Pocket>  (164) 
nan

>  <ATP_Site>  (164) 
nan

>  <Peripheral>  (164) 
nan

>  <Num_H_Atoms_ProtBoundConf>  (164) 
nan

>  <Num_Resolved_Atoms>  (164) 
nan

>  <Num_Not_Resolved_Atoms>  (164) 
nan

$$$$
CHEMBL3731602
     RDKit          3D

  0  0  0  0  0  0  0  0  0  0999 V3000
M  V30 BEGIN CTAB
M  V30 COUNTS 45 48 0 0 0
M  V30 BEGIN ATOM
M  V30 1 C 5.215718 -1.038446 -1.850180 0
M  V30 2 C 3.950516 -1.364554 -1.039426 0 CFG=1
M  V30 3 N 4.118156 -0.763349 0.239129 0
M  V30 4 C 2.803698 -0.894419 -1.859150 0
M  V30 5 N 1.502711 -1.081106 -1.334356 0
M  V30 6 C 1.093152 -0.438468 -0.167779 0
M  V30 7 N 1.744557 0.407253 0.624693 0
M  V30 8 C 1.107781 0.895716 1.699868 0
M  V30 9 C 1.802153 1.835355 2.598451 0
M  V30 10 C 3.100945 2.184320 2.298582 0
M  V30 11 C 3.828465 3.055825 3.081737 0
M  V30 12 N 3.260717 3.585955 4.173210 0
M  V30 13 C 1.989598 3.272552 4.506224 0
M  V30 14 C 1.284531 2.403057 3.712301 0
M  V30 15 N -0.129524 0.626098 2.074897 0
M  V30 16 C -0.932763 -0.204966 1.395682 0
M  V30 17 C -2.206709 -0.648535 1.548679 0
M  V30 18 C -2.785862 -1.493439 0.713623 0
M  V30 19 C -4.151828 -2.069097 0.737055 0
M  V30 20 C -4.438261 -2.930757 -0.300843 0
M  V30 21 C -5.735780 -3.448050 -0.237013 0
M  V30 22 C -6.644193 -3.136343 0.756144 0
M  V30 23 C -6.257629 -2.250492 1.766996 0
M  V30 24 C -4.986540 -1.715881 1.743629 0
M  V30 25 S -1.586897 -1.839010 -0.503455 0
M  V30 26 C -0.303601 -0.748427 0.247756 0
M  V30 27 H 5.238412 -1.751176 -2.690459 0
M  V30 28 H 5.023929 -0.033293 -2.291382 0
M  V30 29 H 6.109646 -1.072521 -1.209113 0
M  V30 30 H 3.938608 -2.477685 -0.988261 0
M  V30 31 H 5.125496 -0.517058 0.439811 0
M  V30 32 H 3.857994 -1.474064 0.982250 0
M  V30 33 H 2.891258 -1.366814 -2.881789 0
M  V30 34 H 2.892263 0.211229 -2.095817 0
M  V30 35 H 0.861923 -1.716224 -1.850269 0
M  V30 36 H 3.586952 1.772378 1.423195 0
M  V30 37 H 4.847382 3.290785 2.791866 0
M  V30 38 H 1.519928 3.699961 5.393383 0
M  V30 39 H 0.265913 2.151151 3.978130 0
M  V30 40 H -2.781650 -0.288732 2.405213 0
M  V30 41 H -3.763673 -3.203403 -1.095979 0
M  V30 42 H -6.081188 -4.146912 -1.009878 0
M  V30 43 H -7.625580 -3.567417 0.748526 0
M  V30 44 H -7.012277 -2.052745 2.506009 0
M  V30 45 H -4.709613 -1.031255 2.538259 0
M  V30 END ATOM
M  V30 BEGIN BOND
M  V30 1 1 1 2
M  V30 2 1 2 3
M  V30 3 1 2 4
M  V30 4 1 4 5
M  V30 5 1 5 6
M  V30 6 2 6 7
M  V30 7 1 7 8
M  V30 8 1 8 9
M  V30 9 2 9 10
M  V30 10 1 10 11
M  V30 11 2 11 12
M  V30 12 1 12 13
M  V30 13 2 13 14
M  V30 14 2 8 15
M  V30 15 1 15 16
M  V30 16 1 16 17
M  V30 17 2 17 18
M  V30 18 1 18 19
M  V30 19 2 19 20
M  V30 20 1 20 21
M  V30 21 2 21 22
M  V30 22 1 22 23
M  V30 23 2 23 24
M  V30 24 1 18 25
M  V30 25 1 25 26
M  V30 26 1 26 6
M  V30 27 1 14 9
M  V30 28 2 26 16
M  V30 29 1 24 19
M  V30 30 1 1 27
M  V30 31 1 1 28
M  V30 32 1 1 29
M  V30 33 1 2 30 CFG=1
M  V30 34 1 3 31
M  V30 35 1 3 32
M  V30 36 1 4 33
M  V30 37 1 4 34
M  V30 38 1 5 35
M  V30 39 1 10 36
M  V30 40 1 11 37
M  V30 41 1 13 38
M  V30 42 1 14 39
M  V30 43 1 17 40
M  V30 44 1 20 41
M  V30 45 1 21 42
M  V30 46 1 22 43
M  V30 47 1 23 44
M  V30 48 1 24 45
M  V30 END BOND
M  V30 END CTAB
M  END
>  <Dataset>  (165) 
ChEMBL_Kinases

>  <Ligand_Instance>  (165) 
nan

>  <PDB_ID>  (165) 
nan

>  <Standardized_SMILES>  (165) 
C[C@@H](N)CNc1nc(-c2ccncc2)nc2cc(-c3ccccc3)sc12

>  <Name>  (165) 
nan

>  <Pocket>  (165) 
nan

>  <ATP_Site>  (165) 
nan

>  <Peripheral>  (165) 
nan

>  <Num_H_Atoms_ProtBoundConf>  (165) 
nan

>  <Num_Resolved_Atoms>  (165) 
nan

>  <Num_Not_Resolved_Atoms>  (165) 
nan

$$$$
CHEMBL3731598
     RDKit          3D

  0  0  0  0  0  0  0  0  0  0999 V3000
M  V30 BEGIN CTAB
M  V30 COUNTS 49 53 0 0 0
M  V30 BEGIN ATOM
M  V30 1 N 7.210858 -3.070869 -0.923565 0
M  V30 2 C 6.048341 -3.041299 -0.823092 0
M  V30 3 C 4.619398 -3.006837 -0.678082 0
M  V30 4 C 4.029512 -3.656162 0.381338 0
M  V30 5 C 2.672865 -3.602948 0.487000 0
M  V30 6 C 1.946396 -2.919932 -0.442371 0
M  V30 7 C 2.485782 -2.246824 -1.530362 0
M  V30 8 N 1.701608 -1.531337 -2.467249 0
M  V30 9 C 0.506920 -0.777165 -2.400609 0
M  V30 10 C -0.150537 -0.425747 -1.264362 0
M  V30 11 C -1.317457 0.291514 -1.357018 0
M  V30 12 C -1.980809 0.639082 -0.105438 0
M  V30 13 N -1.474431 0.318279 1.096723 0
M  V30 14 C -2.134414 0.662184 2.208674 0
M  V30 15 N -1.762753 0.424320 3.549492 0
M  V30 16 C -0.570705 -0.256525 3.955146 0 CFG=2
M  V30 17 C 0.705080 0.375739 3.395061 0
M  V30 18 C 1.665719 -0.786246 3.544088 0
M  V30 19 N 0.880666 -2.000727 3.595098 0
M  V30 20 C -0.500311 -1.623519 3.319435 0
M  V30 21 C -3.305836 1.332216 2.039715 0
M  V30 22 S -4.531403 1.993707 3.245065 0
M  V30 23 C -5.715115 2.701410 1.933992 0
M  V30 24 C -5.064916 2.365347 0.767592 0
M  V30 25 C -3.886472 1.696515 0.791623 0
M  V30 26 N -3.136529 1.299373 -0.241677 0
M  V30 27 C -1.827267 0.657795 -2.582930 0
M  V30 28 C -1.140760 0.288835 -3.715580 0
M  V30 29 N -0.008506 -0.409080 -3.583728 0
M  V30 30 C 3.854456 -2.328542 -1.595058 0
M  V30 31 H 4.652159 -4.184308 1.091101 0
M  V30 32 H 2.255653 -4.131316 1.334023 0
M  V30 33 H 0.881960 -2.949641 -0.267879 0
M  V30 34 H 2.184585 -1.634400 -3.413264 0
M  V30 35 H 0.238633 -0.697752 -0.319692 0
M  V30 36 H -2.351912 0.740495 4.349148 0
M  V30 37 H -0.473646 -0.327570 5.067440 0
M  V30 38 H 0.522552 0.631191 2.347572 0
M  V30 39 H 1.003878 1.269647 3.982119 0
M  V30 40 H 2.383235 -0.837341 2.721823 0
M  V30 41 H 2.203559 -0.658552 4.507532 0
M  V30 42 H 1.169746 -2.656772 2.860713 0
M  V30 43 H -0.605261 -1.521856 2.235114 0
M  V30 44 H -1.218129 -2.335007 3.754448 0
M  V30 45 H -6.541910 3.160796 2.230523 0
M  V30 46 H -5.585104 2.684355 -0.116309 0
M  V30 47 H -2.763183 1.232309 -2.621547 0
M  V30 48 H -1.522419 0.564597 -4.668015 0
M  V30 49 H 4.339124 -1.818888 -2.428172 0
M  V30 END ATOM
M  V30 BEGIN BOND
M  V30 1 3 1 2
M  V30 2 1 2 3
M  V30 3 2 3 4
M  V30 4 1 4 5
M  V30 5 2 5 6
M  V30 6 1 6 7
M  V30 7 1 7 8
M  V30 8 1 8 9
M  V30 9 2 9 10
M  V30 10 1 10 11
M  V30 11 1 11 12
M  V30 12 2 12 13
M  V30 13 1 13 14
M  V30 14 1 14 15
M  V30 15 1 15 16
M  V30 16 1 16 17
M  V30 17 1 17 18
M  V30 18 1 18 19
M  V30 19 1 19 20
M  V30 20 2 14 21
M  V30 21 1 21 22
M  V30 22 1 22 23
M  V30 23 2 23 24
M  V30 24 1 24 25
M  V30 25 2 25 26
M  V30 26 2 11 27
M  V30 27 1 27 28
M  V30 28 2 28 29
M  V30 29 2 7 30
M  V30 30 1 30 3
M  V30 31 1 29 9
M  V30 32 1 26 12
M  V30 33 1 20 16
M  V30 34 1 25 21
M  V30 35 1 4 31
M  V30 36 1 5 32
M  V30 37 1 6 33
M  V30 38 1 8 34
M  V30 39 1 10 35
M  V30 40 1 15 36
M  V30 41 1 16 37 CFG=1
M  V30 42 1 17 38
M  V30 43 1 17 39
M  V30 44 1 18 40
M  V30 45 1 18 41
M  V30 46 1 19 42
M  V30 47 1 20 43
M  V30 48 1 20 44
M  V30 49 1 23 45
M  V30 50 1 24 46
M  V30 51 1 27 47
M  V30 52 1 28 48
M  V30 53 1 30 49
M  V30 END BOND
M  V30 END CTAB
M  END
>  <Dataset>  (166) 
ChEMBL_Kinases

>  <Ligand_Instance>  (166) 
nan

>  <PDB_ID>  (166) 
nan

>  <Standardized_SMILES>  (166) 
N#Cc1cccc(Nc2cc(-c3nc(N[C@@H]4CCNC4)c4sccc4n3)ccn2)c1

>  <Name>  (166) 
nan

>  <Pocket>  (166) 
nan

>  <ATP_Site>  (166) 
nan

>  <Peripheral>  (166) 
nan

>  <Num_H_Atoms_ProtBoundConf>  (166) 
nan

>  <Num_Resolved_Atoms>  (166) 
nan

>  <Num_Not_Resolved_Atoms>  (166) 
nan

$$$$
CHEMBL3731582
     RDKit          3D

  0  0  0  0  0  0  0  0  0  0999 V3000
M  V30 BEGIN CTAB
M  V30 COUNTS 55 59 0 0 0
M  V30 BEGIN ATOM
M  V30 1 N 3.776681 -3.214199 3.142458 0
M  V30 2 C 2.577061 -3.643957 2.537821 0 CFG=1
M  V30 3 C 1.464116 -2.638833 2.463254 0
M  V30 4 N 1.781836 -1.426827 1.753756 0
M  V30 5 C 0.646379 -0.770267 1.330902 0
M  V30 6 N 1.431601 0.361228 0.913555 0
M  V30 7 C 0.795545 1.438984 0.350346 0
M  V30 8 C 1.547905 2.703547 -0.088747 0
M  V30 9 C 2.894693 2.590384 0.188502 0
M  V30 10 C 3.605797 3.747067 -0.185475 0
M  V30 11 N 3.013039 4.831062 -0.751702 0
M  V30 12 C 1.676111 4.817785 -0.975079 0
M  V30 13 C 0.878191 3.751452 -0.653297 0
M  V30 14 N -0.553113 1.542812 0.139684 0
M  V30 15 C -1.437900 0.565626 0.473803 0
M  V30 16 C -2.707532 0.231030 0.466268 0
M  V30 17 C -3.573239 1.235942 -0.106132 0
M  V30 18 C -3.363559 1.918554 -1.314672 0
M  V30 19 C -4.309248 2.849004 -1.694271 0
M  V30 20 C -5.448725 3.164280 -0.981640 0
M  V30 21 Br -6.696114 4.472695 -1.598656 0
M  V30 22 C -5.634508 2.480133 0.204802 0
M  V30 23 C -4.706669 1.547900 0.607057 0
M  V30 24 C -3.066370 -1.067063 1.003959 0
M  V30 25 S -1.346116 -1.652940 1.479690 0
M  V30 26 C -0.396486 -0.083788 0.893907 0
M  V30 27 C 2.853009 -4.287701 1.197459 0
M  V30 28 C 1.550141 -4.739025 0.578983 0
M  V30 29 C 1.055857 -5.994075 0.879473 0
M  V30 30 C -0.151565 -6.377120 0.330318 0
M  V30 31 C -0.900635 -5.581372 -0.504976 0
M  V30 32 C -0.380925 -4.316647 -0.797530 0
M  V30 33 C 0.835907 -3.900202 -0.258246 0
M  V30 34 H 3.685800 -2.515710 3.918357 0
M  V30 35 H 4.504192 -2.956482 2.436101 0
M  V30 36 H 2.166685 -4.493381 3.173772 0
M  V30 37 H 1.255359 -2.343908 3.533893 0
M  V30 38 H 0.554238 -3.160301 2.113768 0
M  V30 39 H 2.780692 -1.365103 1.746756 0
M  V30 40 H 3.369717 1.731585 0.635934 0
M  V30 41 H 4.671526 3.790702 -0.020839 0
M  V30 42 H 1.262652 5.696870 -1.419879 0
M  V30 43 H -0.169028 3.703982 -0.808962 0
M  V30 44 H -2.478602 1.657590 -1.855946 0
M  V30 45 H -4.155363 3.385674 -2.641853 0
M  V30 46 H -6.548178 2.762746 0.741426 0
M  V30 47 H -4.971844 1.085730 1.551855 0
M  V30 48 H -4.136513 -1.306076 0.978189 0
M  V30 49 H 3.468382 -5.197759 1.309694 0
M  V30 50 H 3.403104 -3.630262 0.506542 0
M  V30 51 H 1.582417 -6.688083 1.533568 0
M  V30 52 H -0.555591 -7.338763 0.544653 0
M  V30 53 H -1.849343 -5.814519 -0.966976 0
M  V30 54 H -0.846194 -3.580065 -1.434673 0
M  V30 55 H 1.239808 -2.920871 -0.493704 0
M  V30 END ATOM
M  V30 BEGIN BOND
M  V30 1 1 1 2
M  V30 2 1 2 3
M  V30 3 1 3 4
M  V30 4 1 4 5
M  V30 5 2 5 6
M  V30 6 1 6 7
M  V30 7 1 7 8
M  V30 8 2 8 9
M  V30 9 1 9 10
M  V30 10 2 10 11
M  V30 11 1 11 12
M  V30 12 2 12 13
M  V30 13 2 7 14
M  V30 14 1 14 15
M  V30 15 1 15 16
M  V30 16 1 16 17
M  V30 17 2 17 18
M  V30 18 1 18 19
M  V30 19 2 19 20
M  V30 20 1 20 21
M  V30 21 1 20 22
M  V30 22 2 22 23
M  V30 23 2 16 24
M  V30 24 1 24 25
M  V30 25 1 25 26
M  V30 26 1 2 27
M  V30 27 1 27 28
M  V30 28 2 28 29
M  V30 29 1 29 30
M  V30 30 2 30 31
M  V30 31 1 31 32
M  V30 32 2 32 33
M  V30 33 1 26 5
M  V30 34 1 33 28
M  V30 35 1 13 8
M  V30 36 2 26 15
M  V30 37 1 23 17
M  V30 38 1 1 34
M  V30 39 1 1 35
M  V30 40 1 2 36 CFG=1
M  V30 41 1 3 37
M  V30 42 1 3 38
M  V30 43 1 4 39
M  V30 44 1 9 40
M  V30 45 1 10 41
M  V30 46 1 12 42
M  V30 47 1 13 43
M  V30 48 1 18 44
M  V30 49 1 19 45
M  V30 50 1 22 46
M  V30 51 1 23 47
M  V30 52 1 24 48
M  V30 53 1 27 49
M  V30 54 1 27 50
M  V30 55 1 29 51
M  V30 56 1 30 52
M  V30 57 1 31 53
M  V30 58 1 32 54
M  V30 59 1 33 55
M  V30 END BOND
M  V30 END CTAB
M  END
>  <Dataset>  (167) 
ChEMBL_Kinases

>  <Ligand_Instance>  (167) 
nan

>  <PDB_ID>  (167) 
nan

>  <Standardized_SMILES>  (167) 
N[C@@H](CNc1nc(-c2ccncc2)nc2c(-c3ccc(Br)cc3)csc12)Cc1ccccc1

>  <Name>  (167) 
nan

>  <Pocket>  (167) 
nan

>  <ATP_Site>  (167) 
nan

>  <Peripheral>  (167) 
nan

>  <Num_H_Atoms_ProtBoundConf>  (167) 
nan

>  <Num_Resolved_Atoms>  (167) 
nan

>  <Num_Not_Resolved_Atoms>  (167) 
nan

$$$$
CHEMBL3731569
     RDKit          3D

  0  0  0  0  0  0  0  0  0  0999 V3000
M  V30 BEGIN CTAB
M  V30 COUNTS 59 64 0 0 0
M  V30 BEGIN ATOM
M  V30 1 Cl 1.904139 -7.244562 3.382212 0
M  V30 2 C 2.386236 -5.898115 2.396190 0
M  V30 3 C 2.031213 -5.849084 1.057141 0
M  V30 4 C 2.409733 -4.789204 0.277227 0
M  V30 5 C 3.157297 -3.719658 0.768370 0
M  V30 6 C 3.576833 -2.562518 -0.065430 0
M  V30 7 N 2.560048 -1.565799 0.004958 0
M  V30 8 C 2.295447 -1.056772 1.298067 0
M  V30 9 C 1.308857 0.044192 1.312811 0
M  V30 10 N 0.599557 0.187606 0.057102 0
M  V30 11 C -0.695192 0.771264 0.115733 0
M  V30 12 N -0.626123 2.030204 -0.348884 0
M  V30 13 C -1.642819 2.905505 -0.403285 0
M  V30 14 C -1.562375 4.269240 -0.909632 0
M  V30 15 C -0.323394 4.701028 -1.379956 0
M  V30 16 C -0.274183 6.005736 -1.858492 0
M  V30 17 N -1.363517 6.798619 -1.863900 0
M  V30 18 C -2.537960 6.366042 -1.409944 0
M  V30 19 C -2.682633 5.091886 -0.917707 0
M  V30 20 N -2.812675 2.434386 0.059362 0
M  V30 21 C -2.918615 1.171334 0.533708 0
M  V30 22 S -4.266312 0.279646 1.186736 0
M  V30 23 C -3.383211 -1.230614 1.495794 0
M  V30 24 C -2.093378 -0.960891 1.075367 0
M  V30 25 C -1.900947 0.301161 0.585127 0
M  V30 26 C -1.283924 -2.187246 1.267522 0
M  V30 27 C -1.989628 -3.412491 0.776881 0
M  V30 28 C -3.425321 -3.548323 1.078584 0
M  V30 29 C -3.880377 -2.509234 2.080774 0
M  V30 30 C 1.053584 -0.187887 -1.268150 0
M  V30 31 C 2.494708 -0.645800 -1.082300 0
M  V30 32 C 3.486577 -3.812954 2.105704 0
M  V30 33 C 3.123669 -4.867913 2.930706 0
M  V30 34 H 1.450717 -6.629723 0.580967 0
M  V30 35 H 2.136362 -4.740381 -0.775351 0
M  V30 36 H 4.516457 -2.167773 0.386626 0
M  V30 37 H 3.708692 -2.894281 -1.093379 0
M  V30 38 H 3.281603 -0.777621 1.751827 0
M  V30 39 H 1.837011 -1.891747 1.914348 0
M  V30 40 H 0.602343 0.008355 2.170176 0
M  V30 41 H 1.865050 1.020499 1.461995 0
M  V30 42 H 0.546919 4.057112 -1.370215 0
M  V30 43 H 0.692143 6.349247 -2.227300 0
M  V30 44 H -3.436560 6.992679 -1.406113 0
M  V30 45 H -3.633180 4.733531 -0.545865 0
M  V30 46 H -0.307089 -2.150598 0.692912 0
M  V30 47 H -0.990484 -2.344805 2.325136 0
M  V30 48 H -1.835535 -3.509908 -0.320087 0
M  V30 49 H -1.466944 -4.299692 1.207522 0
M  V30 50 H -4.020129 -3.339083 0.151314 0
M  V30 51 H -3.703857 -4.542717 1.483831 0
M  V30 52 H -4.962984 -2.467539 2.154212 0
M  V30 53 H -3.378063 -2.759099 3.044941 0
M  V30 54 H 1.073080 0.720260 -1.902712 0
M  V30 55 H 0.435195 -0.932910 -1.765443 0
M  V30 56 H 2.930650 -1.085096 -1.979705 0
M  V30 57 H 3.120271 0.230444 -0.808661 0
M  V30 58 H 4.071329 -3.014321 2.564480 0
M  V30 59 H 3.410557 -4.888550 3.975689 0
M  V30 END ATOM
M  V30 BEGIN BOND
M  V30 1 1 1 2
M  V30 2 2 2 3
M  V30 3 1 3 4
M  V30 4 2 4 5
M  V30 5 1 5 6
M  V30 6 1 6 7
M  V30 7 1 7 8
M  V30 8 1 8 9
M  V30 9 1 9 10
M  V30 10 1 10 11
M  V30 11 2 11 12
M  V30 12 1 12 13
M  V30 13 1 13 14
M  V30 14 2 14 15
M  V30 15 1 15 16
M  V30 16 2 16 17
M  V30 17 1 17 18
M  V30 18 2 18 19
M  V30 19 2 13 20
M  V30 20 1 20 21
M  V30 21 1 21 22
M  V30 22 1 22 23
M  V30 23 2 23 24
M  V30 24 1 24 25
M  V30 25 1 24 26
M  V30 26 1 26 27
M  V30 27 1 27 28
M  V30 28 1 28 29
M  V30 29 1 10 30
M  V30 30 1 30 31
M  V30 31 1 5 32
M  V30 32 2 32 33
M  V30 33 1 33 2
M  V30 34 1 31 7
M  V30 35 1 25 11
M  V30 36 1 19 14
M  V30 37 2 25 21
M  V30 38 1 29 23
M  V30 39 1 3 34
M  V30 40 1 4 35
M  V30 41 1 6 36
M  V30 42 1 6 37
M  V30 43 1 8 38
M  V30 44 1 8 39
M  V30 45 1 9 40
M  V30 46 1 9 41
M  V30 47 1 15 42
M  V30 48 1 16 43
M  V30 49 1 18 44
M  V30 50 1 19 45
M  V30 51 1 26 46
M  V30 52 1 26 47
M  V30 53 1 27 48
M  V30 54 1 27 49
M  V30 55 1 28 50
M  V30 56 1 28 51
M  V30 57 1 29 52
M  V30 58 1 29 53
M  V30 59 1 30 54
M  V30 60 1 30 55
M  V30 61 1 31 56
M  V30 62 1 31 57
M  V30 63 1 32 58
M  V30 64 1 33 59
M  V30 END BOND
M  V30 END CTAB
M  END
>  <Dataset>  (168) 
ChEMBL_Kinases

>  <Ligand_Instance>  (168) 
nan

>  <PDB_ID>  (168) 
nan

>  <Standardized_SMILES>  (168) 
Clc1ccc(CN2CCN(c3nc(-c4ccncc4)nc4sc5c(c34)CCCC5)CC2)cc1

>  <Name>  (168) 
nan

>  <Pocket>  (168) 
nan

>  <ATP_Site>  (168) 
nan

>  <Peripheral>  (168) 
nan

>  <Num_H_Atoms_ProtBoundConf>  (168) 
nan

>  <Num_Resolved_Atoms>  (168) 
nan

>  <Num_Not_Resolved_Atoms>  (168) 
nan

$$$$
CHEMBL3731554
     RDKit          3D

  0  0  0  0  0  0  0  0  0  0999 V3000
M  V30 BEGIN CTAB
M  V30 COUNTS 41 43 0 0 0
M  V30 BEGIN ATOM
M  V30 1 C -3.350833 -4.505687 1.843301 0
M  V30 2 C -1.982586 -4.473847 1.193860 0
M  V30 3 C -1.077063 -5.506637 1.833831 0
M  V30 4 C -1.328625 -3.195924 1.188034 0
M  V30 5 C -0.868081 -2.299659 0.276351 0
M  V30 6 C -0.273430 -1.135944 0.691993 0
M  V30 7 C 0.237349 -0.141121 -0.111744 0
M  V30 8 N 0.209722 -0.200711 -1.526846 0
M  V30 9 C 0.753126 0.857679 -2.357346 0
M  V30 10 C 2.215355 1.084872 -2.118172 0
M  V30 11 N 2.971137 -0.123204 -2.406302 0
M  V30 12 N 0.785488 0.932313 0.463410 0
M  V30 13 C 0.895328 1.152299 1.779010 0
M  V30 14 C 1.497818 2.332080 2.381359 0
M  V30 15 C 1.550027 2.439679 3.754463 0
M  V30 16 C 2.145221 3.604650 4.222030 0
M  V30 17 N 2.637305 4.562947 3.412637 0
M  V30 18 C 2.578952 4.443502 2.079054 0
M  V30 19 C 2.001692 3.313248 1.530943 0
M  V30 20 N 0.394058 0.175943 2.555553 0
M  V30 21 C -0.167943 -0.924202 2.073081 0
M  V30 22 S -0.921740 -2.394259 2.802987 0
M  V30 23 H -4.108655 -5.059744 1.217517 0
M  V30 24 H -3.286017 -5.114725 2.788038 0
M  V30 25 H -3.771426 -3.498176 2.006827 0
M  V30 26 H -2.143482 -4.792296 0.144481 0
M  V30 27 H -1.360929 -6.551226 1.590284 0
M  V30 28 H -0.011578 -5.293790 1.618176 0
M  V30 29 H -1.172930 -5.368673 2.949568 0
M  V30 30 H -1.032260 -2.624588 -0.738548 0
M  V30 31 H -0.227838 -1.057372 -1.972320 0
M  V30 32 H 0.613762 0.592183 -3.413001 0
M  V30 33 H 0.215609 1.817328 -2.179738 0
M  V30 34 H 2.458515 1.503328 -1.130039 0
M  V30 35 H 2.543274 1.846689 -2.865892 0
M  V30 36 H 3.213108 -0.648881 -1.534129 0
M  V30 37 H 2.415773 -0.703362 -3.073419 0
M  V30 38 H 1.158147 1.676604 4.415345 0
M  V30 39 H 2.202154 3.720317 5.309619 0
M  V30 40 H 2.974423 5.213582 1.409610 0
M  V30 41 H 1.970906 3.248733 0.451217 0
M  V30 END ATOM
M  V30 BEGIN BOND
M  V30 1 1 1 2
M  V30 2 1 2 3
M  V30 3 1 2 4
M  V30 4 2 4 5
M  V30 5 1 5 6
M  V30 6 2 6 7
M  V30 7 1 7 8
M  V30 8 1 8 9
M  V30 9 1 9 10
M  V30 10 1 10 11
M  V30 11 1 7 12
M  V30 12 2 12 13
M  V30 13 1 13 14
M  V30 14 2 14 15
M  V30 15 1 15 16
M  V30 16 2 16 17
M  V30 17 1 17 18
M  V30 18 2 18 19
M  V30 19 1 13 20
M  V30 20 2 20 21
M  V30 21 1 21 22
M  V30 22 1 22 4
M  V30 23 1 21 6
M  V30 24 1 19 14
M  V30 25 1 1 23
M  V30 26 1 1 24
M  V30 27 1 1 25
M  V30 28 1 2 26
M  V30 29 1 3 27
M  V30 30 1 3 28
M  V30 31 1 3 29
M  V30 32 1 5 30
M  V30 33 1 8 31
M  V30 34 1 9 32
M  V30 35 1 9 33
M  V30 36 1 10 34
M  V30 37 1 10 35
M  V30 38 1 11 36
M  V30 39 1 11 37
M  V30 40 1 15 38
M  V30 41 1 16 39
M  V30 42 1 18 40
M  V30 43 1 19 41
M  V30 END BOND
M  V30 END CTAB
M  END
>  <Dataset>  (169) 
ChEMBL_Kinases

>  <Ligand_Instance>  (169) 
nan

>  <PDB_ID>  (169) 
nan

>  <Standardized_SMILES>  (169) 
CC(C)c1cc2c(NCCN)nc(-c3ccncc3)nc2s1

>  <Name>  (169) 
nan

>  <Pocket>  (169) 
nan

>  <ATP_Site>  (169) 
nan

>  <Peripheral>  (169) 
nan

>  <Num_H_Atoms_ProtBoundConf>  (169) 
nan

>  <Num_Resolved_Atoms>  (169) 
nan

>  <Num_Not_Resolved_Atoms>  (169) 
nan

$$$$
CHEMBL3731552
     RDKit          3D

  0  0  0  0  0  0  0  0  0  0999 V3000
M  V30 BEGIN CTAB
M  V30 COUNTS 50 54 0 0 0
M  V30 BEGIN ATOM
M  V30 1 C 0.312548 -1.088975 5.013401 0
M  V30 2 C 0.932885 -2.308519 4.465045 0
M  V30 3 N 1.701167 -3.153356 5.176726 0
M  V30 4 N 2.108568 -4.151243 4.404904 0
M  V30 5 C 1.599851 -3.957668 3.169124 0
M  V30 6 C 1.746325 -4.778973 1.925034 0
M  V30 7 C 0.845157 -2.798376 3.158433 0
M  V30 8 C 0.085460 -2.127944 2.110131 0
M  V30 9 N 0.669582 -1.208528 1.332714 0
M  V30 10 C 0.093422 -0.521402 0.340406 0
M  V30 11 N 0.967516 0.409356 -0.333124 0
M  V30 12 C 2.311951 0.510566 0.131345 0 CFG=2
M  V30 13 C 2.429255 1.043016 1.558290 0
M  V30 14 C 2.373929 2.553582 1.288320 0
M  V30 15 N 3.228306 2.711310 0.136191 0
M  V30 16 C 3.107783 1.503041 -0.640768 0
M  V30 17 C -1.233686 -0.759242 0.064034 0
M  V30 18 C -1.949599 -0.133311 -0.917133 0
M  V30 19 C -3.327542 -0.572733 -0.991791 0
M  V30 20 S -3.461372 -1.793182 0.300381 0
M  V30 21 C -1.829016 -1.691605 0.851120 0
M  V30 22 N -1.208071 -2.361067 1.842047 0
M  V30 23 C -4.345728 -0.066259 -1.963135 0
M  V30 24 C -3.764854 -0.071451 -3.382343 0
M  V30 25 C -2.272882 0.188723 -3.330539 0
M  V30 26 C -1.902465 0.862476 -1.996565 0
M  V30 27 H -0.159733 -1.322742 5.970458 0
M  V30 28 H 1.092933 -0.331707 5.203281 0
M  V30 29 H -0.474933 -0.672275 4.357624 0
M  V30 30 H 2.710112 -4.979790 4.612992 0
M  V30 31 H 0.794040 -4.791056 1.336829 0
M  V30 32 H 2.518065 -4.362818 1.237474 0
M  V30 33 H 1.945240 -5.848339 2.183357 0
M  V30 34 H 0.865980 1.063539 -1.116462 0
M  V30 35 H 2.835956 -0.480425 0.134527 0
M  V30 36 H 1.626666 0.733013 2.220694 0
M  V30 37 H 3.433392 0.793823 1.899287 0
M  V30 38 H 1.306790 2.764322 1.065992 0
M  V30 39 H 2.759317 3.113843 2.158360 0
M  V30 40 H 2.995642 3.557041 -0.406725 0
M  V30 41 H 4.126615 1.110890 -0.917467 0
M  V30 42 H 2.644908 1.776898 -1.618988 0
M  V30 43 H -5.194971 -0.754517 -1.972807 0
M  V30 44 H -4.583368 0.959172 -1.685517 0
M  V30 45 H -3.905919 -1.095074 -3.799143 0
M  V30 46 H -4.327668 0.674921 -3.950402 0
M  V30 47 H -1.691355 -0.751928 -3.360339 0
M  V30 48 H -1.981011 0.910992 -4.117359 0
M  V30 49 H -0.972905 1.375354 -2.170976 0
M  V30 50 H -2.680760 1.677191 -1.807675 0
M  V30 END ATOM
M  V30 BEGIN BOND
M  V30 1 1 1 2
M  V30 2 2 2 3
M  V30 3 1 3 4
M  V30 4 1 4 5
M  V30 5 1 5 6
M  V30 6 2 5 7
M  V30 7 1 7 8
M  V30 8 2 8 9
M  V30 9 1 9 10
M  V30 10 1 10 11
M  V30 11 1 11 12
M  V30 12 1 12 13
M  V30 13 1 13 14
M  V30 14 1 14 15
M  V30 15 1 15 16
M  V30 16 2 10 17
M  V30 17 1 17 18
M  V30 18 2 18 19
M  V30 19 1 19 20
M  V30 20 1 20 21
M  V30 21 2 21 22
M  V30 22 1 19 23
M  V30 23 1 23 24
M  V30 24 1 24 25
M  V30 25 1 25 26
M  V30 26 1 7 2
M  V30 27 1 22 8
M  V30 28 1 16 12
M  V30 29 1 21 17
M  V30 30 1 26 18
M  V30 31 1 1 27
M  V30 32 1 1 28
M  V30 33 1 1 29
M  V30 34 1 4 30
M  V30 35 1 6 31
M  V30 36 1 6 32
M  V30 37 1 6 33
M  V30 38 1 11 34
M  V30 39 1 12 35 CFG=1
M  V30 40 1 13 36
M  V30 41 1 13 37
M  V30 42 1 14 38
M  V30 43 1 14 39
M  V30 44 1 15 40
M  V30 45 1 16 41
M  V30 46 1 16 42
M  V30 47 1 23 43
M  V30 48 1 23 44
M  V30 49 1 24 45
M  V30 50 1 24 46
M  V30 51 1 25 47
M  V30 52 1 25 48
M  V30 53 1 26 49
M  V30 54 1 26 50
M  V30 END BOND
M  V30 END CTAB
M  END
>  <Dataset>  (170) 
ChEMBL_Kinases

>  <Ligand_Instance>  (170) 
nan

>  <PDB_ID>  (170) 
nan

>  <Standardized_SMILES>  (170) 
Cc1n[nH]c(C)c1-c1nc(N[C@@H]2CCNC2)c2c3c(sc2n1)CCCC3

>  <Name>  (170) 
nan

>  <Pocket>  (170) 
nan

>  <ATP_Site>  (170) 
nan

>  <Peripheral>  (170) 
nan

>  <Num_H_Atoms_ProtBoundConf>  (170) 
nan

>  <Num_Resolved_Atoms>  (170) 
nan

>  <Num_Not_Resolved_Atoms>  (170) 
nan

$$$$
CHEMBL3731537
     RDKit          3D

  0  0  0  0  0  0  0  0  0  0999 V3000
M  V30 BEGIN CTAB
M  V30 COUNTS 39 40 0 0 0
M  V30 BEGIN ATOM
M  V30 1 C 1.060831 -5.909147 -0.571854 0
M  V30 2 S 1.660750 -4.643960 0.541448 0
M  V30 3 O 2.808694 -5.173049 1.364280 0
M  V30 4 O 0.562117 -4.277522 1.490135 0
M  V30 5 C 2.153030 -3.243644 -0.374495 0
M  V30 6 C 3.395790 -3.094178 -0.901440 0
M  V30 7 C 3.816435 -1.996681 -1.630434 0
M  V30 8 C 2.830210 -1.010535 -1.793293 0
M  V30 9 C 1.545595 -1.163744 -1.248720 0
M  V30 10 N 0.916546 0.034409 -1.651671 0
M  V30 11 C 0.295271 1.215684 -2.048543 0
M  V30 12 C -0.215573 2.125473 -0.987874 0
M  V30 13 O -0.768933 3.184017 -1.379590 0
M  V30 14 N -0.017681 1.690224 0.346274 0
M  V30 15 N -0.243668 2.053057 1.699504 0
M  V30 16 C -1.394747 1.912034 2.241884 0
M  V30 17 C -2.104561 2.109721 3.484273 0
M  V30 18 C -3.412704 1.874172 3.845869 0
M  V30 19 Cl -4.365402 1.216299 2.535265 0
M  V30 20 C -3.770629 2.177231 5.130168 0
M  V30 21 N -2.960513 2.680204 6.057986 0
M  V30 22 C -1.670313 2.922585 5.734256 0
M  V30 23 C -1.226254 2.638991 4.438559 0
M  V30 24 Cl 0.467098 3.020313 4.215749 0
M  V30 25 C 1.197930 -2.273307 -0.540024 0
M  V30 26 H 0.147023 -6.378502 -0.127095 0
M  V30 27 H 1.883784 -6.657852 -0.657192 0
M  V30 28 H 0.761517 -5.494830 -1.539428 0
M  V30 29 H 4.045942 -3.927198 -0.698378 0
M  V30 30 H 4.837782 -2.061148 -1.965071 0
M  V30 31 H 3.308863 -0.209796 -2.386914 0
M  V30 32 H -0.011187 -0.197069 -1.162611 0
M  V30 33 H 1.013299 1.841729 -2.703536 0
M  V30 34 H -0.543737 1.051577 -2.767234 0
M  V30 35 H 0.446650 0.798986 0.603415 0
M  V30 36 H -2.137588 1.491690 1.543068 0
M  V30 37 H -4.837411 1.938664 5.276523 0
M  V30 38 H -1.070391 3.328422 6.527888 0
M  V30 39 H 0.183098 -2.234124 -0.195031 0
M  V30 END ATOM
M  V30 BEGIN BOND
M  V30 1 1 1 2
M  V30 2 2 2 3
M  V30 3 2 2 4
M  V30 4 1 2 5
M  V30 5 2 5 6
M  V30 6 1 6 7
M  V30 7 2 7 8
M  V30 8 1 8 9
M  V30 9 1 9 10
M  V30 10 1 10 11
M  V30 11 1 11 12
M  V30 12 2 12 13
M  V30 13 1 12 14
M  V30 14 1 14 15
M  V30 15 2 15 16
M  V30 16 1 16 17
M  V30 17 2 17 18
M  V30 18 1 18 19
M  V30 19 1 18 20
M  V30 20 2 20 21
M  V30 21 1 21 22
M  V30 22 2 22 23
M  V30 23 1 23 24
M  V30 24 2 9 25
M  V30 25 1 25 5
M  V30 26 1 23 17
M  V30 27 1 1 26
M  V30 28 1 1 27
M  V30 29 1 1 28
M  V30 30 1 6 29
M  V30 31 1 7 30
M  V30 32 1 8 31
M  V30 33 1 10 32
M  V30 34 1 11 33
M  V30 35 1 11 34
M  V30 36 1 14 35
M  V30 37 1 16 36
M  V30 38 1 20 37
M  V30 39 1 22 38
M  V30 40 1 25 39
M  V30 END BOND
M  V30 END CTAB
M  END
>  <Dataset>  (171) 
ChEMBL_Kinases

>  <Ligand_Instance>  (171) 
nan

>  <PDB_ID>  (171) 
nan

>  <Standardized_SMILES>  (171) 
CS(=O)(=O)c1cccc(NCC(=O)N/N=C/c2c(Cl)cncc2Cl)c1

>  <Name>  (171) 
nan

>  <Pocket>  (171) 
nan

>  <ATP_Site>  (171) 
nan

>  <Peripheral>  (171) 
nan

>  <Num_H_Atoms_ProtBoundConf>  (171) 
nan

>  <Num_Resolved_Atoms>  (171) 
nan

>  <Num_Not_Resolved_Atoms>  (171) 
nan

$$$$
CHEMBL3732694
     RDKit          3D

  0  0  0  0  0  0  0  0  0  0999 V3000
M  V30 BEGIN CTAB
M  V30 COUNTS 66 70 0 0 0
M  V30 BEGIN ATOM
M  V30 1 C 2.244805 -2.780598 5.444998 0
M  V30 2 N 1.675573 -3.041267 4.119313 0
M  V30 3 C 0.999056 -2.143881 3.346424 0
M  V30 4 N 0.927812 -0.887034 4.054272 0
M  V30 5 C 2.209619 -0.209233 4.143165 0
M  V30 6 C 2.043624 1.128252 3.448998 0
M  V30 7 O 1.055912 1.872386 4.029307 0
M  V30 8 C -0.162069 1.260244 4.148813 0 CFG=1
M  V30 9 C -0.857619 1.383519 2.841803 0
M  V30 10 C -0.590044 2.605134 2.240119 0
M  V30 11 C -1.177783 2.906470 1.007100 0
M  V30 12 C -1.994836 1.932314 0.483939 0
M  V30 13 N -2.668276 2.039876 -0.784698 0
M  V30 14 C -1.755608 1.395972 -1.664061 0
M  V30 15 O -0.650301 0.897709 -1.251378 0
M  V30 16 C -1.687770 1.079573 -3.123842 0
M  V30 17 C -0.426523 0.205927 -3.267778 0
M  V30 18 C -0.469266 -0.458042 -4.651549 0
M  V30 19 C -0.914493 0.568074 -5.677491 0
M  V30 20 C -0.648970 1.970813 -5.196375 0
M  V30 21 C -1.407269 2.320397 -3.934074 0
M  V30 22 C -2.261005 0.718501 1.082663 0
M  V30 23 C -1.679721 0.419505 2.304937 0
M  V30 24 C -0.112263 -0.119648 4.710657 0
M  V30 25 N 0.516633 -2.461728 2.152368 0
M  V30 26 C 0.671628 -3.692843 1.641531 0
M  V30 27 C 0.126770 -4.036831 0.339569 0
M  V30 28 C 0.289222 -5.293687 -0.186568 0
M  V30 29 C -0.236926 -5.622465 -1.408350 0
M  V30 30 N -0.940398 -4.711697 -2.144552 0
M  V30 31 C -1.099865 -3.475730 -1.626226 0
M  V30 32 C -0.584232 -3.097948 -0.392220 0
M  V30 33 F -0.715059 -1.876910 0.156870 0
M  V30 34 C 1.347116 -4.619050 2.392676 0
M  V30 35 C 1.852775 -4.299071 3.633830 0
M  V30 36 O 2.482741 -5.165374 4.330633 0
M  V30 37 H 2.245294 -3.748940 6.003741 0
M  V30 38 H 1.631912 -2.064182 6.025277 0
M  V30 39 H 3.294249 -2.452154 5.345143 0
M  V30 40 H 2.463205 0.046439 5.202697 0
M  V30 41 H 3.021461 -0.751130 3.637349 0
M  V30 42 H 2.977491 1.708116 3.385914 0
M  V30 43 H 1.728748 0.938488 2.380483 0
M  V30 44 H -0.835273 1.839851 4.862680 0
M  V30 45 H 0.047217 3.379904 2.637166 0
M  V30 46 H -1.035978 3.821821 0.454787 0
M  V30 47 H -3.470621 2.342235 -1.363793 0
M  V30 48 H -2.568117 0.532267 -3.454514 0
M  V30 49 H 0.440394 0.864550 -3.139627 0
M  V30 50 H -0.402124 -0.574926 -2.492060 0
M  V30 51 H -1.181378 -1.290292 -4.666230 0
M  V30 52 H 0.530287 -0.868818 -4.873400 0
M  V30 53 H -1.971823 0.404583 -5.925637 0
M  V30 54 H -0.278441 0.422306 -6.581484 0
M  V30 55 H -0.888281 2.639268 -6.041872 0
M  V30 56 H 0.453158 2.064158 -5.049878 0
M  V30 57 H -0.703717 2.945907 -3.319994 0
M  V30 58 H -2.302974 2.915812 -4.165889 0
M  V30 59 H -2.905195 -0.065931 0.688911 0
M  V30 60 H -1.842088 -0.501988 2.827103 0
M  V30 61 H -1.045415 -0.674847 4.672956 0
M  V30 62 H 0.195296 -0.107268 5.800477 0
M  V30 63 H 0.817909 -6.092926 0.286114 0
M  V30 64 H -0.130904 -6.604312 -1.856725 0
M  V30 65 H -1.661633 -2.720847 -2.193253 0
M  V30 66 H 1.531134 -5.633074 2.085973 0
M  V30 END ATOM
M  V30 BEGIN BOND
M  V30 1 1 1 2
M  V30 2 1 2 3
M  V30 3 1 3 4
M  V30 4 1 4 5
M  V30 5 1 5 6
M  V30 6 1 6 7
M  V30 7 1 7 8
M  V30 8 1 8 9
M  V30 9 2 9 10
M  V30 10 1 10 11
M  V30 11 2 11 12
M  V30 12 1 12 13
M  V30 13 1 13 14
M  V30 14 2 14 15
M  V30 15 1 14 16
M  V30 16 1 16 17
M  V30 17 1 17 18
M  V30 18 1 18 19
M  V30 19 1 19 20
M  V30 20 1 20 21
M  V30 21 1 12 22
M  V30 22 2 22 23
M  V30 23 1 8 24
M  V30 24 2 3 25
M  V30 25 1 25 26
M  V30 26 1 26 27
M  V30 27 2 27 28
M  V30 28 1 28 29
M  V30 29 2 29 30
M  V30 30 1 30 31
M  V30 31 2 31 32
M  V30 32 1 32 33
M  V30 33 2 26 34
M  V30 34 1 34 35
M  V30 35 2 35 36
M  V30 36 1 35 2
M  V30 37 1 24 4
M  V30 38 1 32 27
M  V30 39 1 23 9
M  V30 40 1 21 16
M  V30 41 1 1 37
M  V30 42 1 1 38
M  V30 43 1 1 39
M  V30 44 1 5 40
M  V30 45 1 5 41
M  V30 46 1 6 42
M  V30 47 1 6 43
M  V30 48 1 8 44 CFG=1
M  V30 49 1 10 45
M  V30 50 1 11 46
M  V30 51 1 13 47
M  V30 52 1 16 48
M  V30 53 1 17 49
M  V30 54 1 17 50
M  V30 55 1 18 51
M  V30 56 1 18 52
M  V30 57 1 19 53
M  V30 58 1 19 54
M  V30 59 1 20 55
M  V30 60 1 20 56
M  V30 61 1 21 57
M  V30 62 1 21 58
M  V30 63 1 22 59
M  V30 64 1 23 60
M  V30 65 1 24 61
M  V30 66 1 24 62
M  V30 67 1 28 63
M  V30 68 1 29 64
M  V30 69 1 31 65
M  V30 70 1 34 66
M  V30 END BOND
M  V30 END CTAB
M  END
>  <Dataset>  (172) 
ChEMBL_Kinases

>  <Ligand_Instance>  (172) 
nan

>  <PDB_ID>  (172) 
nan

>  <Standardized_SMILES>  (172) 
Cn1c(N2CCO[C@@H](c3ccc(NC(=O)C4CCCCC4)cc3)C2)nc(-c2ccncc2F)cc1=O

>  <Name>  (172) 
nan

>  <Pocket>  (172) 
nan

>  <ATP_Site>  (172) 
nan

>  <Peripheral>  (172) 
nan

>  <Num_H_Atoms_ProtBoundConf>  (172) 
nan

>  <Num_Resolved_Atoms>  (172) 
nan

>  <Num_Not_Resolved_Atoms>  (172) 
nan

$$$$
CHEMBL3731525
     RDKit          3D

  0  0  0  0  0  0  0  0  0  0999 V3000
M  V30 BEGIN CTAB
M  V30 COUNTS 49 53 0 0 0
M  V30 BEGIN ATOM
M  V30 1 C 0.319174 -4.359505 5.119818 0
M  V30 2 C 0.950344 -4.404081 3.774772 0
M  V30 3 C 1.662028 -3.308062 3.292274 0
M  V30 4 C 2.226121 -3.399428 2.015554 0
M  V30 5 C 2.103897 -4.523102 1.227410 0
M  V30 6 N 2.754964 -4.367230 -0.048773 0
M  V30 7 C 1.562745 -4.051605 -0.804262 0
M  V30 8 C 0.992700 -2.814656 -0.820012 0
M  V30 9 C -0.134754 -2.442106 -1.510950 0
M  V30 10 C -0.646513 -1.079794 -1.399228 0
M  V30 11 N 0.091214 -0.225655 -0.615188 0
M  V30 12 C -0.437076 1.037367 -0.496111 0
M  V30 13 N 0.231370 1.999958 0.269736 0
M  V30 14 C -0.061851 3.345187 0.651291 0 CFG=2
M  V30 15 C 1.109093 4.053776 1.339714 0
M  V30 16 C 0.997253 3.598850 2.769900 0
M  V30 17 N -0.396314 3.438178 3.015657 0
M  V30 18 C -1.108170 3.390123 1.762919 0
M  V30 19 C -1.591604 1.393128 -1.108916 0
M  V30 20 S -2.479377 2.912376 -1.132928 0
M  V30 21 C -3.843130 2.229548 -2.258330 0
M  V30 22 C -3.460696 0.843485 -2.512880 0
M  V30 23 C -2.305534 0.515448 -1.887290 0
M  V30 24 N -1.791893 -0.740635 -2.013271 0
M  V30 25 C -0.751190 -3.432263 -2.270854 0
M  V30 26 C -0.174244 -4.695720 -2.258563 0
M  V30 27 N 0.949298 -5.013868 -1.551321 0
M  V30 28 N 1.407397 -5.538578 1.755614 0
M  V30 29 N 0.872345 -5.458878 2.960007 0
M  V30 30 H -0.009146 -3.292299 5.276598 0
M  V30 31 H -0.636925 -4.941755 5.064983 0
M  V30 32 H 0.982209 -4.655467 5.931037 0
M  V30 33 H 1.726572 -2.456548 3.957087 0
M  V30 34 H 2.749616 -2.466732 1.790734 0
M  V30 35 H 3.743498 -4.444900 -0.371127 0
M  V30 36 H 1.519787 -2.095573 -0.217212 0
M  V30 37 H 1.168067 1.682763 0.668567 0
M  V30 38 H -0.346666 3.950270 -0.216877 0
M  V30 39 H 0.942743 5.158282 1.331810 0
M  V30 40 H 2.064362 3.780120 0.897514 0
M  V30 41 H 1.444936 4.334916 3.475800 0
M  V30 42 H 1.505910 2.628849 2.950789 0
M  V30 43 H -0.652730 2.611698 3.597123 0
M  V30 44 H -1.731622 4.278299 1.590882 0
M  V30 45 H -1.770238 2.500236 1.705370 0
M  V30 46 H -4.731033 2.778576 -2.629959 0
M  V30 47 H -4.152999 0.330489 -3.146158 0
M  V30 48 H -1.626560 -3.195185 -2.825758 0
M  V30 49 H -0.644474 -5.495745 -2.851392 0
M  V30 END ATOM
M  V30 BEGIN BOND
M  V30 1 1 1 2
M  V30 2 2 2 3
M  V30 3 1 3 4
M  V30 4 2 4 5
M  V30 5 1 5 6
M  V30 6 1 6 7
M  V30 7 2 7 8
M  V30 8 1 8 9
M  V30 9 1 9 10
M  V30 10 2 10 11
M  V30 11 1 11 12
M  V30 12 1 12 13
M  V30 13 1 13 14
M  V30 14 1 14 15
M  V30 15 1 15 16
M  V30 16 1 16 17
M  V30 17 1 17 18
M  V30 18 2 12 19
M  V30 19 1 19 20
M  V30 20 1 20 21
M  V30 21 2 21 22
M  V30 22 1 22 23
M  V30 23 2 23 24
M  V30 24 2 9 25
M  V30 25 1 25 26
M  V30 26 2 26 27
M  V30 27 1 5 28
M  V30 28 2 28 29
M  V30 29 1 29 2
M  V30 30 1 27 7
M  V30 31 1 24 10
M  V30 32 1 18 14
M  V30 33 1 23 19
M  V30 34 1 1 30
M  V30 35 1 1 31
M  V30 36 1 1 32
M  V30 37 1 3 33
M  V30 38 1 4 34
M  V30 39 1 6 35
M  V30 40 1 8 36
M  V30 41 1 13 37
M  V30 42 1 14 38 CFG=3
M  V30 43 1 15 39
M  V30 44 1 15 40
M  V30 45 1 16 41
M  V30 46 1 16 42
M  V30 47 1 17 43
M  V30 48 1 18 44
M  V30 49 1 18 45
M  V30 50 1 21 46
M  V30 51 1 22 47
M  V30 52 1 25 48
M  V30 53 1 26 49
M  V30 END BOND
M  V30 END CTAB
M  END
>  <Dataset>  (173) 
ChEMBL_Kinases

>  <Ligand_Instance>  (173) 
nan

>  <PDB_ID>  (173) 
nan

>  <Standardized_SMILES>  (173) 
Cc1ccc(Nc2cc(-c3nc(N[C@@H]4CCNC4)c4sccc4n3)ccn2)nn1

>  <Name>  (173) 
nan

>  <Pocket>  (173) 
nan

>  <ATP_Site>  (173) 
nan

>  <Peripheral>  (173) 
nan

>  <Num_H_Atoms_ProtBoundConf>  (173) 
nan

>  <Num_Resolved_Atoms>  (173) 
nan

>  <Num_Not_Resolved_Atoms>  (173) 
nan

$$$$
CHEMBL3731522
     RDKit          3D

  0  0  0  0  0  0  0  0  0  0999 V3000
M  V30 BEGIN CTAB
M  V30 COUNTS 48 51 0 0 0
M  V30 BEGIN ATOM
M  V30 1 C 0.426521 -5.504717 -1.353882 0
M  V30 2 C -0.541975 -5.330853 -0.206368 0
M  V30 3 C -1.450139 -4.160770 -0.434986 0
M  V30 4 C -1.414446 -3.153306 0.682918 0
M  V30 5 C -0.095688 -2.616234 0.953808 0
M  V30 6 C 0.682702 -3.777663 1.136516 0
M  V30 7 S 2.336198 -3.212406 1.473632 0
M  V30 8 C 1.893219 -1.420359 1.350722 0
M  V30 9 N 2.670267 -0.302362 1.494970 0
M  V30 10 C 2.151746 0.904177 1.366219 0
M  V30 11 C 3.054441 2.025355 1.536778 0
M  V30 12 C 2.532809 3.316588 1.405832 0
M  V30 13 C 3.376411 4.398887 1.564658 0
M  V30 14 N 4.672163 4.205876 1.839594 0
M  V30 15 C 5.161488 2.944404 1.963265 0
M  V30 16 C 4.374082 1.796472 1.817317 0
M  V30 17 N 0.875292 0.918770 1.098474 0
M  V30 18 C 0.072981 -0.130522 0.947789 0
M  V30 19 N -1.292605 0.170544 0.657416 0
M  V30 20 C -1.729617 1.547607 0.542856 0
M  V30 21 C -3.166180 1.757075 0.238831 0 CFG=2
M  V30 22 C -3.402015 3.249807 0.164376 0
M  V30 23 N -4.050190 1.207804 1.232937 0
M  V30 24 C 0.527169 -1.415261 1.064309 0
M  V30 25 C 0.255364 -5.169723 1.073982 0
M  V30 26 H -0.012536 -6.218267 -2.110553 0
M  V30 27 H 0.729114 -4.560162 -1.826202 0
M  V30 28 H 1.323136 -6.056360 -0.968112 0
M  V30 29 H -1.110811 -6.275809 -0.109074 0
M  V30 30 H -1.176144 -3.687159 -1.393525 0
M  V30 31 H -2.483707 -4.536590 -0.533293 0
M  V30 32 H -2.240354 -2.467613 0.489925 0
M  V30 33 H -1.762000 -3.713384 1.613991 0
M  V30 34 H 1.470566 3.479826 1.180351 0
M  V30 35 H 3.028352 5.418748 1.474652 0
M  V30 36 H 6.218116 2.838851 2.186605 0
M  V30 37 H 4.783515 0.816782 1.919533 0
M  V30 38 H -2.157592 -0.319835 0.485251 0
M  V30 39 H -1.147659 2.062427 -0.279795 0
M  V30 40 H -1.448323 2.140312 1.449410 0
M  V30 41 H -3.397352 1.264030 -0.748360 0
M  V30 42 H -3.355491 3.619559 1.224464 0
M  V30 43 H -2.546316 3.756075 -0.356796 0
M  V30 44 H -4.364249 3.483228 -0.304486 0
M  V30 45 H -3.477516 0.914247 2.054585 0
M  V30 46 H -4.819971 1.861525 1.496627 0
M  V30 47 H -0.364450 -5.410191 1.954518 0
M  V30 48 H 1.135696 -5.826641 0.983044 0
M  V30 END ATOM
M  V30 BEGIN BOND
M  V30 1 1 1 2
M  V30 2 1 2 3
M  V30 3 1 3 4
M  V30 4 1 4 5
M  V30 5 2 5 6
M  V30 6 1 6 7
M  V30 7 1 7 8
M  V30 8 2 8 9
M  V30 9 1 9 10
M  V30 10 1 10 11
M  V30 11 2 11 12
M  V30 12 1 12 13
M  V30 13 2 13 14
M  V30 14 1 14 15
M  V30 15 2 15 16
M  V30 16 2 10 17
M  V30 17 1 17 18
M  V30 18 1 18 19
M  V30 19 1 19 20
M  V30 20 1 20 21
M  V30 21 1 21 22
M  V30 22 1 21 23
M  V30 23 2 18 24
M  V30 24 1 6 25
M  V30 25 1 25 2
M  V30 26 1 24 5
M  V30 27 1 24 8
M  V30 28 1 16 11
M  V30 29 1 1 26
M  V30 30 1 1 27
M  V30 31 1 1 28
M  V30 32 1 2 29
M  V30 33 1 3 30
M  V30 34 1 3 31
M  V30 35 1 4 32
M  V30 36 1 4 33
M  V30 37 1 12 34
M  V30 38 1 13 35
M  V30 39 1 15 36
M  V30 40 1 16 37
M  V30 41 1 19 38
M  V30 42 1 20 39
M  V30 43 1 20 40
M  V30 44 1 21 41 CFG=3
M  V30 45 1 22 42
M  V30 46 1 22 43
M  V30 47 1 22 44
M  V30 48 1 23 45
M  V30 49 1 23 46
M  V30 50 1 25 47
M  V30 51 1 25 48
M  V30 END BOND
M  V30 END CTAB
M  END
>  <Dataset>  (174) 
ChEMBL_Kinases

>  <Ligand_Instance>  (174) 
nan

>  <PDB_ID>  (174) 
nan

>  <Standardized_SMILES>  (174) 
CC1CCc2c(sc3nc(-c4ccncc4)nc(NC[C@H](C)N)c23)C1

>  <Name>  (174) 
nan

>  <Pocket>  (174) 
nan

>  <ATP_Site>  (174) 
nan

>  <Peripheral>  (174) 
nan

>  <Num_H_Atoms_ProtBoundConf>  (174) 
nan

>  <Num_Resolved_Atoms>  (174) 
nan

>  <Num_Not_Resolved_Atoms>  (174) 
nan

$$$$
CHEMBL522171
     RDKit          3D

  0  0  0  0  0  0  0  0  0  0999 V3000
M  V30 BEGIN CTAB
M  V30 COUNTS 39 42 0 0 0
M  V30 BEGIN ATOM
M  V30 1 C -1.367887 -6.486827 1.658660 0
M  V30 2 N -0.706977 -5.302198 1.522437 0
M  V30 3 C -0.029347 -4.103949 1.380611 0
M  V30 4 N 1.162047 -3.773305 0.852349 0
M  V30 5 C 1.560240 -2.511598 0.812723 0
M  V30 6 S 3.117364 -1.764154 0.140417 0
M  V30 7 C 2.484292 -0.008445 0.651698 0
M  V30 8 N 3.394077 1.096122 0.327393 0
M  V30 9 C 3.070487 1.780615 -0.922507 0
M  V30 10 C 1.704331 2.380312 -0.872201 0
M  V30 11 C 0.530976 1.777676 -1.316163 0
M  V30 12 C -0.693127 2.387527 -1.220233 0
M  V30 13 C -0.781293 3.655692 -0.661134 0
M  V30 14 C 0.346836 4.303647 -0.203838 0
M  V30 15 C 1.537558 3.633353 -0.331566 0
M  V30 16 N 1.496590 -0.321855 1.095981 0
M  V30 17 C 0.858369 -1.447240 1.275953 0
M  V30 18 C -0.399181 -1.688762 1.848293 0
M  V30 19 C -0.788589 -3.018418 1.873016 0
M  V30 20 N -2.006310 -2.950594 2.465353 0
M  V30 21 C -2.347001 -1.695275 2.781257 0
M  V30 22 N -1.341256 -0.900697 2.395526 0
M  V30 23 C -1.288962 0.524705 2.542844 0
M  V30 24 H -1.631221 -6.967947 0.664307 0
M  V30 25 H -0.909889 -7.313629 2.271015 0
M  V30 26 H -2.401519 -6.393600 2.133581 0
M  V30 27 H 0.106427 -5.891074 1.122563 0
M  V30 28 H 4.156935 1.285115 0.989483 0
M  V30 29 H 2.994521 0.972559 -1.709343 0
M  V30 30 H 3.814043 2.497417 -1.253058 0
M  V30 31 H 0.649266 0.776558 -1.749903 0
M  V30 32 H -1.578988 1.855045 -1.586773 0
M  V30 33 H -1.748747 4.147043 -0.579981 0
M  V30 34 H 0.283820 5.302185 0.233437 0
M  V30 35 H 2.414525 4.152865 0.028302 0
M  V30 36 H -3.294927 -1.458245 3.267628 0
M  V30 37 H -1.579429 0.814204 3.574390 0
M  V30 38 H -1.941571 1.075716 1.828609 0
M  V30 39 H -0.259523 0.938649 2.414988 0
M  V30 END ATOM
M  V30 BEGIN BOND
M  V30 1 1 1 2
M  V30 2 1 2 3
M  V30 3 2 3 4
M  V30 4 1 4 5
M  V30 5 1 5 6
M  V30 6 1 6 7
M  V30 7 1 7 8
M  V30 8 1 8 9
M  V30 9 1 9 10
M  V30 10 2 10 11
M  V30 11 1 11 12
M  V30 12 2 12 13
M  V30 13 1 13 14
M  V30 14 2 14 15
M  V30 15 2 7 16
M  V30 16 1 16 17
M  V30 17 1 17 18
M  V30 18 2 18 19
M  V30 19 1 19 20
M  V30 20 2 20 21
M  V30 21 1 21 22
M  V30 22 1 22 23
M  V30 23 1 19 3
M  V30 24 2 17 5
M  V30 25 1 22 18
M  V30 26 1 15 10
M  V30 27 1 1 24
M  V30 28 1 1 25
M  V30 29 1 1 26
M  V30 30 1 2 27
M  V30 31 1 8 28
M  V30 32 1 9 29
M  V30 33 1 9 30
M  V30 34 1 11 31
M  V30 35 1 12 32
M  V30 36 1 13 33
M  V30 37 1 14 34
M  V30 38 1 15 35
M  V30 39 1 21 36
M  V30 40 1 23 37
M  V30 41 1 23 38
M  V30 42 1 23 39
M  V30 END BOND
M  V30 END CTAB
M  END
>  <Dataset>  (175) 
ChEMBL_Kinases

>  <Ligand_Instance>  (175) 
nan

>  <PDB_ID>  (175) 
nan

>  <Standardized_SMILES>  (175) 
CNc1nc2sc(NCc3ccccc3)nc2c2c1ncn2C

>  <Name>  (175) 
nan

>  <Pocket>  (175) 
nan

>  <ATP_Site>  (175) 
nan

>  <Peripheral>  (175) 
nan

>  <Num_H_Atoms_ProtBoundConf>  (175) 
nan

>  <Num_Resolved_Atoms>  (175) 
nan

>  <Num_Not_Resolved_Atoms>  (175) 
nan

$$$$
CHEMBL522222
     RDKit          3D

  0  0  0  0  0  0  0  0  0  0999 V3000
M  V30 BEGIN CTAB
M  V30 COUNTS 42 45 0 0 0
M  V30 BEGIN ATOM
M  V30 1 C 1.930643 -2.245009 -1.273935 0
M  V30 2 N 2.163008 -0.912403 -0.698848 0
M  V30 3 C 3.552261 -0.748254 -0.430604 0
M  V30 4 C 3.968793 0.535996 0.118405 0
M  V30 5 C 4.277913 1.504727 -0.835165 0
M  V30 6 C 4.699786 2.791716 -0.551344 0
M  V30 7 C 4.808179 3.095939 0.792100 0
M  V30 8 N 4.520860 2.194377 1.752896 0
M  V30 9 C 4.111050 0.943884 1.438250 0
M  V30 10 C 0.957474 -0.134805 -0.570700 0
M  V30 11 C 0.691193 1.055171 -1.207919 0
M  V30 12 C -0.520291 1.686495 -1.010752 0
M  V30 13 C -1.455672 1.114674 -0.173255 0
M  V30 14 N -2.688717 1.473116 0.204398 0
M  V30 15 C -3.163616 0.519926 1.053518 0
M  V30 16 C -2.170087 -0.450077 1.188845 0
M  V30 17 C -2.378556 -1.619947 2.037392 0
M  V30 18 C -3.621784 -2.241157 1.876149 0
M  V30 19 C -4.042589 -3.364766 2.572231 0
M  V30 20 C -3.156736 -3.903001 3.493388 0
M  V30 21 C -3.505377 -5.062348 4.258031 0
M  V30 22 N -3.786376 -6.005945 4.865383 0
M  V30 23 C -1.919748 -3.300223 3.666550 0
M  V30 24 C -1.536864 -2.189110 2.960062 0
M  V30 25 N -1.115336 -0.062431 0.418795 0
M  V30 26 N 0.035950 -0.706298 0.260617 0
M  V30 27 H 2.270098 -2.301968 -2.328138 0
M  V30 28 H 2.507634 -3.038527 -0.716961 0
M  V30 29 H 0.873192 -2.570450 -1.167637 0
M  V30 30 H 4.174408 -0.987218 -1.342404 0
M  V30 31 H 3.836975 -1.563302 0.296456 0
M  V30 32 H 4.204331 1.303728 -1.911604 0
M  V30 33 H 4.927726 3.509870 -1.322222 0
M  V30 34 H 5.138076 4.098539 1.054493 0
M  V30 35 H 3.860725 0.156311 2.146296 0
M  V30 36 H 1.464393 1.441698 -1.845019 0
M  V30 37 H -0.714763 2.612862 -1.512275 0
M  V30 38 H -4.152030 0.611937 1.482336 0
M  V30 39 H -4.362435 -1.854502 1.158410 0
M  V30 40 H -5.017138 -3.796740 2.399296 0
M  V30 41 H -1.221541 -3.715929 4.384907 0
M  V30 42 H -0.580122 -1.669101 3.051293 0
M  V30 END ATOM
M  V30 BEGIN BOND
M  V30 1 1 1 2
M  V30 2 1 2 3
M  V30 3 1 3 4
M  V30 4 2 4 5
M  V30 5 1 5 6
M  V30 6 2 6 7
M  V30 7 1 7 8
M  V30 8 2 8 9
M  V30 9 1 2 10
M  V30 10 1 10 11
M  V30 11 2 11 12
M  V30 12 1 12 13
M  V30 13 2 13 14
M  V30 14 1 14 15
M  V30 15 2 15 16
M  V30 16 1 16 17
M  V30 17 2 17 18
M  V30 18 1 18 19
M  V30 19 2 19 20
M  V30 20 1 20 21
M  V30 21 3 21 22
M  V30 22 1 20 23
M  V30 23 2 23 24
M  V30 24 1 16 25
M  V30 25 1 25 26
M  V30 26 1 9 4
M  V30 27 2 26 10
M  V30 28 1 25 13
M  V30 29 1 24 17
M  V30 30 1 1 27
M  V30 31 1 1 28
M  V30 32 1 1 29
M  V30 33 1 3 30
M  V30 34 1 3 31
M  V30 35 1 5 32
M  V30 36 1 6 33
M  V30 37 1 7 34
M  V30 38 1 9 35
M  V30 39 1 11 36
M  V30 40 1 12 37
M  V30 41 1 15 38
M  V30 42 1 18 39
M  V30 43 1 19 40
M  V30 44 1 23 41
M  V30 45 1 24 42
M  V30 END BOND
M  V30 END CTAB
M  END
>  <Dataset>  (176) 
ChEMBL_Kinases

>  <Ligand_Instance>  (176) 
nan

>  <PDB_ID>  (176) 
nan

>  <Standardized_SMILES>  (176) 
CN(Cc1cccnc1)c1ccc2ncc(-c3ccc(C#N)cc3)n2n1

>  <Name>  (176) 
nan

>  <Pocket>  (176) 
nan

>  <ATP_Site>  (176) 
nan

>  <Peripheral>  (176) 
nan

>  <Num_H_Atoms_ProtBoundConf>  (176) 
nan

>  <Num_Resolved_Atoms>  (176) 
nan

>  <Num_Not_Resolved_Atoms>  (176) 
nan

$$$$
CHEMBL3731471
     RDKit          3D

  0  0  0  0  0  0  0  0  0  0999 V3000
M  V30 BEGIN CTAB
M  V30 COUNTS 47 51 0 0 0
M  V30 BEGIN ATOM
M  V30 1 F -1.008266 -3.261869 2.207496 0
M  V30 2 C 0.255141 -3.115025 2.697059 0
M  V30 3 C 0.929859 -4.100864 3.402869 0
M  V30 4 N 2.195126 -3.866920 3.856860 0
M  V30 5 C 2.763601 -2.679384 3.608878 0
M  V30 6 C 2.140395 -1.642604 2.904257 0
M  V30 7 C 0.863288 -1.901522 2.455533 0
M  V30 8 C 0.184615 -0.837634 1.715430 0
M  V30 9 N 0.874748 0.327382 1.529855 0
M  V30 10 C 0.191103 1.273624 0.836784 0
M  V30 11 N 0.762994 2.542179 0.556450 0
M  V30 12 C 2.087751 2.740701 1.050997 0 CFG=2
M  V30 13 C 2.618291 4.137107 0.699365 0
M  V30 14 C 4.110698 3.894121 0.948317 0
M  V30 15 N 4.387620 2.558668 0.498361 0
M  V30 16 C 3.124937 1.870961 0.387351 0
M  V30 17 C -1.091560 1.042219 0.374272 0
M  V30 18 S -2.170512 2.062845 -0.520434 0
M  V30 19 C -3.565516 0.772772 -0.589245 0
M  V30 20 C -3.018383 -0.306661 0.098640 0
M  V30 21 N -3.866970 -1.441060 0.205473 0
M  V30 22 C -3.532626 -2.701504 -0.317908 0
M  V30 23 C -2.393242 -2.955914 -1.018900 0
M  V30 24 C -2.043657 -4.198593 -1.543799 0
M  V30 25 C -2.922866 -5.249655 -1.334801 0
M  V30 26 N -4.054561 -5.020663 -0.644924 0
M  V30 27 C -4.360938 -3.789059 -0.146947 0
M  V30 28 C -1.749705 -0.144718 0.582888 0
M  V30 29 N -1.059751 -1.072439 1.271008 0
M  V30 30 H 0.397460 -5.032826 3.559865 0
M  V30 31 H 3.774015 -2.511248 3.979229 0
M  V30 32 H 2.668897 -0.712493 2.746331 0
M  V30 33 H 0.276777 3.275947 0.038180 0
M  V30 34 H 2.119464 2.588230 2.141830 0
M  V30 35 H 2.474443 4.319803 -0.364686 0
M  V30 36 H 2.213672 4.888884 1.387339 0
M  V30 37 H 4.749122 4.660930 0.498659 0
M  V30 38 H 4.197458 3.873970 2.066007 0
M  V30 39 H 5.027569 2.025150 1.141508 0
M  V30 40 H 3.155558 0.857207 0.846213 0
M  V30 41 H 2.938852 1.718341 -0.687650 0
M  V30 42 H -4.484193 0.954685 -1.064540 0
M  V30 43 H -4.794954 -1.327417 0.704565 0
M  V30 44 H -1.675401 -2.183151 -1.214078 0
M  V30 45 H -1.130954 -4.367867 -2.096074 0
M  V30 46 H -2.668756 -6.229506 -1.736719 0
M  V30 47 H -5.300559 -3.679403 0.404431 0
M  V30 END ATOM
M  V30 BEGIN BOND
M  V30 1 1 1 2
M  V30 2 2 2 3
M  V30 3 1 3 4
M  V30 4 2 4 5
M  V30 5 1 5 6
M  V30 6 2 6 7
M  V30 7 1 7 8
M  V30 8 2 8 9
M  V30 9 1 9 10
M  V30 10 1 10 11
M  V30 11 1 11 12
M  V30 12 1 12 13
M  V30 13 1 13 14
M  V30 14 1 14 15
M  V30 15 1 15 16
M  V30 16 2 10 17
M  V30 17 1 17 18
M  V30 18 1 18 19
M  V30 19 2 19 20
M  V30 20 1 20 21
M  V30 21 1 21 22
M  V30 22 2 22 23
M  V30 23 1 23 24
M  V30 24 2 24 25
M  V30 25 1 25 26
M  V30 26 2 26 27
M  V30 27 1 20 28
M  V30 28 2 28 29
M  V30 29 1 7 2
M  V30 30 1 29 8
M  V30 31 1 16 12
M  V30 32 1 28 17
M  V30 33 1 27 22
M  V30 34 1 3 30
M  V30 35 1 5 31
M  V30 36 1 6 32
M  V30 37 1 11 33
M  V30 38 1 12 34 CFG=1
M  V30 39 1 13 35
M  V30 40 1 13 36
M  V30 41 1 14 37
M  V30 42 1 14 38
M  V30 43 1 15 39
M  V30 44 1 16 40
M  V30 45 1 16 41
M  V30 46 1 19 42
M  V30 47 1 21 43
M  V30 48 1 23 44
M  V30 49 1 24 45
M  V30 50 1 25 46
M  V30 51 1 27 47
M  V30 END BOND
M  V30 END CTAB
M  END
>  <Dataset>  (177) 
ChEMBL_Kinases

>  <Ligand_Instance>  (177) 
nan

>  <PDB_ID>  (177) 
nan

>  <Standardized_SMILES>  (177) 
Fc1cnccc1-c1nc(N[C@@H]2CCNC2)c2scc(Nc3cccnc3)c2n1

>  <Name>  (177) 
nan

>  <Pocket>  (177) 
nan

>  <ATP_Site>  (177) 
nan

>  <Peripheral>  (177) 
nan

>  <Num_H_Atoms_ProtBoundConf>  (177) 
nan

>  <Num_Resolved_Atoms>  (177) 
nan

>  <Num_Not_Resolved_Atoms>  (177) 
nan

$$$$
CHEMBL3731452
     RDKit          3D

  0  0  0  0  0  0  0  0  0  0999 V3000
M  V30 BEGIN CTAB
M  V30 COUNTS 48 52 0 0 0
M  V30 BEGIN ATOM
M  V30 1 C 1.496425 -6.030230 0.103887 0
M  V30 2 C 1.097451 -4.724676 0.309805 0
M  V30 3 C 0.691565 -4.443100 1.597878 0
M  V30 4 C 0.255754 -3.081535 1.889463 0
M  V30 5 N 0.237745 -2.115896 0.964453 0
M  V30 6 C -0.143802 -0.844995 1.138584 0
M  V30 7 O -0.107919 0.049980 0.076878 0
M  V30 8 C 0.339209 -0.420981 -1.176717 0
M  V30 9 C 0.307490 0.706993 -2.215063 0 CFG=2
M  V30 10 C 0.889106 0.176183 -3.496849 0
M  V30 11 C 2.359627 0.477708 -3.343426 0
M  V30 12 C 2.306401 1.823024 -2.643315 0
M  V30 13 N 1.181075 1.749097 -1.733224 0
M  V30 14 C -0.568705 -0.462310 2.396560 0
M  V30 15 C -0.992012 0.775569 2.767093 0
M  V30 16 C -1.384618 0.965866 4.097486 0
M  V30 17 S -1.135784 -0.659232 4.804556 0
M  V30 18 C -0.553287 -1.441941 3.346054 0
M  V30 19 N -0.159329 -2.700501 3.110942 0
M  V30 20 C -1.856072 2.282023 4.570534 0
M  V30 21 C -2.927037 2.854686 3.642492 0
M  V30 22 C -2.647241 2.419125 2.202408 0
M  V30 23 C -1.156170 2.078165 2.067614 0
M  V30 24 C 0.697603 -5.415903 2.576930 0
M  V30 25 C 1.108262 -6.707260 2.310938 0
M  V30 26 N 1.510892 -6.994757 1.041633 0
M  V30 27 H 1.838775 -6.396368 -0.849973 0
M  V30 28 H 1.116486 -4.016006 -0.494542 0
M  V30 29 H -0.370172 -1.242120 -1.488498 0
M  V30 30 H 1.339157 -0.871812 -1.117553 0
M  V30 31 H -0.723875 1.075113 -2.329512 0
M  V30 32 H 0.682323 -0.912718 -3.530137 0
M  V30 33 H 0.478030 0.713333 -4.387838 0
M  V30 34 H 2.864838 0.585047 -4.335663 0
M  V30 35 H 2.850007 -0.265671 -2.700145 0
M  V30 36 H 2.132157 2.637508 -3.388293 0
M  V30 37 H 3.246033 2.042831 -2.106255 0
M  V30 38 H 0.650321 2.639012 -1.649105 0
M  V30 39 H -2.206550 2.149169 5.596542 0
M  V30 40 H -0.997260 2.982615 4.512273 0
M  V30 41 H -3.898365 2.452063 3.986914 0
M  V30 42 H -2.895634 3.963671 3.617344 0
M  V30 43 H -3.203422 1.467479 2.067636 0
M  V30 44 H -2.973176 3.166424 1.483203 0
M  V30 45 H -0.958054 2.027599 0.987495 0
M  V30 46 H -0.529535 2.862515 2.530523 0
M  V30 47 H 0.365531 -5.110026 3.552970 0
M  V30 48 H 1.089781 -7.431969 3.129745 0
M  V30 END ATOM
M  V30 BEGIN BOND
M  V30 1 2 1 2
M  V30 2 1 2 3
M  V30 3 1 3 4
M  V30 4 2 4 5
M  V30 5 1 5 6
M  V30 6 1 6 7
M  V30 7 1 7 8
M  V30 8 1 8 9
M  V30 9 1 9 10
M  V30 10 1 10 11
M  V30 11 1 11 12
M  V30 12 1 12 13
M  V30 13 2 6 14
M  V30 14 1 14 15
M  V30 15 2 15 16
M  V30 16 1 16 17
M  V30 17 1 17 18
M  V30 18 2 18 19
M  V30 19 1 16 20
M  V30 20 1 20 21
M  V30 21 1 21 22
M  V30 22 1 22 23
M  V30 23 2 3 24
M  V30 24 1 24 25
M  V30 25 2 25 26
M  V30 26 1 26 1
M  V30 27 1 19 4
M  V30 28 1 13 9
M  V30 29 1 18 14
M  V30 30 1 23 15
M  V30 31 1 1 27
M  V30 32 1 2 28
M  V30 33 1 8 29
M  V30 34 1 8 30
M  V30 35 1 9 31 CFG=3
M  V30 36 1 10 32
M  V30 37 1 10 33
M  V30 38 1 11 34
M  V30 39 1 11 35
M  V30 40 1 12 36
M  V30 41 1 12 37
M  V30 42 1 13 38
M  V30 43 1 20 39
M  V30 44 1 20 40
M  V30 45 1 21 41
M  V30 46 1 21 42
M  V30 47 1 22 43
M  V30 48 1 22 44
M  V30 49 1 23 45
M  V30 50 1 23 46
M  V30 51 1 24 47
M  V30 52 1 25 48
M  V30 END BOND
M  V30 END CTAB
M  END
>  <Dataset>  (178) 
ChEMBL_Kinases

>  <Ligand_Instance>  (178) 
nan

>  <PDB_ID>  (178) 
nan

>  <Standardized_SMILES>  (178) 
c1cc(-c2nc(OC[C@@H]3CCCN3)c3c4c(sc3n2)CCCC4)ccn1

>  <Name>  (178) 
nan

>  <Pocket>  (178) 
nan

>  <ATP_Site>  (178) 
nan

>  <Peripheral>  (178) 
nan

>  <Num_H_Atoms_ProtBoundConf>  (178) 
nan

>  <Num_Resolved_Atoms>  (178) 
nan

>  <Num_Not_Resolved_Atoms>  (178) 
nan

$$$$
CHEMBL3731451
     RDKit          3D

  0  0  0  0  0  0  0  0  0  0999 V3000
M  V30 BEGIN CTAB
M  V30 COUNTS 55 58 0 0 0
M  V30 BEGIN ATOM
M  V30 1 C 2.660343 -3.237201 5.160487 0
M  V30 2 C 2.400233 -2.438158 3.917504 0
M  V30 3 C 3.570331 -1.540607 3.534841 0
M  V30 4 C 4.770772 -2.417059 3.297996 0
M  V30 5 C 3.795855 -0.547086 4.649083 0
M  V30 6 C 3.189282 -0.865647 2.261341 0
M  V30 7 O 3.697547 -0.851996 1.100106 0
M  V30 8 N 2.010777 -0.080108 2.396753 0
M  V30 9 C 1.364397 0.691162 1.405785 0
M  V30 10 C 1.850721 2.075126 1.341064 0
M  V30 11 S 0.796119 2.808455 -0.059138 0
M  V30 12 C -0.157587 1.210629 -0.392674 0
M  V30 13 C -1.147518 0.943201 -1.312725 0
M  V30 14 N -1.527018 2.005045 -2.145751 0
M  V30 15 C -2.555435 1.669734 -3.077827 0 CFG=2
M  V30 16 C -2.945407 2.832341 -3.963295 0
M  V30 17 C -4.331992 2.434578 -4.398712 0
M  V30 18 N -4.924889 1.752966 -3.290084 0
M  V30 19 C -3.888452 1.384113 -2.377309 0
M  V30 20 N -1.622542 -0.299646 -1.294451 0
M  V30 21 C -1.114778 -1.160926 -0.410646 0
M  V30 22 C -1.623096 -2.553206 -0.365381 0
M  V30 23 C -2.613398 -2.887915 -1.258072 0
M  V30 24 C -3.084502 -4.182746 -1.214275 0
M  V30 25 N -2.657330 -5.142170 -0.373860 0
M  V30 26 C -1.684144 -4.791834 0.494572 0
M  V30 27 C -1.168126 -3.514769 0.504853 0
M  V30 28 N -0.163570 -0.890818 0.467994 0
M  V30 29 C 0.403471 0.317966 0.559547 0
M  V30 30 H 2.646838 -4.332881 4.960204 0
M  V30 31 H 1.885712 -3.058479 5.953959 0
M  V30 32 H 3.623824 -2.904812 5.599410 0
M  V30 33 H 2.080504 -3.065791 3.055604 0
M  V30 34 H 1.550616 -1.766667 4.136525 0
M  V30 35 H 5.709316 -1.977572 3.693036 0
M  V30 36 H 4.804089 -2.655556 2.227819 0
M  V30 37 H 4.632448 -3.371839 3.856981 0
M  V30 38 H 2.854872 -0.358600 5.229826 0
M  V30 39 H 4.557691 -0.978745 5.329422 0
M  V30 40 H 4.126933 0.425838 4.244747 0
M  V30 41 H 1.382775 0.093824 3.234516 0
M  V30 42 H 2.576498 2.589433 1.884329 0
M  V30 43 H -1.117323 2.951924 -2.109948 0
M  V30 44 H -2.266807 0.772261 -3.620884 0
M  V30 45 H -3.048468 3.724893 -3.304292 0
M  V30 46 H -2.241595 2.973280 -4.804406 0
M  V30 47 H -4.933438 3.296701 -4.750733 0
M  V30 48 H -4.261373 1.735837 -5.279204 0
M  V30 49 H -5.553436 0.985869 -3.563685 0
M  V30 50 H -3.934398 2.123591 -1.525857 0
M  V30 51 H -3.933959 0.357012 -2.017735 0
M  V30 52 H -2.993933 -2.158502 -1.955059 0
M  V30 53 H -3.874808 -4.400732 -1.946942 0
M  V30 54 H -1.248720 -5.469663 1.227419 0
M  V30 55 H -0.378842 -3.194986 1.194468 0
M  V30 END ATOM
M  V30 BEGIN BOND
M  V30 1 1 1 2
M  V30 2 1 2 3
M  V30 3 1 3 4
M  V30 4 1 3 5
M  V30 5 1 3 6
M  V30 6 2 6 7
M  V30 7 1 6 8
M  V30 8 1 8 9
M  V30 9 2 9 10
M  V30 10 1 10 11
M  V30 11 1 11 12
M  V30 12 2 12 13
M  V30 13 1 13 14
M  V30 14 1 14 15
M  V30 15 1 15 16
M  V30 16 1 16 17
M  V30 17 1 17 18
M  V30 18 1 18 19
M  V30 19 1 13 20
M  V30 20 2 20 21
M  V30 21 1 21 22
M  V30 22 2 22 23
M  V30 23 1 23 24
M  V30 24 2 24 25
M  V30 25 1 25 26
M  V30 26 2 26 27
M  V30 27 1 21 28
M  V30 28 2 28 29
M  V30 29 1 29 9
M  V30 30 1 29 12
M  V30 31 1 19 15
M  V30 32 1 27 22
M  V30 33 1 1 30
M  V30 34 1 1 31
M  V30 35 1 1 32
M  V30 36 1 2 33
M  V30 37 1 2 34
M  V30 38 1 4 35
M  V30 39 1 4 36
M  V30 40 1 4 37
M  V30 41 1 5 38
M  V30 42 1 5 39
M  V30 43 1 5 40
M  V30 44 1 8 41
M  V30 45 1 10 42
M  V30 46 1 14 43
M  V30 47 1 15 44 CFG=3
M  V30 48 1 16 45
M  V30 49 1 16 46
M  V30 50 1 17 47
M  V30 51 1 17 48
M  V30 52 1 18 49
M  V30 53 1 19 50
M  V30 54 1 19 51
M  V30 55 1 23 52
M  V30 56 1 24 53
M  V30 57 1 26 54
M  V30 58 1 27 55
M  V30 END BOND
M  V30 END CTAB
M  END
>  <Dataset>  (179) 
ChEMBL_Kinases

>  <Ligand_Instance>  (179) 
nan

>  <PDB_ID>  (179) 
nan

>  <Standardized_SMILES>  (179) 
CCC(C)(C)C(=O)Nc1csc2c(N[C@@H]3CCNC3)nc(-c3ccncc3)nc12

>  <Name>  (179) 
nan

>  <Pocket>  (179) 
nan

>  <ATP_Site>  (179) 
nan

>  <Peripheral>  (179) 
nan

>  <Num_H_Atoms_ProtBoundConf>  (179) 
nan

>  <Num_Resolved_Atoms>  (179) 
nan

>  <Num_Not_Resolved_Atoms>  (179) 
nan

$$$$
CHEMBL3731450
     RDKit          3D

  0  0  0  0  0  0  0  0  0  0999 V3000
M  V30 BEGIN CTAB
M  V30 COUNTS 44 48 0 0 0
M  V30 BEGIN ATOM
M  V30 1 Cl -0.845328 -4.575190 3.454247 0
M  V30 2 C 0.767473 -4.701294 2.741064 0
M  V30 3 C 1.566195 -5.748375 3.121770 0
M  V30 4 C 2.836706 -6.014386 2.684163 0
M  V30 5 C 3.313372 -5.103199 1.766422 0
M  V30 6 C 2.539495 -4.061506 1.377295 0
M  V30 7 S 2.891770 -2.757732 0.229147 0
M  V30 8 C 1.312573 -1.921800 0.396427 0
M  V30 9 C 0.812655 -0.757562 -0.221162 0
M  V30 10 O 1.701364 -0.168622 -1.104973 0
M  V30 11 C 1.432184 0.986773 -1.831466 0
M  V30 12 C 1.134478 2.182104 -0.925347 0 CFG=1
M  V30 13 C 2.390431 2.583017 -0.190593 0
M  V30 14 C 2.388400 4.071782 -0.082719 0
M  V30 15 C 1.172951 4.492338 -0.842552 0
M  V30 16 N 0.861090 3.357569 -1.702676 0
M  V30 17 N -0.425208 -0.350669 0.095121 0
M  V30 18 C -1.083571 -1.106618 0.988117 0
M  V30 19 C -2.443739 -0.716677 1.378273 0
M  V30 20 C -3.198524 -1.427208 2.285709 0
M  V30 21 C -4.470226 -0.954023 2.569556 0
M  V30 22 N -4.985367 0.163204 1.994636 0
M  V30 23 C -4.234291 0.843973 1.111241 0
M  V30 24 C -2.949529 0.419555 0.784508 0
M  V30 25 N -0.594586 -2.189279 1.550372 0
M  V30 26 C 0.625033 -2.698949 1.319834 0
M  V30 27 C 1.265426 -3.785379 1.809143 0
M  V30 28 H 1.159758 -6.464910 3.859262 0
M  V30 29 H 3.432355 -6.848115 3.007478 0
M  V30 30 H 4.300327 -5.200911 1.345307 0
M  V30 31 H 0.527091 0.851809 -2.459096 0
M  V30 32 H 2.282930 1.299936 -2.451763 0
M  V30 33 H 0.285370 1.933315 -0.265122 0
M  V30 34 H 2.337726 2.150770 0.814339 0
M  V30 35 H 3.252648 2.253606 -0.790397 0
M  V30 36 H 2.399942 4.413580 0.986378 0
M  V30 37 H 3.327537 4.509460 -0.515166 0
M  V30 38 H 1.343804 5.371656 -1.491984 0
M  V30 39 H 0.359088 4.729468 -0.137569 0
M  V30 40 H 1.463804 3.404193 -2.546290 0
M  V30 41 H -2.783294 -2.314149 2.738990 0
M  V30 42 H -4.999074 -1.575500 3.297528 0
M  V30 43 H -4.654876 1.718527 0.669883 0
M  V30 44 H -2.418474 1.034598 0.060251 0
M  V30 END ATOM
M  V30 BEGIN BOND
M  V30 1 1 1 2
M  V30 2 2 2 3
M  V30 3 1 3 4
M  V30 4 2 4 5
M  V30 5 1 5 6
M  V30 6 1 6 7
M  V30 7 1 7 8
M  V30 8 2 8 9
M  V30 9 1 9 10
M  V30 10 1 10 11
M  V30 11 1 11 12
M  V30 12 1 12 13
M  V30 13 1 13 14
M  V30 14 1 14 15
M  V30 15 1 15 16
M  V30 16 1 9 17
M  V30 17 2 17 18
M  V30 18 1 18 19
M  V30 19 2 19 20
M  V30 20 1 20 21
M  V30 21 2 21 22
M  V30 22 1 22 23
M  V30 23 2 23 24
M  V30 24 1 18 25
M  V30 25 2 25 26
M  V30 26 1 26 27
M  V30 27 1 27 2
M  V30 28 2 27 6
M  V30 29 1 26 8
M  V30 30 1 16 12
M  V30 31 1 24 19
M  V30 32 1 3 28
M  V30 33 1 4 29
M  V30 34 1 5 30
M  V30 35 1 11 31
M  V30 36 1 11 32
M  V30 37 1 12 33 CFG=1
M  V30 38 1 13 34
M  V30 39 1 13 35
M  V30 40 1 14 36
M  V30 41 1 14 37
M  V30 42 1 15 38
M  V30 43 1 15 39
M  V30 44 1 16 40
M  V30 45 1 20 41
M  V30 46 1 21 42
M  V30 47 1 23 43
M  V30 48 1 24 44
M  V30 END BOND
M  V30 END CTAB
M  END
>  <Dataset>  (180) 
ChEMBL_Kinases

>  <Ligand_Instance>  (180) 
nan

>  <PDB_ID>  (180) 
nan

>  <Standardized_SMILES>  (180) 
Clc1cccc2sc3c(OC[C@H]4CCCN4)nc(-c4ccncc4)nc3c12

>  <Name>  (180) 
nan

>  <Pocket>  (180) 
nan

>  <ATP_Site>  (180) 
nan

>  <Peripheral>  (180) 
nan

>  <Num_H_Atoms_ProtBoundConf>  (180) 
nan

>  <Num_Resolved_Atoms>  (180) 
nan

>  <Num_Not_Resolved_Atoms>  (180) 
nan

$$$$
CHEMBL3731423
     RDKit          3D

  0  0  0  0  0  0  0  0  0  0999 V3000
M  V30 BEGIN CTAB
M  V30 COUNTS 44 48 0 0 0
M  V30 BEGIN ATOM
M  V30 1 F 2.263971 0.570771 2.587769 0
M  V30 2 C 2.069841 -0.709134 2.955306 0
M  V30 3 C 2.632116 -1.210469 4.111459 0
M  V30 4 N 2.481773 -2.476584 4.539717 0
M  V30 5 C 1.722938 -3.295138 3.766798 0
M  V30 6 C 1.131629 -2.859349 2.599128 0
M  V30 7 C 1.303517 -1.555249 2.185104 0
M  V30 8 C 0.721960 -0.974010 0.954840 0
M  V30 9 N 0.931483 0.332437 0.610879 0
M  V30 10 C 0.346686 0.720372 -0.527601 0
M  V30 11 N 0.466340 2.034005 -1.018189 0
M  V30 12 C 1.230178 3.009948 -0.299237 0 CFG=2
M  V30 13 C 2.686473 2.653179 -0.114922 0
M  V30 14 C 3.082599 3.489928 1.069470 0
M  V30 15 N 1.906713 3.682248 1.862525 0
M  V30 16 C 0.757326 3.250335 1.116673 0
M  V30 17 C -0.410147 -0.173470 -1.274841 0
M  V30 18 S -1.279064 0.085233 -2.801588 0
M  V30 19 C -1.900245 -1.708906 -2.863293 0
M  V30 20 C -1.377643 -2.269560 -1.734275 0
M  V30 21 N -1.691285 -3.641558 -1.523638 0
M  V30 22 C -2.394820 -4.025646 -0.347903 0
M  V30 23 C -2.837193 -3.200869 0.665985 0
M  V30 24 C -3.462697 -4.011535 1.590984 0
M  V30 25 O -3.390448 -5.241265 1.143658 0
M  V30 26 N -2.764685 -5.271024 0.001963 0
M  V30 27 C -0.611593 -1.483895 -0.915758 0
M  V30 28 N -0.009369 -1.839702 0.233894 0
M  V30 29 H 3.235896 -0.498240 4.694376 0
M  V30 30 H 1.574610 -4.334929 4.079036 0
M  V30 31 H 0.522851 -3.480904 1.960531 0
M  V30 32 H 0.013312 2.344804 -1.906808 0
M  V30 33 H 1.247104 4.000385 -0.844716 0
M  V30 34 H 3.267961 3.019896 -1.009540 0
M  V30 35 H 2.868199 1.572542 0.045758 0
M  V30 36 H 3.853657 2.915303 1.630928 0
M  V30 37 H 3.513343 4.449466 0.694669 0
M  V30 38 H 1.976290 3.240638 2.798200 0
M  V30 39 H 0.294654 2.396033 1.601841 0
M  V30 40 H 0.019642 4.088940 1.121936 0
M  V30 41 H -2.498754 -2.043453 -3.648201 0
M  V30 42 H -1.418331 -4.377810 -2.210891 0
M  V30 43 H -2.740922 -2.148169 0.762172 0
M  V30 44 H -3.937978 -3.696417 2.533387 0
M  V30 END ATOM
M  V30 BEGIN BOND
M  V30 1 1 1 2
M  V30 2 2 2 3
M  V30 3 1 3 4
M  V30 4 2 4 5
M  V30 5 1 5 6
M  V30 6 2 6 7
M  V30 7 1 7 8
M  V30 8 2 8 9
M  V30 9 1 9 10
M  V30 10 1 10 11
M  V30 11 1 11 12
M  V30 12 1 12 13
M  V30 13 1 13 14
M  V30 14 1 14 15
M  V30 15 1 15 16
M  V30 16 2 10 17
M  V30 17 1 17 18
M  V30 18 1 18 19
M  V30 19 2 19 20
M  V30 20 1 20 21
M  V30 21 1 21 22
M  V30 22 1 22 23
M  V30 23 2 23 24
M  V30 24 1 24 25
M  V30 25 1 25 26
M  V30 26 1 20 27
M  V30 27 2 27 28
M  V30 28 1 7 2
M  V30 29 1 28 8
M  V30 30 1 16 12
M  V30 31 1 27 17
M  V30 32 2 26 22
M  V30 33 1 3 29
M  V30 34 1 5 30
M  V30 35 1 6 31
M  V30 36 1 11 32
M  V30 37 1 12 33 CFG=3
M  V30 38 1 13 34
M  V30 39 1 13 35
M  V30 40 1 14 36
M  V30 41 1 14 37
M  V30 42 1 15 38
M  V30 43 1 16 39
M  V30 44 1 16 40
M  V30 45 1 19 41
M  V30 46 1 21 42
M  V30 47 1 23 43
M  V30 48 1 24 44
M  V30 END BOND
M  V30 END CTAB
M  END
>  <Dataset>  (181) 
ChEMBL_Kinases

>  <Ligand_Instance>  (181) 
nan

>  <PDB_ID>  (181) 
nan

>  <Standardized_SMILES>  (181) 
Fc1cnccc1-c1nc(N[C@@H]2CCNC2)c2scc(Nc3ccon3)c2n1

>  <Name>  (181) 
nan

>  <Pocket>  (181) 
nan

>  <ATP_Site>  (181) 
nan

>  <Peripheral>  (181) 
nan

>  <Num_H_Atoms_ProtBoundConf>  (181) 
nan

>  <Num_Resolved_Atoms>  (181) 
nan

>  <Num_Not_Resolved_Atoms>  (181) 
nan

$$$$
CHEMBL3731408
     RDKit          3D

  0  0  0  0  0  0  0  0  0  0999 V3000
M  V30 BEGIN CTAB
M  V30 COUNTS 67 71 0 0 0
M  V30 BEGIN ATOM
M  V30 1 C 3.679314 6.254518 6.499230 0
M  V30 2 C 2.763114 5.158119 6.005134 0
M  V30 3 C 1.715898 4.987690 7.111326 0
M  V30 4 O 3.440908 3.979988 5.744817 0
M  V30 5 C 3.279816 3.141534 4.663747 0
M  V30 6 C 4.071224 2.006341 4.512843 0
M  V30 7 C 3.761906 1.299665 3.383825 0
M  V30 8 C 2.850461 1.474673 2.387968 0
M  V30 9 C 2.493110 0.715766 1.197941 0
M  V30 10 C 2.631810 -0.643202 1.313768 0
M  V30 11 C 2.228278 -1.333599 0.196282 0
M  V30 12 C 1.721172 -0.823798 -0.973723 0
M  V30 13 C 1.196678 -1.359505 -2.223011 0 CFG=1
M  V30 14 C 0.842939 -2.830742 -2.219382 0
M  V30 15 N -0.552093 -3.052602 -2.019743 0
M  V30 16 C -1.508261 -4.056144 -2.377879 0
M  V30 17 N -2.787116 -3.878324 -1.965821 0
M  V30 18 C -3.798192 -4.719820 -2.209643 0
M  V30 19 C -5.098764 -4.349142 -1.677789 0
M  V30 20 C -5.202909 -3.222526 -0.897179 0
M  V30 21 C -6.456975 -2.867613 -0.380489 0
M  V30 22 N -7.574719 -3.557853 -0.596948 0
M  V30 23 C -7.526129 -4.666366 -1.355109 0
M  V30 24 C -6.269062 -5.025568 -1.873926 0
M  V30 25 F -6.276113 -6.128503 -2.621352 0
M  V30 26 C -3.478074 -5.835690 -2.934016 0
M  V30 27 C -2.200536 -6.061216 -3.373493 0
M  V30 28 O -1.968437 -7.124623 -4.047844 0
M  V30 29 N -1.254013 -5.163595 -3.080976 0
M  V30 30 C 0.077565 -5.438314 -3.571344 0
M  V30 31 C -1.098942 -1.928396 -1.239014 0
M  V30 32 C -1.147209 -0.743783 -2.171001 0
M  V30 33 N 0.128246 -0.553812 -2.742732 0
M  V30 34 C 1.636468 0.581153 -0.954299 0
M  V30 35 C 2.002953 1.434154 0.092139 0
M  V30 36 C 2.074041 2.658486 2.609755 0
M  V30 37 C 2.309008 3.454224 3.732948 0
M  V30 38 H 2.984036 7.089900 6.797807 0
M  V30 39 H 4.188074 5.972699 7.450369 0
M  V30 40 H 4.363967 6.651583 5.747401 0
M  V30 41 H 2.227789 5.539433 5.117091 0
M  V30 42 H 1.209181 5.991760 7.182850 0
M  V30 43 H 0.923645 4.269142 6.841589 0
M  V30 44 H 2.272935 4.726362 8.032531 0
M  V30 45 H 4.840795 1.699470 5.187481 0
M  V30 46 H 4.365226 0.384101 3.219920 0
M  V30 47 H 3.014448 -1.136506 2.179106 0
M  V30 48 H 2.270942 -2.410634 0.110661 0
M  V30 49 H 2.027207 -1.226919 -2.979779 0
M  V30 50 H 1.494237 -3.342964 -1.513128 0
M  V30 51 H 1.140452 -3.178665 -3.253101 0
M  V30 52 H -4.424854 -2.549853 -0.613747 0
M  V30 53 H -6.590619 -1.985731 0.244524 0
M  V30 54 H -8.410004 -5.251204 -1.555767 0
M  V30 55 H -4.221161 -6.551818 -3.163347 0
M  V30 56 H 0.103264 -6.529412 -3.912496 0
M  V30 57 H 0.848085 -5.400730 -2.805248 0
M  V30 58 H 0.299605 -4.900198 -4.524138 0
M  V30 59 H -2.119516 -2.191772 -0.863010 0
M  V30 60 H -0.455522 -1.797658 -0.365441 0
M  V30 61 H -1.922096 -1.020585 -2.945508 0
M  V30 62 H -1.468306 0.169173 -1.627466 0
M  V30 63 H 0.226808 -0.168391 -3.668936 0
M  V30 64 H 1.255102 1.170930 -1.813389 0
M  V30 65 H 1.921110 2.500223 0.031615 0
M  V30 66 H 1.297880 2.901675 1.877190 0
M  V30 67 H 1.640686 4.294795 3.744133 0
M  V30 END ATOM
M  V30 BEGIN BOND
M  V30 1 1 1 2
M  V30 2 1 2 3
M  V30 3 1 2 4
M  V30 4 1 4 5
M  V30 5 2 5 6
M  V30 6 1 6 7
M  V30 7 2 7 8
M  V30 8 1 8 9
M  V30 9 2 9 10
M  V30 10 1 10 11
M  V30 11 2 11 12
M  V30 12 1 12 13
M  V30 13 1 13 14
M  V30 14 1 14 15
M  V30 15 1 15 16
M  V30 16 2 16 17
M  V30 17 1 17 18
M  V30 18 1 18 19
M  V30 19 2 19 20
M  V30 20 1 20 21
M  V30 21 2 21 22
M  V30 22 1 22 23
M  V30 23 2 23 24
M  V30 24 1 24 25
M  V30 25 2 18 26
M  V30 26 1 26 27
M  V30 27 2 27 28
M  V30 28 1 27 29
M  V30 29 1 29 30
M  V30 30 1 15 31
M  V30 31 1 31 32
M  V30 32 1 32 33
M  V30 33 1 12 34
M  V30 34 2 34 35
M  V30 35 1 8 36
M  V30 36 2 36 37
M  V30 37 1 37 5
M  V30 38 1 35 9
M  V30 39 1 33 13
M  V30 40 1 29 16
M  V30 41 1 24 19
M  V30 42 1 1 38
M  V30 43 1 1 39
M  V30 44 1 1 40
M  V30 45 1 2 41
M  V30 46 1 3 42
M  V30 47 1 3 43
M  V30 48 1 3 44
M  V30 49 1 6 45
M  V30 50 1 7 46
M  V30 51 1 10 47
M  V30 52 1 11 48
M  V30 53 1 13 49 CFG=3
M  V30 54 1 14 50
M  V30 55 1 14 51
M  V30 56 1 20 52
M  V30 57 1 21 53
M  V30 58 1 23 54
M  V30 59 1 26 55
M  V30 60 1 30 56
M  V30 61 1 30 57
M  V30 62 1 30 58
M  V30 63 1 31 59
M  V30 64 1 31 60
M  V30 65 1 32 61
M  V30 66 1 32 62
M  V30 67 1 33 63
M  V30 68 1 34 64
M  V30 69 1 35 65
M  V30 70 1 36 66
M  V30 71 1 37 67
M  V30 END BOND
M  V30 END CTAB
M  END
>  <Dataset>  (182) 
ChEMBL_Kinases

>  <Ligand_Instance>  (182) 
nan

>  <PDB_ID>  (182) 
nan

>  <Standardized_SMILES>  (182) 
CC(C)Oc1ccc(-c2ccc([C@H]3CN(c4nc(-c5ccncc5F)cc(=O)n4C)CCN3)cc2)cc1

>  <Name>  (182) 
nan

>  <Pocket>  (182) 
nan

>  <ATP_Site>  (182) 
nan

>  <Peripheral>  (182) 
nan

>  <Num_H_Atoms_ProtBoundConf>  (182) 
nan

>  <Num_Resolved_Atoms>  (182) 
nan

>  <Num_Not_Resolved_Atoms>  (182) 
nan

$$$$
CHEMBL574413
     RDKit          3D

  0  0  0  0  0  0  0  0  0  0999 V3000
M  V30 BEGIN CTAB
M  V30 COUNTS 61 65 0 0 0
M  V30 BEGIN ATOM
M  V30 1 C 1.795504 -3.312302 5.775529 0
M  V30 2 C 1.926145 -3.458591 4.300535 0
M  V30 3 C 2.725806 -2.567383 3.602160 0
M  V30 4 C 2.862826 -2.682273 2.233616 0
M  V30 5 O 3.619929 -1.877630 1.396130 0
M  V30 6 C 3.138442 -1.109214 0.363565 0
M  V30 7 C 4.168267 -0.481126 -0.339181 0
M  V30 8 C 3.880747 0.346874 -1.428025 0
M  V30 9 N 2.601139 0.531134 -1.790381 0
M  V30 10 C 1.576469 -0.062144 -1.131367 0
M  V30 11 N 0.181266 0.035429 -1.391022 0
M  V30 12 C -0.580171 1.052267 -0.747860 0
M  V30 13 C 0.114582 1.903542 0.085176 0
M  V30 14 C -0.599577 2.896036 0.722415 0
M  V30 15 C -1.956261 3.012299 0.518041 0
M  V30 16 C -2.674101 2.177809 -0.306468 0
M  V30 17 N -4.071675 2.274691 -0.531668 0
M  V30 18 C -4.855808 1.435844 -1.411978 0
M  V30 19 C -5.662018 2.266303 -2.387895 0
M  V30 20 O -6.389791 3.266437 -1.757356 0
M  V30 21 C -5.535985 4.110257 -1.031022 0
M  V30 22 C -4.959700 3.233323 0.086657 0
M  V30 23 C -1.934730 1.199217 -0.927114 0
M  V30 24 C 1.825501 -0.896926 -0.037435 0
M  V30 25 C 2.172652 -3.717474 1.598160 0
M  V30 26 C 2.179168 -4.034737 0.156088 0
M  V30 27 C 3.415822 -4.021890 -0.488717 0
M  V30 28 C 3.472403 -4.310608 -1.829351 0
M  V30 29 C 2.317114 -4.611380 -2.535895 0
M  V30 30 C 1.105890 -4.609350 -1.838535 0
M  V30 31 N 1.056929 -4.324557 -0.519646 0
M  V30 32 N 1.387899 -4.590637 2.289328 0
M  V30 33 C 1.250559 -4.478875 3.642899 0
M  V30 34 C 0.383589 -5.448636 4.378694 0
M  V30 35 H 2.619259 -2.687534 6.146713 0
M  V30 36 H 1.966623 -4.338672 6.214623 0
M  V30 37 H 0.815235 -2.903867 6.091677 0
M  V30 38 H 3.262130 -1.771130 4.057579 0
M  V30 39 H 5.240631 -0.568649 -0.121923 0
M  V30 40 H 4.623984 0.864409 -2.018352 0
M  V30 41 H -0.306320 -0.620543 -2.043837 0
M  V30 42 H 1.178863 1.826454 0.256727 0
M  V30 43 H -0.079771 3.576998 1.380851 0
M  V30 44 H -2.441732 3.804403 1.044870 0
M  V30 45 H -5.632199 0.928833 -0.762876 0
M  V30 46 H -4.290780 0.694454 -1.977296 0
M  V30 47 H -6.402717 1.602484 -2.877769 0
M  V30 48 H -5.041530 2.682624 -3.219163 0
M  V30 49 H -4.708692 4.508201 -1.619475 0
M  V30 50 H -6.160308 4.859005 -0.517613 0
M  V30 51 H -4.425360 3.867232 0.822097 0
M  V30 52 H -5.776264 2.669407 0.588172 0
M  V30 53 H -2.339086 0.466645 -1.600562 0
M  V30 54 H 1.097618 -1.405284 0.549027 0
M  V30 55 H 4.344067 -3.792849 0.021295 0
M  V30 56 H 4.419730 -4.302748 -2.332828 0
M  V30 57 H 2.432072 -4.828748 -3.586722 0
M  V30 58 H 0.259163 -4.848812 -2.445061 0
M  V30 59 H 0.954101 -6.182271 4.958614 0
M  V30 60 H -0.249790 -5.974432 3.635077 0
M  V30 61 H -0.325572 -4.931952 5.073507 0
M  V30 END ATOM
M  V30 BEGIN BOND
M  V30 1 1 1 2
M  V30 2 2 2 3
M  V30 3 1 3 4
M  V30 4 1 4 5
M  V30 5 1 5 6
M  V30 6 2 6 7
M  V30 7 1 7 8
M  V30 8 2 8 9
M  V30 9 1 9 10
M  V30 10 1 10 11
M  V30 11 1 11 12
M  V30 12 2 12 13
M  V30 13 1 13 14
M  V30 14 2 14 15
M  V30 15 1 15 16
M  V30 16 1 16 17
M  V30 17 1 17 18
M  V30 18 1 18 19
M  V30 19 1 19 20
M  V30 20 1 20 21
M  V30 21 1 21 22
M  V30 22 2 16 23
M  V30 23 2 10 24
M  V30 24 2 4 25
M  V30 25 1 25 26
M  V30 26 2 26 27
M  V30 27 1 27 28
M  V30 28 2 28 29
M  V30 29 1 29 30
M  V30 30 2 30 31
M  V30 31 1 25 32
M  V30 32 2 32 33
M  V30 33 1 33 34
M  V30 34 1 33 2
M  V30 35 1 24 6
M  V30 36 1 31 26
M  V30 37 1 23 12
M  V30 38 1 22 17
M  V30 39 1 1 35
M  V30 40 1 1 36
M  V30 41 1 1 37
M  V30 42 1 3 38
M  V30 43 1 7 39
M  V30 44 1 8 40
M  V30 45 1 11 41
M  V30 46 1 13 42
M  V30 47 1 14 43
M  V30 48 1 15 44
M  V30 49 1 18 45
M  V30 50 1 18 46
M  V30 51 1 19 47
M  V30 52 1 19 48
M  V30 53 1 21 49
M  V30 54 1 21 50
M  V30 55 1 22 51
M  V30 56 1 22 52
M  V30 57 1 23 53
M  V30 58 1 24 54
M  V30 59 1 27 55
M  V30 60 1 28 56
M  V30 61 1 29 57
M  V30 62 1 30 58
M  V30 63 1 34 59
M  V30 64 1 34 60
M  V30 65 1 34 61
M  V30 END BOND
M  V30 END CTAB
M  END
>  <Dataset>  (183) 
ChEMBL_Kinases

>  <Ligand_Instance>  (183) 
nan

>  <PDB_ID>  (183) 
nan

>  <Standardized_SMILES>  (183) 
Cc1cc(Oc2ccnc(Nc3cccc(N4CCOCC4)c3)c2)c(-c2ccccn2)nc1C

>  <Name>  (183) 
nan

>  <Pocket>  (183) 
nan

>  <ATP_Site>  (183) 
nan

>  <Peripheral>  (183) 
nan

>  <Num_H_Atoms_ProtBoundConf>  (183) 
nan

>  <Num_Resolved_Atoms>  (183) 
nan

>  <Num_Not_Resolved_Atoms>  (183) 
nan

$$$$
CHEMBL3731535
     RDKit          3D

  0  0  0  0  0  0  0  0  0  0999 V3000
M  V30 BEGIN CTAB
M  V30 COUNTS 54 58 0 0 0
M  V30 BEGIN ATOM
M  V30 1 C 6.199043 4.558913 0.468783 0
M  V30 2 O 6.731540 3.309104 0.807986 0
M  V30 3 C 6.086647 2.145436 0.455801 0
M  V30 4 C 6.863419 1.081080 0.931779 0
M  V30 5 C 6.448648 -0.247368 0.717137 0
M  V30 6 C 5.270105 -0.444157 0.032912 0
M  V30 7 C 4.505560 0.572044 -0.434853 0
M  V30 8 C 3.250294 0.490165 -1.169422 0
M  V30 9 O 2.549170 1.454156 -1.570082 0
M  V30 10 N 2.779500 -0.798632 -1.456942 0
M  V30 11 C 1.617417 -1.250140 -2.139373 0
M  V30 12 C 0.488691 -1.467190 -1.394883 0
M  V30 13 C -0.642179 -1.898382 -1.999072 0
M  V30 14 C -1.864622 -2.146914 -1.253734 0
M  V30 15 N -1.805777 -1.913715 0.058135 0
M  V30 16 C -2.890819 -2.120799 0.806471 0
M  V30 17 N -3.003924 -1.950761 2.197683 0
M  V30 18 C -3.896339 -1.995186 3.317579 0 CFG=2
M  V30 19 C -4.836001 -0.833031 3.273988 0
M  V30 20 C -4.948244 -0.410613 4.722819 0
M  V30 21 N -3.811611 -0.901480 5.423936 0
M  V30 22 C -3.194596 -1.918733 4.639162 0
M  V30 23 C -4.013706 -2.570119 0.154030 0
M  V30 24 S -5.750131 -3.025164 0.706755 0
M  V30 25 C -6.383084 -3.504045 -1.014205 0
M  V30 26 C -5.224777 -3.276308 -1.845191 0
M  V30 27 C -4.105432 -2.827806 -1.246274 0
M  V30 28 N -2.955922 -2.583564 -1.891628 0
M  V30 29 C -0.629343 -2.109801 -3.357659 0
M  V30 30 C 0.502901 -1.892888 -4.109606 0
M  V30 31 N 1.607550 -1.463712 -3.469438 0
M  V30 32 C 4.932091 1.860351 -0.212620 0
M  V30 33 H 6.936852 5.174851 -0.088759 0
M  V30 34 H 5.236603 4.507088 -0.033175 0
M  V30 35 H 6.040217 5.108654 1.443228 0
M  V30 36 H 7.801770 1.083295 1.481690 0
M  V30 37 H 6.966047 -1.122865 1.038027 0
M  V30 38 H 4.908302 -1.441628 -0.157531 0
M  V30 39 H 3.207059 -1.733495 -1.218082 0
M  V30 40 H 0.479600 -1.300261 -0.326803 0
M  V30 41 H -2.037768 -1.681568 2.557212 0
M  V30 42 H -4.447367 -2.974147 3.247956 0
M  V30 43 H -4.370200 -0.013702 2.681637 0
M  V30 44 H -5.821482 -1.119323 2.884584 0
M  V30 45 H -5.037957 0.710937 4.793033 0
M  V30 46 H -5.913770 -0.822136 5.125676 0
M  V30 47 H -3.214097 -0.132820 5.739226 0
M  V30 48 H -3.212210 -2.876421 5.208966 0
M  V30 49 H -2.106531 -1.698496 4.514370 0
M  V30 50 H -7.335973 -3.831753 -1.191218 0
M  V30 51 H -5.411558 -3.502061 -2.871355 0
M  V30 52 H -1.519775 -2.453242 -3.855532 0
M  V30 53 H 0.448473 -2.078510 -5.183807 0
M  V30 54 H 4.418656 2.753407 -0.530621 0
M  V30 END ATOM
M  V30 BEGIN BOND
M  V30 1 1 1 2
M  V30 2 1 2 3
M  V30 3 2 3 4
M  V30 4 1 4 5
M  V30 5 2 5 6
M  V30 6 1 6 7
M  V30 7 1 7 8
M  V30 8 2 8 9
M  V30 9 1 8 10
M  V30 10 1 10 11
M  V30 11 2 11 12
M  V30 12 1 12 13
M  V30 13 1 13 14
M  V30 14 2 14 15
M  V30 15 1 15 16
M  V30 16 1 16 17
M  V30 17 1 17 18
M  V30 18 1 18 19
M  V30 19 1 19 20
M  V30 20 1 20 21
M  V30 21 1 21 22
M  V30 22 2 16 23
M  V30 23 1 23 24
M  V30 24 1 24 25
M  V30 25 2 25 26
M  V30 26 1 26 27
M  V30 27 2 27 28
M  V30 28 2 13 29
M  V30 29 1 29 30
M  V30 30 2 30 31
M  V30 31 2 7 32
M  V30 32 1 32 3
M  V30 33 1 31 11
M  V30 34 1 28 14
M  V30 35 1 22 18
M  V30 36 1 27 23
M  V30 37 1 1 33
M  V30 38 1 1 34
M  V30 39 1 1 35
M  V30 40 1 4 36
M  V30 41 1 5 37
M  V30 42 1 6 38
M  V30 43 1 10 39
M  V30 44 1 12 40
M  V30 45 1 17 41
M  V30 46 1 18 42 CFG=1
M  V30 47 1 19 43
M  V30 48 1 19 44
M  V30 49 1 20 45
M  V30 50 1 20 46
M  V30 51 1 21 47
M  V30 52 1 22 48
M  V30 53 1 22 49
M  V30 54 1 25 50
M  V30 55 1 26 51
M  V30 56 1 29 52
M  V30 57 1 30 53
M  V30 58 1 32 54
M  V30 END BOND
M  V30 END CTAB
M  END
>  <Dataset>  (184) 
ChEMBL_Kinases

>  <Ligand_Instance>  (184) 
nan

>  <PDB_ID>  (184) 
nan

>  <Standardized_SMILES>  (184) 
COc1cccc(C(=O)Nc2cc(-c3nc(N[C@@H]4CCNC4)c4sccc4n3)ccn2)c1

>  <Name>  (184) 
nan

>  <Pocket>  (184) 
nan

>  <ATP_Site>  (184) 
nan

>  <Peripheral>  (184) 
nan

>  <Num_H_Atoms_ProtBoundConf>  (184) 
nan

>  <Num_Resolved_Atoms>  (184) 
nan

>  <Num_Not_Resolved_Atoms>  (184) 
nan

$$$$
CHEMBL3731827
     RDKit          3D

  0  0  0  0  0  0  0  0  0  0999 V3000
M  V30 BEGIN CTAB
M  V30 COUNTS 47 50 0 0 0
M  V30 BEGIN ATOM
M  V30 1 C 1.525875 -4.254806 0.307757 0
M  V30 2 C 1.893637 -2.867677 -0.117285 0
M  V30 3 C 2.608339 -2.104354 1.007261 0 CFG=1
M  V30 4 N 2.928902 -0.799084 0.539638 0
M  V30 5 C 1.670993 -2.079355 2.163706 0
M  V30 6 O 0.467624 -1.492367 1.854878 0
M  V30 7 C 0.157116 -0.244508 1.460675 0
M  V30 8 N 0.987153 0.777521 1.273421 0
M  V30 9 C 0.753849 2.006670 0.896122 0
M  V30 10 C 1.759298 3.045950 0.725865 0
M  V30 11 C 3.089830 2.812225 0.957360 0
M  V30 12 C 3.981199 3.866364 0.768829 0
M  V30 13 N 3.601520 5.096785 0.372493 0
M  V30 14 C 2.295963 5.331744 0.143754 0
M  V30 15 C 1.386330 4.317591 0.318667 0
M  V30 16 N -0.538682 2.282150 0.658385 0
M  V30 17 C -1.484709 1.304746 0.818658 0
M  V30 18 S -3.230806 1.390574 0.578722 0
M  V30 19 C -3.530980 -0.294214 1.019321 0
M  V30 20 C -2.269196 -0.799082 1.318273 0
M  V30 21 C -1.205465 0.036335 1.212763 0
M  V30 22 C -2.462205 -2.229010 1.699760 0
M  V30 23 C -3.113181 -2.999388 0.550707 0
M  V30 24 C -4.407968 -2.341685 0.126418 0
M  V30 25 C -4.742294 -1.234596 1.136095 0
M  V30 26 H 0.458470 -4.268412 0.586162 0
M  V30 27 H 1.677425 -4.994541 -0.510494 0
M  V30 28 H 2.148248 -4.524772 1.180817 0
M  V30 29 H 1.000212 -2.334849 -0.454327 0
M  V30 30 H 2.627183 -2.915365 -0.963425 0
M  V30 31 H 3.506797 -2.702965 1.289740 0
M  V30 32 H 2.645119 -0.667311 -0.460178 0
M  V30 33 H 3.916505 -0.499004 0.698870 0
M  V30 34 H 1.516189 -3.131616 2.564151 0
M  V30 35 H 2.191107 -1.580973 3.040345 0
M  V30 36 H 3.452264 1.850514 1.275369 0
M  V30 37 H 5.037242 3.657442 0.959208 0
M  V30 38 H 2.052416 6.337878 -0.172028 0
M  V30 39 H 0.355349 4.589767 0.113443 0
M  V30 40 H -3.035787 -2.363456 2.628892 0
M  V30 41 H -1.491946 -2.751854 1.871705 0
M  V30 42 H -2.382529 -3.049180 -0.278763 0
M  V30 43 H -3.287854 -4.020200 0.921182 0
M  V30 44 H -4.202925 -1.807282 -0.826444 0
M  V30 45 H -5.235628 -3.028252 -0.048373 0
M  V30 46 H -4.863196 -1.603932 2.151682 0
M  V30 47 H -5.616719 -0.664436 0.761822 0
M  V30 END ATOM
M  V30 BEGIN BOND
M  V30 1 1 1 2
M  V30 2 1 2 3
M  V30 3 1 3 4
M  V30 4 1 3 5
M  V30 5 1 5 6
M  V30 6 1 6 7
M  V30 7 2 7 8
M  V30 8 1 8 9
M  V30 9 1 9 10
M  V30 10 2 10 11
M  V30 11 1 11 12
M  V30 12 2 12 13
M  V30 13 1 13 14
M  V30 14 2 14 15
M  V30 15 2 9 16
M  V30 16 1 16 17
M  V30 17 1 17 18
M  V30 18 1 18 19
M  V30 19 2 19 20
M  V30 20 1 20 21
M  V30 21 1 20 22
M  V30 22 1 22 23
M  V30 23 1 23 24
M  V30 24 1 24 25
M  V30 25 1 21 7
M  V30 26 1 15 10
M  V30 27 2 21 17
M  V30 28 1 25 19
M  V30 29 1 1 26
M  V30 30 1 1 27
M  V30 31 1 1 28
M  V30 32 1 2 29
M  V30 33 1 2 30
M  V30 34 1 3 31 CFG=1
M  V30 35 1 4 32
M  V30 36 1 4 33
M  V30 37 1 5 34
M  V30 38 1 5 35
M  V30 39 1 11 36
M  V30 40 1 12 37
M  V30 41 1 14 38
M  V30 42 1 15 39
M  V30 43 1 22 40
M  V30 44 1 22 41
M  V30 45 1 23 42
M  V30 46 1 23 43
M  V30 47 1 24 44
M  V30 48 1 24 45
M  V30 49 1 25 46
M  V30 50 1 25 47
M  V30 END BOND
M  V30 END CTAB
M  END
>  <Dataset>  (185) 
ChEMBL_Kinases

>  <Ligand_Instance>  (185) 
nan

>  <PDB_ID>  (185) 
nan

>  <Standardized_SMILES>  (185) 
CC[C@@H](N)COc1nc(-c2ccncc2)nc2sc3c(c12)CCCC3

>  <Name>  (185) 
nan

>  <Pocket>  (185) 
nan

>  <ATP_Site>  (185) 
nan

>  <Peripheral>  (185) 
nan

>  <Num_H_Atoms_ProtBoundConf>  (185) 
nan

>  <Num_Resolved_Atoms>  (185) 
nan

>  <Num_Not_Resolved_Atoms>  (185) 
nan

$$$$
CHEMBL3731825
     RDKit          3D

  0  0  0  0  0  0  0  0  0  0999 V3000
M  V30 BEGIN CTAB
M  V30 COUNTS 52 56 0 0 0
M  V30 BEGIN ATOM
M  V30 1 C 2.267508 -4.986718 2.018761 0
M  V30 2 N 1.884400 -3.573585 1.880609 0
M  V30 3 C 0.670124 -3.447795 2.687969 0
M  V30 4 C 0.692561 -2.065097 3.272689 0
M  V30 5 C 0.012716 -1.130921 2.313190 0
M  V30 6 N 0.586305 -1.173930 0.981139 0
M  V30 7 C 0.141254 -0.017410 0.276411 0
M  V30 8 N 1.095956 0.926097 0.337515 0
M  V30 9 C 1.007359 2.163503 -0.164475 0
M  V30 10 C 2.028967 3.199488 -0.108682 0
M  V30 11 C 3.228389 2.923060 0.516536 0
M  V30 12 C 4.221275 3.888120 0.586714 0
M  V30 13 N 4.000805 5.084250 0.042621 0
M  V30 14 C 2.832773 5.376418 -0.574842 0
M  V30 15 C 1.810101 4.449063 -0.672103 0
M  V30 16 N -0.159274 2.435890 -0.773157 0
M  V30 17 C -1.144304 1.526982 -0.861731 0
M  V30 18 S -2.724015 1.582414 -1.580409 0
M  V30 19 C -3.198252 -0.123557 -1.156335 0
M  V30 20 C -2.083516 -0.613056 -0.482138 0
M  V30 21 C -1.048332 0.272917 -0.351339 0
M  V30 22 C -2.364196 -2.021605 -0.124716 0
M  V30 23 C -3.628823 -1.994762 0.750859 0
M  V30 24 C -4.833997 -1.655154 -0.102939 0
M  V30 25 C -4.425145 -0.955869 -1.379076 0
M  V30 26 C 1.436828 -1.934004 0.080383 0
M  V30 27 C 1.630495 -3.367832 0.491278 0
M  V30 28 H 3.342009 -5.136191 1.904865 0
M  V30 29 H 1.930781 -5.386590 3.013316 0
M  V30 30 H 1.739869 -5.609246 1.260568 0
M  V30 31 H -0.235700 -3.567821 2.100700 0
M  V30 32 H 0.672515 -4.169014 3.530122 0
M  V30 33 H 1.768614 -1.760110 3.432334 0
M  V30 34 H 0.246884 -2.004746 4.284602 0
M  V30 35 H -1.071770 -1.316672 2.354134 0
M  V30 36 H 0.136134 -0.103631 2.759687 0
M  V30 37 H 3.359512 1.924799 0.947641 0
M  V30 38 H 5.114197 3.573234 1.093106 0
M  V30 39 H 2.686935 6.363024 -1.008017 0
M  V30 40 H 0.864461 4.681143 -1.170340 0
M  V30 41 H -2.712459 -2.572821 -1.032872 0
M  V30 42 H -1.598155 -2.543520 0.424538 0
M  V30 43 H -3.474257 -1.330335 1.599718 0
M  V30 44 H -3.745759 -3.030946 1.129216 0
M  V30 45 H -5.504662 -1.020237 0.504421 0
M  V30 46 H -5.374151 -2.576053 -0.376199 0
M  V30 47 H -4.249201 -1.630614 -2.229282 0
M  V30 48 H -5.250181 -0.270787 -1.659922 0
M  V30 49 H 2.445627 -1.468976 0.017571 0
M  V30 50 H 1.037068 -1.930631 -0.955521 0
M  V30 51 H 2.515296 -3.750379 -0.060364 0
M  V30 52 H 0.782771 -4.026331 0.214937 0
M  V30 END ATOM
M  V30 BEGIN BOND
M  V30 1 1 1 2
M  V30 2 1 2 3
M  V30 3 1 3 4
M  V30 4 1 4 5
M  V30 5 1 5 6
M  V30 6 1 6 7
M  V30 7 2 7 8
M  V30 8 1 8 9
M  V30 9 1 9 10
M  V30 10 2 10 11
M  V30 11 1 11 12
M  V30 12 2 12 13
M  V30 13 1 13 14
M  V30 14 2 14 15
M  V30 15 2 9 16
M  V30 16 1 16 17
M  V30 17 1 17 18
M  V30 18 1 18 19
M  V30 19 2 19 20
M  V30 20 1 20 21
M  V30 21 1 20 22
M  V30 22 1 22 23
M  V30 23 1 23 24
M  V30 24 1 24 25
M  V30 25 1 6 26
M  V30 26 1 26 27
M  V30 27 1 27 2
M  V30 28 1 21 7
M  V30 29 1 15 10
M  V30 30 2 21 17
M  V30 31 1 25 19
M  V30 32 1 1 28
M  V30 33 1 1 29
M  V30 34 1 1 30
M  V30 35 1 3 31
M  V30 36 1 3 32
M  V30 37 1 4 33
M  V30 38 1 4 34
M  V30 39 1 5 35
M  V30 40 1 5 36
M  V30 41 1 11 37
M  V30 42 1 12 38
M  V30 43 1 14 39
M  V30 44 1 15 40
M  V30 45 1 22 41
M  V30 46 1 22 42
M  V30 47 1 23 43
M  V30 48 1 23 44
M  V30 49 1 24 45
M  V30 50 1 24 46
M  V30 51 1 25 47
M  V30 52 1 25 48
M  V30 53 1 26 49
M  V30 54 1 26 50
M  V30 55 1 27 51
M  V30 56 1 27 52
M  V30 END BOND
M  V30 END CTAB
M  END
>  <Dataset>  (186) 
ChEMBL_Kinases

>  <Ligand_Instance>  (186) 
nan

>  <PDB_ID>  (186) 
nan

>  <Standardized_SMILES>  (186) 
CN1CCCN(c2nc(-c3ccncc3)nc3sc4c(c23)CCCC4)CC1

>  <Name>  (186) 
nan

>  <Pocket>  (186) 
nan

>  <ATP_Site>  (186) 
nan

>  <Peripheral>  (186) 
nan

>  <Num_H_Atoms_ProtBoundConf>  (186) 
nan

>  <Num_Resolved_Atoms>  (186) 
nan

>  <Num_Not_Resolved_Atoms>  (186) 
nan

$$$$
CHEMBL574415
     RDKit          3D

  0  0  0  0  0  0  0  0  0  0999 V3000
M  V30 BEGIN CTAB
M  V30 COUNTS 51 53 0 0 0
M  V30 BEGIN ATOM
M  V30 1 C -2.801297 -3.404533 5.056506 0
M  V30 2 O -2.423949 -4.041690 3.829481 0
M  V30 3 C -2.202145 -3.278451 2.689669 0
M  V30 4 C -2.313008 -1.913171 2.616673 0
M  V30 5 C -2.085581 -1.189945 1.470180 0
M  V30 6 N -2.214599 0.226737 1.451228 0
M  V30 7 C -1.986167 0.970870 0.280632 0
M  V30 8 C -0.686889 1.380262 0.109939 0
M  V30 9 C -0.303824 2.115628 -0.983361 0
M  V30 10 O 0.925384 2.620821 -1.346891 0
M  V30 11 C 2.101083 2.422326 -0.662493 0
M  V30 12 C 2.701094 3.570906 -0.185244 0
M  V30 13 C 3.889279 3.501508 0.519404 0
M  V30 14 C 4.457536 2.258035 0.732297 0
M  V30 15 C 5.724035 2.012752 1.466806 0
M  V30 16 N 3.868476 1.121188 0.262633 0
M  V30 17 C 2.703737 1.203935 -0.426795 0
M  V30 18 C 2.048217 -0.017860 -0.955421 0
M  V30 19 C -1.267888 2.441076 -1.923722 0
M  V30 20 C -2.589773 2.017569 -1.738092 0
M  V30 21 N -2.914513 1.306133 -0.662246 0
M  V30 22 C -1.720242 -1.855211 0.300349 0
M  V30 23 C -1.607877 -3.230867 0.371322 0
M  V30 24 O -1.246569 -3.945131 -0.764830 0
M  V30 25 C -1.012669 -3.210594 -1.940827 0
M  V30 26 C -1.840684 -3.940767 1.533826 0
M  V30 27 O -1.711150 -5.321656 1.540304 0
M  V30 28 C -0.500122 -5.982534 1.837430 0
M  V30 29 H -2.061605 -2.660095 5.364668 0
M  V30 30 H -3.753105 -2.837265 4.853500 0
M  V30 31 H -3.061471 -4.145678 5.810280 0
M  V30 32 H -2.601536 -1.429442 3.556128 0
M  V30 33 H -2.483944 0.718970 2.323929 0
M  V30 34 H 0.102122 1.171072 0.791026 0
M  V30 35 H 2.282363 4.552456 -0.335586 0
M  V30 36 H 4.429925 4.348746 0.930097 0
M  V30 37 H 5.492847 1.301225 2.300332 0
M  V30 38 H 6.060159 2.970315 1.898559 0
M  V30 39 H 6.504711 1.610573 0.805844 0
M  V30 40 H 2.857720 -0.685339 -1.340854 0
M  V30 41 H 1.312108 0.224498 -1.724458 0
M  V30 42 H 1.562923 -0.518686 -0.104319 0
M  V30 43 H -1.147997 3.014857 -2.848431 0
M  V30 44 H -3.392625 2.231651 -2.424856 0
M  V30 45 H -1.545262 -1.293208 -0.584163 0
M  V30 46 H -1.940694 -2.789590 -2.351056 0
M  V30 47 H -0.558182 -3.868014 -2.713664 0
M  V30 48 H -0.277500 -2.387798 -1.748817 0
M  V30 49 H -0.609388 -6.460791 2.830729 0
M  V30 50 H 0.333001 -5.274534 1.881761 0
M  V30 51 H -0.246758 -6.757968 1.075256 0
M  V30 END ATOM
M  V30 BEGIN BOND
M  V30 1 1 1 2
M  V30 2 1 2 3
M  V30 3 2 3 4
M  V30 4 1 4 5
M  V30 5 1 5 6
M  V30 6 1 6 7
M  V30 7 2 7 8
M  V30 8 1 8 9
M  V30 9 1 9 10
M  V30 10 1 10 11
M  V30 11 2 11 12
M  V30 12 1 12 13
M  V30 13 2 13 14
M  V30 14 1 14 15
M  V30 15 1 14 16
M  V30 16 2 16 17
M  V30 17 1 17 18
M  V30 18 2 9 19
M  V30 19 1 19 20
M  V30 20 2 20 21
M  V30 21 2 5 22
M  V30 22 1 22 23
M  V30 23 1 23 24
M  V30 24 1 24 25
M  V30 25 2 23 26
M  V30 26 1 26 27
M  V30 27 1 27 28
M  V30 28 1 26 3
M  V30 29 1 21 7
M  V30 30 1 17 11
M  V30 31 1 1 29
M  V30 32 1 1 30
M  V30 33 1 1 31
M  V30 34 1 4 32
M  V30 35 1 6 33
M  V30 36 1 8 34
M  V30 37 1 12 35
M  V30 38 1 13 36
M  V30 39 1 15 37
M  V30 40 1 15 38
M  V30 41 1 15 39
M  V30 42 1 18 40
M  V30 43 1 18 41
M  V30 44 1 18 42
M  V30 45 1 19 43
M  V30 46 1 20 44
M  V30 47 1 22 45
M  V30 48 1 25 46
M  V30 49 1 25 47
M  V30 50 1 25 48
M  V30 51 1 28 49
M  V30 52 1 28 50
M  V30 53 1 28 51
M  V30 END BOND
M  V30 END CTAB
M  END
>  <Dataset>  (187) 
ChEMBL_Kinases

>  <Ligand_Instance>  (187) 
nan

>  <PDB_ID>  (187) 
nan

>  <Standardized_SMILES>  (187) 
COc1cc(Nc2cc(Oc3ccc(C)nc3C)ccn2)cc(OC)c1OC

>  <Name>  (187) 
nan

>  <Pocket>  (187) 
nan

>  <ATP_Site>  (187) 
nan

>  <Peripheral>  (187) 
nan

>  <Num_H_Atoms_ProtBoundConf>  (187) 
nan

>  <Num_Resolved_Atoms>  (187) 
nan

>  <Num_Not_Resolved_Atoms>  (187) 
nan

$$$$
CHEMBL3731812
     RDKit          3D

  0  0  0  0  0  0  0  0  0  0999 V3000
M  V30 BEGIN CTAB
M  V30 COUNTS 51 55 0 0 0
M  V30 BEGIN ATOM
M  V30 1 N 1.707382 -4.640474 0.016170 0
M  V30 2 C 0.666148 -3.684704 0.403467 0 CFG=1
M  V30 3 C 1.285830 -2.333338 0.724441 0
M  V30 4 O 0.257926 -1.435555 1.094040 0
M  V30 5 C 0.515210 -0.119083 1.444170 0
M  V30 6 N 1.793751 0.286392 1.421511 0
M  V30 7 C 2.249332 1.495060 1.719070 0
M  V30 8 C 3.653283 1.876504 1.675875 0
M  V30 9 C 4.586223 0.944959 1.306834 0
M  V30 10 C 5.910500 1.336007 1.275070 0
M  V30 11 N 6.313782 2.573316 1.586552 0
M  V30 12 C 5.404125 3.492460 1.949496 0
M  V30 13 C 4.074563 3.150816 1.996026 0
M  V30 14 N 1.292906 2.371003 2.074704 0
M  V30 15 C -0.039734 2.009036 2.115749 0
M  V30 16 S -1.460118 2.910775 2.529309 0
M  V30 17 C -2.612782 1.561766 2.267259 0
M  V30 18 C -1.793192 0.518356 1.878486 0
M  V30 19 C -0.467560 0.783145 1.810228 0
M  V30 20 C -2.652530 -0.674414 1.631502 0
M  V30 21 C -3.633626 -0.260862 0.541253 0
M  V30 22 C -4.648667 0.693374 1.135778 0
M  V30 23 C -4.118514 1.376829 2.375778 0
M  V30 24 C -0.283532 -3.584180 -0.724265 0
M  V30 25 C -1.662203 -3.595277 -0.692117 0
M  V30 26 C -2.397258 -3.489604 -1.853793 0
M  V30 27 C -1.767713 -3.368421 -3.095325 0
M  V30 28 C -0.404654 -3.357871 -3.122858 0
M  V30 29 C 0.350123 -3.464194 -1.952988 0
M  V30 30 H 2.412466 -4.115288 -0.547277 0
M  V30 31 H 2.162787 -5.002244 0.893093 0
M  V30 32 H 0.202718 -4.085496 1.327975 0
M  V30 33 H 1.889964 -1.998700 -0.131780 0
M  V30 34 H 1.956502 -2.509233 1.611571 0
M  V30 35 H 4.356059 -0.096118 1.032878 0
M  V30 36 H 6.725314 0.674608 0.996470 0
M  V30 37 H 5.608495 4.517648 2.221696 0
M  V30 38 H 3.288931 3.850185 2.282361 0
M  V30 39 H -3.218821 -0.896213 2.574623 0
M  V30 40 H -2.057836 -1.522780 1.307921 0
M  V30 41 H -3.035125 0.263771 -0.232524 0
M  V30 42 H -4.106768 -1.132125 0.077482 0
M  V30 43 H -4.987091 1.387908 0.363837 0
M  V30 44 H -5.511241 0.072399 1.456814 0
M  V30 45 H -4.583154 2.404436 2.359314 0
M  V30 46 H -4.408051 0.875651 3.296485 0
M  V30 47 H -2.077820 -3.690359 0.282695 0
M  V30 48 H -3.460408 -3.506992 -1.735538 0
M  V30 49 H -2.444659 -3.293444 -3.929181 0
M  V30 50 H 0.000235 -3.260828 -4.123207 0
M  V30 51 H 1.416205 -3.435316 -2.192468 0
M  V30 END ATOM
M  V30 BEGIN BOND
M  V30 1 1 1 2
M  V30 2 1 2 3
M  V30 3 1 3 4
M  V30 4 1 4 5
M  V30 5 2 5 6
M  V30 6 1 6 7
M  V30 7 1 7 8
M  V30 8 2 8 9
M  V30 9 1 9 10
M  V30 10 2 10 11
M  V30 11 1 11 12
M  V30 12 2 12 13
M  V30 13 2 7 14
M  V30 14 1 14 15
M  V30 15 1 15 16
M  V30 16 1 16 17
M  V30 17 2 17 18
M  V30 18 1 18 19
M  V30 19 1 18 20
M  V30 20 1 20 21
M  V30 21 1 21 22
M  V30 22 1 22 23
M  V30 23 1 2 24
M  V30 24 2 24 25
M  V30 25 1 25 26
M  V30 26 2 26 27
M  V30 27 1 27 28
M  V30 28 2 28 29
M  V30 29 1 19 5
M  V30 30 1 29 24
M  V30 31 1 13 8
M  V30 32 2 19 15
M  V30 33 1 23 17
M  V30 34 1 1 30
M  V30 35 1 1 31
M  V30 36 1 2 32 CFG=1
M  V30 37 1 3 33
M  V30 38 1 3 34
M  V30 39 1 9 35
M  V30 40 1 10 36
M  V30 41 1 12 37
M  V30 42 1 13 38
M  V30 43 1 20 39
M  V30 44 1 20 40
M  V30 45 1 21 41
M  V30 46 1 21 42
M  V30 47 1 22 43
M  V30 48 1 22 44
M  V30 49 1 23 45
M  V30 50 1 23 46
M  V30 51 1 25 47
M  V30 52 1 26 48
M  V30 53 1 27 49
M  V30 54 1 28 50
M  V30 55 1 29 51
M  V30 END BOND
M  V30 END CTAB
M  END
>  <Dataset>  (188) 
ChEMBL_Kinases

>  <Ligand_Instance>  (188) 
nan

>  <PDB_ID>  (188) 
nan

>  <Standardized_SMILES>  (188) 
N[C@@H](COc1nc(-c2ccncc2)nc2sc3c(c12)CCCC3)c1ccccc1

>  <Name>  (188) 
nan

>  <Pocket>  (188) 
nan

>  <ATP_Site>  (188) 
nan

>  <Peripheral>  (188) 
nan

>  <Num_H_Atoms_ProtBoundConf>  (188) 
nan

>  <Num_Resolved_Atoms>  (188) 
nan

>  <Num_Not_Resolved_Atoms>  (188) 
nan

$$$$
CHEMBL3731810
     RDKit          3D

  0  0  0  0  0  0  0  0  0  0999 V3000
M  V30 BEGIN CTAB
M  V30 COUNTS 62 65 0 0 0
M  V30 BEGIN ATOM
M  V30 1 C 3.434575 -0.999025 5.448137 0
M  V30 2 N 2.339422 -1.781182 4.933176 0
M  V30 3 C 1.978243 -1.659447 3.647802 0
M  V30 4 N 2.589820 -0.843872 2.666428 0
M  V30 5 C 3.762899 -0.019385 2.623598 0
M  V30 6 C 4.288531 0.049709 1.188997 0
M  V30 7 O 3.424061 0.809116 0.393601 0
M  V30 8 C 2.116017 0.702305 0.896386 0 CFG=1
M  V30 9 C 1.185485 1.063070 -0.193159 0
M  V30 10 C 0.143849 1.913246 0.113102 0
M  V30 11 C -0.774981 2.307506 -0.836864 0
M  V30 12 C -0.637231 1.832021 -2.123827 0
M  V30 13 N -1.435313 2.079842 -3.277015 0
M  V30 14 C -2.481336 1.126802 -3.380684 0
M  V30 15 O -2.717792 0.161227 -2.577771 0
M  V30 16 C -3.561119 0.944379 -4.371235 0
M  V30 17 C -4.373252 -0.260599 -3.927496 0
M  V30 18 C -3.013205 0.579561 -5.753448 0
M  V30 19 C -4.418797 2.175404 -4.418526 0
M  V30 20 C 0.414806 0.970809 -2.442390 0
M  V30 21 C 1.339668 0.576996 -1.474625 0
M  V30 22 C 1.959493 -0.728836 1.369872 0
M  V30 23 N 0.939401 -2.414690 3.257780 0
M  V30 24 C 0.286474 -3.246539 4.078470 0
M  V30 25 C -0.827398 -4.035590 3.575545 0
M  V30 26 C -1.561894 -4.906925 4.344999 0
M  V30 27 C -2.612497 -5.646744 3.845405 0
M  V30 28 N -2.986135 -5.558706 2.560165 0
M  V30 29 C -2.301847 -4.721128 1.761962 0
M  V30 30 C -1.251002 -3.982789 2.265373 0
M  V30 31 F -0.636661 -3.176850 1.372287 0
M  V30 32 C 0.670494 -3.359470 5.394083 0
M  V30 33 C 1.734477 -2.593639 5.817550 0
M  V30 34 O 2.119187 -2.666196 7.013289 0
M  V30 35 H 4.408830 -1.471257 5.275029 0
M  V30 36 H 3.377570 -0.937972 6.587225 0
M  V30 37 H 3.413090 0.067864 5.154829 0
M  V30 38 H 3.588002 1.025244 3.004974 0
M  V30 39 H 4.629492 -0.406766 3.202331 0
M  V30 40 H 4.346171 -0.977050 0.804941 0
M  V30 41 H 5.286746 0.491867 1.190619 0
M  V30 42 H 2.019933 1.386272 1.751799 0
M  V30 43 H -0.055487 2.345178 1.094561 0
M  V30 44 H -1.625713 2.962136 -0.722524 0
M  V30 45 H -1.481466 2.755261 -4.071341 0
M  V30 46 H -3.803532 -1.202700 -4.059430 0
M  V30 47 H -4.611651 -0.173077 -2.846014 0
M  V30 48 H -5.293206 -0.351318 -4.555716 0
M  V30 49 H -3.419756 -0.361256 -6.143388 0
M  V30 50 H -3.111948 1.426152 -6.465214 0
M  V30 51 H -1.919768 0.394721 -5.603185 0
M  V30 52 H -5.398478 1.991468 -4.912906 0
M  V30 53 H -4.510123 2.586492 -3.411669 0
M  V30 54 H -3.891839 2.911812 -5.080644 0
M  V30 55 H 0.630309 0.530306 -3.413505 0
M  V30 56 H 2.168910 -0.089540 -1.679716 0
M  V30 57 H 2.383389 -1.450640 0.669968 0
M  V30 58 H 0.852709 -0.949422 1.457525 0
M  V30 59 H -1.325108 -5.035565 5.389692 0
M  V30 60 H -3.195821 -6.334462 4.440467 0
M  V30 61 H -2.607675 -4.648704 0.708652 0
M  V30 62 H 0.208798 -3.997664 6.125379 0
M  V30 END ATOM
M  V30 BEGIN BOND
M  V30 1 1 1 2
M  V30 2 1 2 3
M  V30 3 1 3 4
M  V30 4 1 4 5
M  V30 5 1 5 6
M  V30 6 1 6 7
M  V30 7 1 7 8
M  V30 8 1 8 9
M  V30 9 2 9 10
M  V30 10 1 10 11
M  V30 11 2 11 12
M  V30 12 1 12 13
M  V30 13 1 13 14
M  V30 14 2 14 15
M  V30 15 1 14 16
M  V30 16 1 16 17
M  V30 17 1 16 18
M  V30 18 1 16 19
M  V30 19 1 12 20
M  V30 20 2 20 21
M  V30 21 1 8 22
M  V30 22 2 3 23
M  V30 23 1 23 24
M  V30 24 1 24 25
M  V30 25 2 25 26
M  V30 26 1 26 27
M  V30 27 2 27 28
M  V30 28 1 28 29
M  V30 29 2 29 30
M  V30 30 1 30 31
M  V30 31 2 24 32
M  V30 32 1 32 33
M  V30 33 2 33 34
M  V30 34 1 33 2
M  V30 35 1 22 4
M  V30 36 1 30 25
M  V30 37 1 21 9
M  V30 38 1 1 35
M  V30 39 1 1 36
M  V30 40 1 1 37
M  V30 41 1 5 38
M  V30 42 1 5 39
M  V30 43 1 6 40
M  V30 44 1 6 41
M  V30 45 1 8 42 CFG=1
M  V30 46 1 10 43
M  V30 47 1 11 44
M  V30 48 1 13 45
M  V30 49 1 17 46
M  V30 50 1 17 47
M  V30 51 1 17 48
M  V30 52 1 18 49
M  V30 53 1 18 50
M  V30 54 1 18 51
M  V30 55 1 19 52
M  V30 56 1 19 53
M  V30 57 1 19 54
M  V30 58 1 20 55
M  V30 59 1 21 56
M  V30 60 1 22 57
M  V30 61 1 22 58
M  V30 62 1 26 59
M  V30 63 1 27 60
M  V30 64 1 29 61
M  V30 65 1 32 62
M  V30 END BOND
M  V30 END CTAB
M  END
>  <Dataset>  (189) 
ChEMBL_Kinases

>  <Ligand_Instance>  (189) 
nan

>  <PDB_ID>  (189) 
nan

>  <Standardized_SMILES>  (189) 
Cn1c(N2CCO[C@@H](c3ccc(NC(=O)C(C)(C)C)cc3)C2)nc(-c2ccncc2F)cc1=O

>  <Name>  (189) 
nan

>  <Pocket>  (189) 
nan

>  <ATP_Site>  (189) 
nan

>  <Peripheral>  (189) 
nan

>  <Num_H_Atoms_ProtBoundConf>  (189) 
nan

>  <Num_Resolved_Atoms>  (189) 
nan

>  <Num_Not_Resolved_Atoms>  (189) 
nan

$$$$
CHEMBL3731806
     RDKit          3D

  0  0  0  0  0  0  0  0  0  0999 V3000
M  V30 BEGIN CTAB
M  V30 COUNTS 65 70 0 0 0
M  V30 BEGIN ATOM
M  V30 1 C 4.131417 -0.673701 2.623618 0
M  V30 2 N 4.651841 0.666118 2.318923 0
M  V30 3 C 4.887278 0.845670 0.899750 0
M  V30 4 C 4.182793 2.091860 0.379126 0
M  V30 5 N 2.783197 1.983864 0.652366 0
M  V30 6 C 1.770015 2.413431 -0.245838 0
M  V30 7 C 2.075208 3.068670 -1.423218 0
M  V30 8 C 1.058918 3.479022 -2.293922 0
M  V30 9 C -0.266125 3.217592 -1.957019 0
M  V30 10 C -0.623922 2.557516 -0.776633 0
M  V30 11 N -1.976026 2.296227 -0.448416 0
M  V30 12 C -2.250069 1.578298 0.771052 0
M  V30 13 C -2.309217 0.208807 0.689184 0
M  V30 14 C -2.563513 -0.579670 1.790657 0
M  V30 15 C -2.606071 -2.032761 1.604416 0
M  V30 16 N -2.403959 -2.569691 0.356649 0
M  V30 17 C -2.451300 -3.911542 0.240047 0
M  V30 18 N -2.263666 -4.576933 -0.997606 0
M  V30 19 C -2.024624 -3.778420 -2.165259 0 CFG=2
M  V30 20 C -0.822458 -2.899948 -2.104472 0
M  V30 21 C -1.179214 -1.639014 -2.829209 0
M  V30 22 N -2.586743 -1.643430 -3.072515 0
M  V30 23 C -3.145166 -2.822171 -2.492213 0
M  V30 24 C -2.696598 -4.743770 1.343395 0
M  V30 25 S -2.829950 -6.443058 1.596673 0
M  V30 26 C -3.166137 -6.294723 3.464899 0
M  V30 27 C -3.134400 -4.971001 3.659956 0
M  V30 28 C -2.895217 -4.154481 2.587038 0
M  V30 29 N -2.842212 -2.795783 2.675137 0
M  V30 30 C -2.766673 0.011135 3.019613 0
M  V30 31 C -2.699698 1.400672 3.066591 0
M  V30 32 N -2.448505 2.155960 1.970998 0
M  V30 33 C 0.438037 2.188549 0.022616 0
M  V30 34 C 2.420424 1.403570 1.931392 0
M  V30 35 C 3.656502 1.600151 2.816470 0
M  V30 36 H 3.662616 -1.093903 1.720462 0
M  V30 37 H 4.933041 -1.353860 2.958873 0
M  V30 38 H 3.375953 -0.637079 3.443466 0
M  V30 39 H 5.974323 1.025389 0.766609 0
M  V30 40 H 4.600918 -0.066835 0.357765 0
M  V30 41 H 4.449103 2.158022 -0.688800 0
M  V30 42 H 4.671579 2.962543 0.887692 0
M  V30 43 H 3.102254 3.284333 -1.708340 0
M  V30 44 H 1.227844 3.996725 -3.233415 0
M  V30 45 H -1.059122 3.532406 -2.625522 0
M  V30 46 H -2.706425 2.635743 -1.105622 0
M  V30 47 H -2.152849 -0.272606 -0.266906 0
M  V30 48 H -2.290538 -5.611123 -1.102428 0
M  V30 49 H -1.899437 -4.425472 -3.084217 0
M  V30 50 H 0.054439 -3.342221 -2.644410 0
M  V30 51 H -0.448466 -2.705732 -1.079314 0
M  V30 52 H -0.685940 -1.574560 -3.836129 0
M  V30 53 H -0.901919 -0.722492 -2.264739 0
M  V30 54 H -2.849339 -1.563074 -4.092106 0
M  V30 55 H -3.876806 -3.269379 -3.208287 0
M  V30 56 H -3.731922 -2.552604 -1.606592 0
M  V30 57 H -3.322716 -7.187350 4.066045 0
M  V30 58 H -3.310898 -4.705339 4.691816 0
M  V30 59 H -2.966339 -0.601370 3.884485 0
M  V30 60 H -2.852938 1.892693 4.009783 0
M  V30 61 H 0.114581 1.673329 0.940028 0
M  V30 62 H 2.216238 0.336249 1.786710 0
M  V30 63 H 1.561085 1.980458 2.337737 0
M  V30 64 H 3.957269 2.649710 2.776116 0
M  V30 65 H 3.369176 1.312578 3.849784 0
M  V30 END ATOM
M  V30 BEGIN BOND
M  V30 1 1 1 2
M  V30 2 1 2 3
M  V30 3 1 3 4
M  V30 4 1 4 5
M  V30 5 1 5 6
M  V30 6 2 6 7
M  V30 7 1 7 8
M  V30 8 2 8 9
M  V30 9 1 9 10
M  V30 10 1 10 11
M  V30 11 1 11 12
M  V30 12 2 12 13
M  V30 13 1 13 14
M  V30 14 1 14 15
M  V30 15 2 15 16
M  V30 16 1 16 17
M  V30 17 1 17 18
M  V30 18 1 18 19
M  V30 19 1 19 20
M  V30 20 1 20 21
M  V30 21 1 21 22
M  V30 22 1 22 23
M  V30 23 2 17 24
M  V30 24 1 24 25
M  V30 25 1 25 26
M  V30 26 2 26 27
M  V30 27 1 27 28
M  V30 28 2 28 29
M  V30 29 2 14 30
M  V30 30 1 30 31
M  V30 31 2 31 32
M  V30 32 2 10 33
M  V30 33 1 5 34
M  V30 34 1 34 35
M  V30 35 1 35 2
M  V30 36 1 33 6
M  V30 37 1 32 12
M  V30 38 1 29 15
M  V30 39 1 23 19
M  V30 40 1 28 24
M  V30 41 1 1 36
M  V30 42 1 1 37
M  V30 43 1 1 38
M  V30 44 1 3 39
M  V30 45 1 3 40
M  V30 46 1 4 41
M  V30 47 1 4 42
M  V30 48 1 7 43
M  V30 49 1 8 44
M  V30 50 1 9 45
M  V30 51 1 11 46
M  V30 52 1 13 47
M  V30 53 1 18 48
M  V30 54 1 19 49 CFG=3
M  V30 55 1 20 50
M  V30 56 1 20 51
M  V30 57 1 21 52
M  V30 58 1 21 53
M  V30 59 1 22 54
M  V30 60 1 23 55
M  V30 61 1 23 56
M  V30 62 1 26 57
M  V30 63 1 27 58
M  V30 64 1 30 59
M  V30 65 1 31 60
M  V30 66 1 33 61
M  V30 67 1 34 62
M  V30 68 1 34 63
M  V30 69 1 35 64
M  V30 70 1 35 65
M  V30 END BOND
M  V30 END CTAB
M  END
>  <Dataset>  (190) 
ChEMBL_Kinases

>  <Ligand_Instance>  (190) 
nan

>  <PDB_ID>  (190) 
nan

>  <Standardized_SMILES>  (190) 
CN1CCN(c2cccc(Nc3cc(-c4nc(N[C@@H]5CCNC5)c5sccc5n4)ccn3)c2)CC1

>  <Name>  (190) 
nan

>  <Pocket>  (190) 
nan

>  <ATP_Site>  (190) 
nan

>  <Peripheral>  (190) 
nan

>  <Num_H_Atoms_ProtBoundConf>  (190) 
nan

>  <Num_Resolved_Atoms>  (190) 
nan

>  <Num_Not_Resolved_Atoms>  (190) 
nan

$$$$
CHEMBL3731803
     RDKit          3D

  0  0  0  0  0  0  0  0  0  0999 V3000
M  V30 BEGIN CTAB
M  V30 COUNTS 65 69 0 0 0
M  V30 BEGIN ATOM
M  V30 1 C 4.909482 -0.252749 1.924029 0
M  V30 2 O 3.558918 0.038108 2.201223 0
M  V30 3 C 3.276877 1.247951 2.821554 0
M  V30 4 C 4.125903 2.254163 3.229317 0
M  V30 5 C 3.605519 3.379878 3.832282 0
M  V30 6 C 2.251475 3.534171 4.042996 0
M  V30 7 C 1.766687 4.786908 4.704522 0
M  V30 8 F 2.191654 4.890437 6.000605 0
M  V30 9 F 0.382264 4.787890 4.579898 0
M  V30 10 F 2.212188 5.841700 3.911684 0
M  V30 11 C 1.388134 2.535738 3.640453 0
M  V30 12 C 1.903897 1.403815 3.034896 0
M  V30 13 C 0.880365 0.415050 2.652968 0
M  V30 14 C 0.562284 -0.536478 3.592585 0
M  V30 15 C 1.047627 -0.784126 4.951173 0
M  V30 16 S -0.679863 -1.523910 2.778923 0
M  V30 17 C -0.692395 -0.618417 1.266500 0
M  V30 18 C -1.433397 -0.799609 0.110811 0
M  V30 19 N -2.346102 -1.860199 0.082773 0
M  V30 20 C -3.196521 -2.223431 -0.996793 0
M  V30 21 C -2.543205 -2.672578 -2.252306 0 CFG=1
M  V30 22 N -1.674552 -1.748216 -2.898247 0
M  V30 23 C -1.806828 -3.993882 -2.096919 0
M  V30 24 C -2.713879 -5.092491 -1.684165 0
M  V30 25 C -3.343846 -5.850634 -2.660049 0
M  V30 26 C -4.195326 -6.881661 -2.300308 0
M  V30 27 C -4.452793 -7.198018 -0.964780 0
M  V30 28 C -3.828133 -6.446271 0.001717 0
M  V30 29 C -2.970173 -5.407381 -0.365606 0
M  V30 30 N -1.266419 0.032603 -0.929148 0
M  V30 31 C -0.337743 1.014407 -0.720844 0
M  V30 32 C -0.049237 2.006231 -1.780886 0
M  V30 33 C -0.749054 1.896786 -2.961067 0
M  V30 34 C -0.541317 2.780975 -4.000586 0
M  V30 35 N 0.352741 3.778685 -3.892766 0
M  V30 36 C 1.044464 3.898073 -2.744441 0
M  V30 37 C 0.864881 3.034598 -1.684065 0
M  V30 38 N 0.381123 1.193426 0.394894 0
M  V30 39 C 0.228872 0.369983 1.449279 0
M  V30 40 H 5.586247 0.060223 2.739311 0
M  V30 41 H 5.081651 -1.331065 1.732709 0
M  V30 42 H 5.224467 0.300659 0.995126 0
M  V30 43 H 5.163048 2.035143 3.018499 0
M  V30 44 H 4.323759 4.135557 4.130373 0
M  V30 45 H 0.349922 2.688293 3.818725 0
M  V30 46 H 1.335358 -1.846082 5.111812 0
M  V30 47 H 0.223775 -0.574674 5.664858 0
M  V30 48 H 1.847331 -0.074544 5.137353 0
M  V30 49 H -2.465723 -2.501688 0.923775 0
M  V30 50 H -4.003697 -2.946393 -0.736927 0
M  V30 51 H -3.776073 -1.285612 -1.268110 0
M  V30 52 H -3.361057 -2.906190 -2.996423 0
M  V30 53 H -2.150286 -1.127875 -3.591602 0
M  V30 54 H -0.942364 -2.277242 -3.419831 0
M  V30 55 H -1.385680 -4.215352 -3.117759 0
M  V30 56 H -0.921674 -3.906910 -1.432772 0
M  V30 57 H -3.195063 -5.666740 -3.718871 0
M  V30 58 H -4.701668 -7.491183 -3.049097 0
M  V30 59 H -5.114414 -7.999292 -0.659763 0
M  V30 60 H -4.018340 -6.680297 1.055732 0
M  V30 61 H -2.504786 -4.847434 0.417422 0
M  V30 62 H -1.488080 1.131156 -3.145538 0
M  V30 63 H -1.092876 2.691546 -4.925634 0
M  V30 64 H 1.780747 4.689229 -2.605926 0
M  V30 65 H 1.409842 3.107436 -0.744752 0
M  V30 END ATOM
M  V30 BEGIN BOND
M  V30 1 1 1 2
M  V30 2 1 2 3
M  V30 3 2 3 4
M  V30 4 1 4 5
M  V30 5 2 5 6
M  V30 6 1 6 7
M  V30 7 1 7 8
M  V30 8 1 7 9
M  V30 9 1 7 10
M  V30 10 1 6 11
M  V30 11 2 11 12
M  V30 12 1 12 13
M  V30 13 2 13 14
M  V30 14 1 14 15
M  V30 15 1 14 16
M  V30 16 1 16 17
M  V30 17 2 17 18
M  V30 18 1 18 19
M  V30 19 1 19 20
M  V30 20 1 20 21
M  V30 21 1 21 22
M  V30 22 1 21 23
M  V30 23 1 23 24
M  V30 24 2 24 25
M  V30 25 1 25 26
M  V30 26 2 26 27
M  V30 27 1 27 28
M  V30 28 2 28 29
M  V30 29 1 18 30
M  V30 30 2 30 31
M  V30 31 1 31 32
M  V30 32 2 32 33
M  V30 33 1 33 34
M  V30 34 2 34 35
M  V30 35 1 35 36
M  V30 36 2 36 37
M  V30 37 1 31 38
M  V30 38 2 38 39
M  V30 39 1 12 3
M  V30 40 1 39 13
M  V30 41 1 39 17
M  V30 42 1 29 24
M  V30 43 1 37 32
M  V30 44 1 1 40
M  V30 45 1 1 41
M  V30 46 1 1 42
M  V30 47 1 4 43
M  V30 48 1 5 44
M  V30 49 1 11 45
M  V30 50 1 15 46
M  V30 51 1 15 47
M  V30 52 1 15 48
M  V30 53 1 19 49
M  V30 54 1 20 50
M  V30 55 1 20 51
M  V30 56 1 21 52 CFG=3
M  V30 57 1 22 53
M  V30 58 1 22 54
M  V30 59 1 23 55
M  V30 60 1 23 56
M  V30 61 1 25 57
M  V30 62 1 26 58
M  V30 63 1 27 59
M  V30 64 1 28 60
M  V30 65 1 29 61
M  V30 66 1 33 62
M  V30 67 1 34 63
M  V30 68 1 36 64
M  V30 69 1 37 65
M  V30 END BOND
M  V30 END CTAB
M  END
>  <Dataset>  (191) 
ChEMBL_Kinases

>  <Ligand_Instance>  (191) 
nan

>  <PDB_ID>  (191) 
nan

>  <Standardized_SMILES>  (191) 
COc1ccc(C(F)(F)F)cc1-c1c(C)sc2c(NC[C@@H](N)Cc3ccccc3)nc(-c3ccncc3)nc12

>  <Name>  (191) 
nan

>  <Pocket>  (191) 
nan

>  <ATP_Site>  (191) 
nan

>  <Peripheral>  (191) 
nan

>  <Num_H_Atoms_ProtBoundConf>  (191) 
nan

>  <Num_Resolved_Atoms>  (191) 
nan

>  <Num_Not_Resolved_Atoms>  (191) 
nan

$$$$
CHEMBL3731799
     RDKit          3D

  0  0  0  0  0  0  0  0  0  0999 V3000
M  V30 BEGIN CTAB
M  V30 COUNTS 38 40 0 0 0
M  V30 BEGIN ATOM
M  V30 1 C -1.896802 -5.618641 2.448505 0
M  V30 2 C -2.668871 -4.579574 1.689080 0
M  V30 3 C -1.889243 -3.259507 1.646964 0
M  V30 4 C -0.993640 -2.793386 0.768050 0
M  V30 5 C -0.452588 -1.585771 0.969318 0
M  V30 6 C 0.495869 -0.914210 0.179229 0
M  V30 7 N 1.028874 -1.482984 -1.010303 0
M  V30 8 C 2.007318 -0.823780 -1.853409 0
M  V30 9 C 1.480745 0.483540 -2.403056 0
M  V30 10 N 0.288859 0.195172 -3.190120 0
M  V30 11 N 0.912226 0.287717 0.549693 0
M  V30 12 C 0.524486 0.975616 1.633726 0
M  V30 13 C 0.980253 2.295449 2.042563 0
M  V30 14 C 1.912292 2.958481 1.268693 0
M  V30 15 C 2.382529 4.217382 1.609217 0
M  V30 16 N 1.904748 4.777522 2.717613 0
M  V30 17 C 0.999722 4.179356 3.505151 0
M  V30 18 C 0.512777 2.915411 3.183912 0
M  V30 19 N -0.379451 0.356761 2.403478 0
M  V30 20 C -0.851761 -0.899948 2.067635 0
M  V30 21 S -2.024226 -2.001789 2.829508 0
M  V30 22 H -1.184571 -6.134268 1.771237 0
M  V30 23 H -1.297979 -5.098527 3.228726 0
M  V30 24 H -2.572198 -6.330887 2.957526 0
M  V30 25 H -3.635002 -4.331681 2.211806 0
M  V30 26 H -2.847068 -4.864441 0.633197 0
M  V30 27 H -0.767926 -3.468875 -0.080482 0
M  V30 28 H 0.673410 -2.435080 -1.264848 0
M  V30 29 H 2.256587 -1.488483 -2.702423 0
M  V30 30 H 2.955984 -0.658018 -1.271717 0
M  V30 31 H 1.247490 1.201832 -1.613052 0
M  V30 32 H 2.286561 0.891311 -3.062030 0
M  V30 33 H -0.264748 1.076005 -3.322704 0
M  V30 34 H 0.552722 -0.215307 -4.104084 0
M  V30 35 H 2.325718 2.535324 0.358252 0
M  V30 36 H 3.105593 4.802373 1.064703 0
M  V30 37 H 0.574360 4.597106 4.427942 0
M  V30 38 H -0.208331 2.417664 3.794686 0
M  V30 END ATOM
M  V30 BEGIN BOND
M  V30 1 1 1 2
M  V30 2 1 2 3
M  V30 3 2 3 4
M  V30 4 1 4 5
M  V30 5 2 5 6
M  V30 6 1 6 7
M  V30 7 1 7 8
M  V30 8 1 8 9
M  V30 9 1 9 10
M  V30 10 1 6 11
M  V30 11 2 11 12
M  V30 12 1 12 13
M  V30 13 2 13 14
M  V30 14 1 14 15
M  V30 15 2 15 16
M  V30 16 1 16 17
M  V30 17 2 17 18
M  V30 18 1 12 19
M  V30 19 2 19 20
M  V30 20 1 20 21
M  V30 21 1 21 3
M  V30 22 1 20 5
M  V30 23 1 18 13
M  V30 24 1 1 22
M  V30 25 1 1 23
M  V30 26 1 1 24
M  V30 27 1 2 25
M  V30 28 1 2 26
M  V30 29 1 4 27
M  V30 30 1 7 28
M  V30 31 1 8 29
M  V30 32 1 8 30
M  V30 33 1 9 31
M  V30 34 1 9 32
M  V30 35 1 10 33
M  V30 36 1 10 34
M  V30 37 1 14 35
M  V30 38 1 15 36
M  V30 39 1 17 37
M  V30 40 1 18 38
M  V30 END BOND
M  V30 END CTAB
M  END
>  <Dataset>  (192) 
ChEMBL_Kinases

>  <Ligand_Instance>  (192) 
nan

>  <PDB_ID>  (192) 
nan

>  <Standardized_SMILES>  (192) 
CCc1cc2c(NCCN)nc(-c3ccncc3)nc2s1

>  <Name>  (192) 
nan

>  <Pocket>  (192) 
nan

>  <ATP_Site>  (192) 
nan

>  <Peripheral>  (192) 
nan

>  <Num_H_Atoms_ProtBoundConf>  (192) 
nan

>  <Num_Resolved_Atoms>  (192) 
nan

>  <Num_Not_Resolved_Atoms>  (192) 
nan

$$$$
CHEMBL3731795
     RDKit          3D

  0  0  0  0  0  0  0  0  0  0999 V3000
M  V30 BEGIN CTAB
M  V30 COUNTS 53 57 0 0 0
M  V30 BEGIN ATOM
M  V30 1 N -1.170305 -4.907779 1.341837 0
M  V30 2 C 0.197787 -4.536833 1.491407 0 CFG=2
M  V30 3 C 0.389294 -3.089151 1.141927 0
M  V30 4 N -0.366403 -2.194610 1.953607 0
M  V30 5 C -0.258451 -0.811248 1.707155 0
M  V30 6 N 0.539777 -0.314314 0.724929 0
M  V30 7 C 0.520765 1.049899 0.629340 0
M  V30 8 C 1.372366 1.647397 -0.424442 0
M  V30 9 C 1.415427 3.010621 -0.592723 0
M  V30 10 C 2.241560 3.485686 -1.605933 0
M  V30 11 N 2.952603 2.654064 -2.370971 0
M  V30 12 C 2.909276 1.329462 -2.205708 0
M  V30 13 C 2.101107 0.779716 -1.207196 0
M  V30 14 N -0.201820 1.862196 1.409361 0
M  V30 15 C -0.994765 1.378496 2.384217 0
M  V30 16 C -1.737770 2.193205 3.188106 0
M  V30 17 C -1.861963 3.647034 3.208341 0
M  V30 18 C -2.029153 4.383545 2.038046 0
M  V30 19 C -2.105709 5.698470 2.442415 0
M  V30 20 N -1.990198 5.742874 3.783030 0
M  V30 21 C -1.838363 4.482577 4.276996 0
M  V30 22 C -2.508562 1.490419 4.155807 0
M  V30 23 S -2.085677 -0.324439 3.815084 0
M  V30 24 C -1.021413 0.039026 2.531393 0
M  V30 25 C 1.032510 -5.379284 0.552124 0
M  V30 26 C 0.661860 -5.203878 -0.873350 0
M  V30 27 C 1.185619 -4.301736 -1.754797 0
M  V30 28 C 0.795001 -4.191612 -3.063931 0
M  V30 29 C -0.193642 -5.030067 -3.571508 0
M  V30 30 C -0.752413 -5.957253 -2.719874 0
M  V30 31 C -0.327279 -6.031458 -1.409628 0
M  V30 32 H -1.666430 -4.333260 0.641106 0
M  V30 33 H -1.677554 -5.072648 2.232861 0
M  V30 34 H 0.542365 -4.738870 2.529459 0
M  V30 35 H 1.475106 -2.869247 1.219978 0
M  V30 36 H 0.143175 -2.998108 0.052871 0
M  V30 37 H -0.972086 -2.592602 2.700449 0
M  V30 38 H 0.825062 3.632597 0.048365 0
M  V30 39 H 2.251547 4.570619 -1.711304 0
M  V30 40 H 3.493519 0.666353 -2.836061 0
M  V30 41 H 2.103913 -0.283572 -1.118785 0
M  V30 42 H -2.098408 4.093933 0.981189 0
M  V30 43 H -2.236555 6.589167 1.828702 0
M  V30 44 H -1.999425 6.554393 4.459886 0
M  V30 45 H -1.717941 4.116989 5.278477 0
M  V30 46 H -3.212372 1.950969 4.944173 0
M  V30 47 H 0.878651 -6.462089 0.793731 0
M  V30 48 H 2.112513 -5.106199 0.647901 0
M  V30 49 H 1.961595 -3.642013 -1.364878 0
M  V30 50 H 1.273869 -3.443677 -3.676573 0
M  V30 51 H -0.425057 -4.860849 -4.608267 0
M  V30 52 H -1.507585 -6.589355 -3.128591 0
M  V30 53 H -0.832904 -6.797545 -0.822147 0
M  V30 END ATOM
M  V30 BEGIN BOND
M  V30 1 1 1 2
M  V30 2 1 2 3
M  V30 3 1 3 4
M  V30 4 1 4 5
M  V30 5 2 5 6
M  V30 6 1 6 7
M  V30 7 1 7 8
M  V30 8 2 8 9
M  V30 9 1 9 10
M  V30 10 2 10 11
M  V30 11 1 11 12
M  V30 12 2 12 13
M  V30 13 2 7 14
M  V30 14 1 14 15
M  V30 15 1 15 16
M  V30 16 1 16 17
M  V30 17 1 17 18
M  V30 18 2 18 19
M  V30 19 1 19 20
M  V30 20 1 20 21
M  V30 21 2 16 22
M  V30 22 1 22 23
M  V30 23 1 23 24
M  V30 24 1 2 25
M  V30 25 1 25 26
M  V30 26 2 26 27
M  V30 27 1 27 28
M  V30 28 2 28 29
M  V30 29 1 29 30
M  V30 30 2 30 31
M  V30 31 1 24 5
M  V30 32 1 31 26
M  V30 33 1 13 8
M  V30 34 2 24 15
M  V30 35 2 21 17
M  V30 36 1 1 32
M  V30 37 1 1 33
M  V30 38 1 2 34 CFG=1
M  V30 39 1 3 35
M  V30 40 1 3 36
M  V30 41 1 4 37
M  V30 42 1 9 38
M  V30 43 1 10 39
M  V30 44 1 12 40
M  V30 45 1 13 41
M  V30 46 1 18 42
M  V30 47 1 19 43
M  V30 48 1 20 44
M  V30 49 1 21 45
M  V30 50 1 22 46
M  V30 51 1 25 47
M  V30 52 1 25 48
M  V30 53 1 27 49
M  V30 54 1 28 50
M  V30 55 1 29 51
M  V30 56 1 30 52
M  V30 57 1 31 53
M  V30 END BOND
M  V30 END CTAB
M  END
>  <Dataset>  (193) 
ChEMBL_Kinases

>  <Ligand_Instance>  (193) 
nan

>  <PDB_ID>  (193) 
nan

>  <Standardized_SMILES>  (193) 
N[C@H](CNc1nc(-c2ccncc2)nc2c(-c3cc[nH]c3)csc12)Cc1ccccc1

>  <Name>  (193) 
nan

>  <Pocket>  (193) 
nan

>  <ATP_Site>  (193) 
nan

>  <Peripheral>  (193) 
nan

>  <Num_H_Atoms_ProtBoundConf>  (193) 
nan

>  <Num_Resolved_Atoms>  (193) 
nan

>  <Num_Not_Resolved_Atoms>  (193) 
nan

$$$$
CHEMBL3731778
     RDKit          3D

  0  0  0  0  0  0  0  0  0  0999 V3000
M  V30 BEGIN CTAB
M  V30 COUNTS 61 65 0 0 0
M  V30 BEGIN ATOM
M  V30 1 C 3.900352 1.011759 5.319904 0
M  V30 2 O 3.284200 1.116452 4.039527 0
M  V30 3 C 4.066480 0.989001 2.892132 0
M  V30 4 N 5.393460 0.768789 2.980851 0
M  V30 5 C 6.085936 0.656231 1.833016 0
M  V30 6 C 5.528548 0.751170 0.559229 0
M  V30 7 C 4.164017 0.977566 0.491648 0
M  V30 8 C 3.433632 1.096366 1.661602 0
M  V30 9 C 2.004626 1.333619 1.499992 0
M  V30 10 C 1.578974 2.624536 1.431955 0
M  V30 11 C 2.289086 3.895466 1.489614 0
M  V30 12 S -0.231820 2.541573 1.233430 0
M  V30 13 C -0.259559 0.695251 1.260476 0
M  V30 14 C -1.341825 -0.159285 1.154941 0
M  V30 15 N -2.606447 0.422498 1.008535 0
M  V30 16 C -3.769957 -0.412355 0.892148 0
M  V30 17 C -3.737613 -1.316829 -0.320136 0 CFG=1
M  V30 18 N -4.949535 -2.122363 -0.359339 0
M  V30 19 C -3.706589 -0.499323 -1.577994 0
M  V30 20 C -3.673728 -1.282633 -2.817675 0
M  V30 21 C -2.471148 -1.659049 -3.385603 0
M  V30 22 C -2.484224 -2.399949 -4.559244 0
M  V30 23 C -3.660280 -2.775190 -5.181063 0
M  V30 24 C -4.826161 -2.369624 -4.566112 0
M  V30 25 C -4.889172 -1.633099 -3.401185 0
M  V30 26 N -1.092262 -1.478964 1.203998 0
M  V30 27 C 0.206324 -1.857099 1.353502 0
M  V30 28 C 0.514418 -3.288087 1.410809 0
M  V30 29 C 1.801624 -3.756310 1.560525 0
M  V30 30 C 2.090642 -5.103882 1.614352 0
M  V30 31 N 1.039955 -5.947946 1.512096 0
M  V30 32 C -0.221867 -5.501499 1.365538 0
M  V30 33 C -0.555073 -4.151775 1.306796 0
M  V30 34 N 1.224583 -1.006086 1.452032 0
M  V30 35 C 1.082431 0.330229 1.414559 0
M  V30 36 H 4.229681 2.022161 5.689332 0
M  V30 37 H 3.280170 0.515503 6.066913 0
M  V30 38 H 4.823742 0.403806 5.196182 0
M  V30 39 H 7.165471 0.477250 1.822174 0
M  V30 40 H 6.098146 0.658494 -0.338548 0
M  V30 41 H 3.676832 1.060278 -0.483890 0
M  V30 42 H 1.682447 4.663766 0.961723 0
M  V30 43 H 2.406120 4.315750 2.518506 0
M  V30 44 H 3.249041 3.895482 0.910798 0
M  V30 45 H -2.764583 1.430582 0.977640 0
M  V30 46 H -4.721863 0.162271 0.882919 0
M  V30 47 H -3.810320 -1.016169 1.841090 0
M  V30 48 H -2.881040 -1.997494 -0.250667 0
M  V30 49 H -5.523341 -2.019979 0.512825 0
M  V30 50 H -4.727886 -3.111576 -0.570189 0
M  V30 51 H -2.773605 0.128219 -1.510167 0
M  V30 52 H -4.533388 0.225391 -1.529083 0
M  V30 53 H -1.539931 -1.367462 -2.901995 0
M  V30 54 H -1.501625 -2.649711 -4.931746 0
M  V30 55 H -3.607823 -3.344746 -6.081818 0
M  V30 56 H -5.756227 -2.643360 -5.021416 0
M  V30 57 H -5.821722 -1.333543 -2.948648 0
M  V30 58 H 2.604689 -3.021706 1.637228 0
M  V30 59 H 3.103078 -5.465851 1.732005 0
M  V30 60 H -1.000250 -6.262667 1.291994 0
M  V30 61 H -1.595655 -3.874464 1.187413 0
M  V30 END ATOM
M  V30 BEGIN BOND
M  V30 1 1 1 2
M  V30 2 1 2 3
M  V30 3 2 3 4
M  V30 4 1 4 5
M  V30 5 2 5 6
M  V30 6 1 6 7
M  V30 7 2 7 8
M  V30 8 1 8 9
M  V30 9 2 9 10
M  V30 10 1 10 11
M  V30 11 1 10 12
M  V30 12 1 12 13
M  V30 13 2 13 14
M  V30 14 1 14 15
M  V30 15 1 15 16
M  V30 16 1 16 17
M  V30 17 1 17 18
M  V30 18 1 17 19
M  V30 19 1 19 20
M  V30 20 2 20 21
M  V30 21 1 21 22
M  V30 22 2 22 23
M  V30 23 1 23 24
M  V30 24 2 24 25
M  V30 25 1 14 26
M  V30 26 2 26 27
M  V30 27 1 27 28
M  V30 28 2 28 29
M  V30 29 1 29 30
M  V30 30 2 30 31
M  V30 31 1 31 32
M  V30 32 2 32 33
M  V30 33 1 27 34
M  V30 34 2 34 35
M  V30 35 1 8 3
M  V30 36 1 35 9
M  V30 37 1 35 13
M  V30 38 1 25 20
M  V30 39 1 33 28
M  V30 40 1 1 36
M  V30 41 1 1 37
M  V30 42 1 1 38
M  V30 43 1 5 39
M  V30 44 1 6 40
M  V30 45 1 7 41
M  V30 46 1 11 42
M  V30 47 1 11 43
M  V30 48 1 11 44
M  V30 49 1 15 45
M  V30 50 1 16 46
M  V30 51 1 16 47
M  V30 52 1 17 48 CFG=1
M  V30 53 1 18 49
M  V30 54 1 18 50
M  V30 55 1 19 51
M  V30 56 1 19 52
M  V30 57 1 21 53
M  V30 58 1 22 54
M  V30 59 1 23 55
M  V30 60 1 24 56
M  V30 61 1 25 57
M  V30 62 1 29 58
M  V30 63 1 30 59
M  V30 64 1 32 60
M  V30 65 1 33 61
M  V30 END BOND
M  V30 END CTAB
M  END
>  <Dataset>  (194) 
ChEMBL_Kinases

>  <Ligand_Instance>  (194) 
nan

>  <PDB_ID>  (194) 
nan

>  <Standardized_SMILES>  (194) 
COc1ncccc1-c1c(C)sc2c(NC[C@@H](N)Cc3ccccc3)nc(-c3ccncc3)nc12

>  <Name>  (194) 
nan

>  <Pocket>  (194) 
nan

>  <ATP_Site>  (194) 
nan

>  <Peripheral>  (194) 
nan

>  <Num_H_Atoms_ProtBoundConf>  (194) 
nan

>  <Num_Resolved_Atoms>  (194) 
nan

>  <Num_Not_Resolved_Atoms>  (194) 
nan

$$$$
CHEMBL3731633
     RDKit          3D

  0  0  0  0  0  0  0  0  0  0999 V3000
M  V30 BEGIN CTAB
M  V30 COUNTS 42 46 0 0 0
M  V30 BEGIN ATOM
M  V30 1 Cl 0.783121 -4.991373 2.464477 0
M  V30 2 C 2.303983 -4.198216 2.256902 0
M  V30 3 C 3.455276 -4.824160 2.662017 0
M  V30 4 C 4.734189 -4.336313 2.569595 0
M  V30 5 C 4.869738 -3.086739 2.010619 0
M  V30 6 C 3.719418 -2.478185 1.613576 0
M  V30 7 S 3.521593 -0.778953 0.814241 0
M  V30 8 C 1.739125 -0.888074 0.681359 0
M  V30 9 C 0.846191 0.038750 0.164809 0
M  V30 10 N 1.390093 1.245191 -0.332489 0
M  V30 11 C 0.454473 2.184051 -0.858945 0 CFG=2
M  V30 12 C 1.114072 3.444747 -1.369262 0
M  V30 13 C 1.074428 4.413017 -0.208822 0
M  V30 14 N 0.153141 3.873801 0.771352 0
M  V30 15 C -0.502304 2.731877 0.166425 0
M  V30 16 N -0.453949 -0.265692 0.170964 0
M  V30 17 C -0.786133 -1.467911 0.688050 0
M  V30 18 C -2.198526 -1.909547 0.745583 0
M  V30 19 C -3.133934 -1.032662 0.247609 0
M  V30 20 C -4.442744 -1.463232 0.310701 0
M  V30 21 N -4.885191 -2.625294 0.798031 0
M  V30 22 C -3.937747 -3.474835 1.284706 0
M  V30 23 C -2.606183 -3.121141 1.259190 0
M  V30 24 N 0.089875 -2.323962 1.170416 0
M  V30 25 C 1.414088 -2.125855 1.215482 0
M  V30 26 C 2.382403 -2.949002 1.692229 0
M  V30 27 H 3.356325 -5.824816 3.110629 0
M  V30 28 H 5.605061 -4.857889 2.898087 0
M  V30 29 H 5.788187 -2.565453 1.865878 0
M  V30 30 H 2.396956 1.463409 -0.329206 0
M  V30 31 H -0.119948 1.725724 -1.674456 0
M  V30 32 H 2.133083 3.243684 -1.726664 0
M  V30 33 H 0.473135 3.870384 -2.176107 0
M  V30 34 H 0.807380 5.429627 -0.516868 0
M  V30 35 H 2.104910 4.457030 0.243119 0
M  V30 36 H 0.636984 3.646550 1.670370 0
M  V30 37 H -1.406715 3.120881 -0.349024 0
M  V30 38 H -0.836873 2.019257 0.921348 0
M  V30 39 H -2.937522 -0.051551 -0.182012 0
M  V30 40 H -5.229972 -0.815840 -0.066861 0
M  V30 41 H -4.162260 -4.457374 1.712095 0
M  V30 42 H -1.842336 -3.786457 1.642572 0
M  V30 END ATOM
M  V30 BEGIN BOND
M  V30 1 1 1 2
M  V30 2 2 2 3
M  V30 3 1 3 4
M  V30 4 2 4 5
M  V30 5 1 5 6
M  V30 6 1 6 7
M  V30 7 1 7 8
M  V30 8 2 8 9
M  V30 9 1 9 10
M  V30 10 1 10 11
M  V30 11 1 11 12
M  V30 12 1 12 13
M  V30 13 1 13 14
M  V30 14 1 14 15
M  V30 15 1 9 16
M  V30 16 2 16 17
M  V30 17 1 17 18
M  V30 18 2 18 19
M  V30 19 1 19 20
M  V30 20 2 20 21
M  V30 21 1 21 22
M  V30 22 2 22 23
M  V30 23 1 17 24
M  V30 24 2 24 25
M  V30 25 1 25 26
M  V30 26 1 26 2
M  V30 27 2 26 6
M  V30 28 1 25 8
M  V30 29 1 15 11
M  V30 30 1 23 18
M  V30 31 1 3 27
M  V30 32 1 4 28
M  V30 33 1 5 29
M  V30 34 1 10 30
M  V30 35 1 11 31 CFG=3
M  V30 36 1 12 32
M  V30 37 1 12 33
M  V30 38 1 13 34
M  V30 39 1 13 35
M  V30 40 1 14 36
M  V30 41 1 15 37
M  V30 42 1 15 38
M  V30 43 1 19 39
M  V30 44 1 20 40
M  V30 45 1 22 41
M  V30 46 1 23 42
M  V30 END BOND
M  V30 END CTAB
M  END
>  <Dataset>  (195) 
ChEMBL_Kinases

>  <Ligand_Instance>  (195) 
nan

>  <PDB_ID>  (195) 
nan

>  <Standardized_SMILES>  (195) 
Clc1cccc2sc3c(N[C@@H]4CCNC4)nc(-c4ccncc4)nc3c12

>  <Name>  (195) 
nan

>  <Pocket>  (195) 
nan

>  <ATP_Site>  (195) 
nan

>  <Peripheral>  (195) 
nan

>  <Num_H_Atoms_ProtBoundConf>  (195) 
nan

>  <Num_Resolved_Atoms>  (195) 
nan

>  <Num_Not_Resolved_Atoms>  (195) 
nan

$$$$
CHEMBL3731757
     RDKit          3D

  0  0  0  0  0  0  0  0  0  0999 V3000
M  V30 BEGIN CTAB
M  V30 COUNTS 57 61 0 0 0
M  V30 BEGIN ATOM
M  V30 1 N 4.231997 -4.058689 1.906903 0
M  V30 2 C 3.202128 -3.995049 0.815266 0 CFG=2
M  V30 3 C 2.703413 -2.588259 0.859819 0
M  V30 4 N 1.729942 -2.245332 -0.148526 0
M  V30 5 C 1.116306 -0.993136 -0.014911 0
M  V30 6 N 1.381548 -0.121669 0.976269 0
M  V30 7 C 0.707104 1.044364 0.967461 0
M  V30 8 C 0.954726 2.028569 2.019778 0
M  V30 9 C 1.889256 1.673708 2.969206 0
M  V30 10 C 2.176203 2.553653 3.995092 0
M  V30 11 N 1.547419 3.760178 4.074916 0
M  V30 12 C 0.638162 4.087847 3.138084 0
M  V30 13 C 0.306900 3.243782 2.081342 0
M  V30 14 F -0.599360 3.565972 1.144297 0
M  V30 15 N -0.202744 1.382519 0.038606 0
M  V30 16 C -0.529663 0.576747 -0.983701 0
M  V30 17 C -1.421228 0.773886 -1.995089 0
M  V30 18 N -2.213361 1.939920 -2.159139 0
M  V30 19 C -3.160944 2.400719 -1.203272 0
M  V30 20 C -3.881644 3.564846 -1.379296 0
M  V30 21 C -4.793680 4.016606 -0.472658 0
M  V30 22 C -5.052874 3.329273 0.686906 0
M  V30 23 C -4.356509 2.160332 0.905688 0
M  V30 24 C -3.440516 1.730051 -0.030846 0
M  V30 25 C -1.590140 -0.203335 -2.941621 0
M  V30 26 S -0.396909 -1.585373 -2.419686 0
M  V30 27 C 0.182244 -0.629055 -0.955943 0
M  V30 28 C 2.138812 -4.996493 1.206448 0
M  V30 29 C 0.993025 -5.126675 0.306158 0
M  V30 30 C -0.269907 -4.520413 0.372498 0
M  V30 31 C -1.221421 -4.780375 -0.590191 0
M  V30 32 C -0.984997 -5.633547 -1.647662 0
M  V30 33 C 0.232594 -6.237993 -1.739799 0
M  V30 34 C 1.189167 -5.983794 -0.782092 0
M  V30 35 H 3.832706 -3.535373 2.720150 0
M  V30 36 H 4.264115 -5.064457 2.235917 0
M  V30 37 H 3.700718 -4.235044 -0.142182 0
M  V30 38 H 2.302710 -2.374242 1.896103 0
M  V30 39 H 3.535260 -1.839965 0.759642 0
M  V30 40 H 1.524004 -2.886333 -0.933876 0
M  V30 41 H 2.431460 0.714830 2.960852 0
M  V30 42 H 2.924539 2.253809 4.743737 0
M  V30 43 H 0.133029 5.043176 3.191803 0
M  V30 44 H -2.106410 2.505897 -3.028965 0
M  V30 45 H -3.687399 4.125569 -2.298980 0
M  V30 46 H -5.331418 4.924874 -0.647775 0
M  V30 47 H -5.758117 3.620222 1.452613 0
M  V30 48 H -4.530150 1.582382 1.812348 0
M  V30 49 H -2.929415 0.806464 0.199269 0
M  V30 50 H -2.168248 -0.320174 -3.779640 0
M  V30 51 H 1.821419 -4.684277 2.247637 0
M  V30 52 H 2.653234 -6.004184 1.303828 0
M  V30 53 H -0.366697 -3.869865 1.231048 0
M  V30 54 H -2.138756 -4.228406 -0.384357 0
M  V30 55 H -1.797971 -5.764278 -2.341024 0
M  V30 56 H 0.416343 -6.906579 -2.569536 0
M  V30 57 H 2.132006 -6.511584 -0.937827 0
M  V30 END ATOM
M  V30 BEGIN BOND
M  V30 1 1 1 2
M  V30 2 1 2 3
M  V30 3 1 3 4
M  V30 4 1 4 5
M  V30 5 2 5 6
M  V30 6 1 6 7
M  V30 7 1 7 8
M  V30 8 2 8 9
M  V30 9 1 9 10
M  V30 10 2 10 11
M  V30 11 1 11 12
M  V30 12 2 12 13
M  V30 13 1 13 14
M  V30 14 2 7 15
M  V30 15 1 15 16
M  V30 16 1 16 17
M  V30 17 1 17 18
M  V30 18 1 18 19
M  V30 19 2 19 20
M  V30 20 1 20 21
M  V30 21 2 21 22
M  V30 22 1 22 23
M  V30 23 2 23 24
M  V30 24 2 17 25
M  V30 25 1 25 26
M  V30 26 1 26 27
M  V30 27 1 2 28
M  V30 28 1 28 29
M  V30 29 2 29 30
M  V30 30 1 30 31
M  V30 31 2 31 32
M  V30 32 1 32 33
M  V30 33 2 33 34
M  V30 34 1 27 5
M  V30 35 1 34 29
M  V30 36 1 13 8
M  V30 37 2 27 16
M  V30 38 1 24 19
M  V30 39 1 1 35
M  V30 40 1 1 36
M  V30 41 1 2 37 CFG=3
M  V30 42 1 3 38
M  V30 43 1 3 39
M  V30 44 1 4 40
M  V30 45 1 9 41
M  V30 46 1 10 42
M  V30 47 1 12 43
M  V30 48 1 18 44
M  V30 49 1 20 45
M  V30 50 1 21 46
M  V30 51 1 22 47
M  V30 52 1 23 48
M  V30 53 1 24 49
M  V30 54 1 25 50
M  V30 55 1 28 51
M  V30 56 1 28 52
M  V30 57 1 30 53
M  V30 58 1 31 54
M  V30 59 1 32 55
M  V30 60 1 33 56
M  V30 61 1 34 57
M  V30 END BOND
M  V30 END CTAB
M  END
>  <Dataset>  (196) 
ChEMBL_Kinases

>  <Ligand_Instance>  (196) 
nan

>  <PDB_ID>  (196) 
nan

>  <Standardized_SMILES>  (196) 
N[C@H](CNc1nc(-c2ccncc2F)nc2c(Nc3ccccc3)csc12)Cc1ccccc1

>  <Name>  (196) 
nan

>  <Pocket>  (196) 
nan

>  <ATP_Site>  (196) 
nan

>  <Peripheral>  (196) 
nan

>  <Num_H_Atoms_ProtBoundConf>  (196) 
nan

>  <Num_Resolved_Atoms>  (196) 
nan

>  <Num_Not_Resolved_Atoms>  (196) 
nan

$$$$
CHEMBL3731749
     RDKit          3D

  0  0  0  0  0  0  0  0  0  0999 V3000
M  V30 BEGIN CTAB
M  V30 COUNTS 55 59 0 0 0
M  V30 BEGIN ATOM
M  V30 1 C 1.893676 -7.049802 2.411582 0
M  V30 2 C 2.566096 -5.843304 1.810937 0
M  V30 3 C 3.915341 -6.000690 1.415208 0
M  V30 4 S 4.304209 -4.268495 0.743240 0
M  V30 5 C 2.730935 -3.651025 1.068555 0
M  V30 6 C 2.345903 -2.235254 0.751880 0
M  V30 7 C 3.315303 -1.457023 0.188519 0
M  V30 8 S 2.396474 0.186311 -0.022885 0
M  V30 9 C 0.857331 -0.399642 0.668379 0
M  V30 10 C -0.296146 0.287956 0.832129 0
M  V30 11 N -0.372524 1.636413 0.440726 0
M  V30 12 C -1.599038 2.344302 0.617886 0
M  V30 13 C -1.591833 3.758393 0.127176 0 CFG=1
M  V30 14 N -0.598584 4.602744 0.753529 0
M  V30 15 C -1.671815 3.925222 -1.353663 0
M  V30 16 C -0.584707 3.301090 -2.100973 0
M  V30 17 C -0.707272 1.994883 -2.579770 0
M  V30 18 C 0.212705 1.285253 -3.286192 0
M  V30 19 C 1.408419 1.937995 -3.559980 0
M  V30 20 C 1.623245 3.236649 -3.125987 0
M  V30 21 C 0.634883 3.899125 -2.407984 0
M  V30 22 N -1.344672 -0.351718 1.376649 0
M  V30 23 C -1.122597 -1.658515 1.712773 0
M  V30 24 C -2.226272 -2.429700 2.318922 0
M  V30 25 C -3.427524 -1.780630 2.511419 0
M  V30 26 C -4.487347 -2.451935 3.072130 0
M  V30 27 N -4.425888 -3.720395 3.450315 0
M  V30 28 C -3.267076 -4.380793 3.275295 0
M  V30 29 C -2.195020 -3.741275 2.720635 0
M  V30 30 N 0.037121 -2.306444 1.534409 0
M  V30 31 C 1.116432 -1.722708 0.997058 0
M  V30 32 C 2.021675 -4.628989 1.609407 0
M  V30 33 H 2.270407 -7.160551 3.444060 0
M  V30 34 H 2.022117 -7.938378 1.790231 0
M  V30 35 H 0.783122 -6.851805 2.455467 0
M  V30 36 H 4.560218 -6.944285 1.498944 0
M  V30 37 H 4.331076 -1.479124 -0.139763 0
M  V30 38 H 0.447591 2.132248 0.031120 0
M  V30 39 H -2.463854 1.840544 0.134221 0
M  V30 40 H -1.879779 2.394711 1.702003 0
M  V30 41 H -2.582926 4.188539 0.513147 0
M  V30 42 H -0.541889 4.326657 1.746488 0
M  V30 43 H 0.339437 4.565479 0.317162 0
M  V30 44 H -2.626328 3.556381 -1.780309 0
M  V30 45 H -1.658142 5.024899 -1.571417 0
M  V30 46 H -1.646640 1.499663 -2.357045 0
M  V30 47 H -0.006165 0.271907 -3.601726 0
M  V30 48 H 2.172421 1.409540 -4.121672 0
M  V30 49 H 2.556869 3.765424 -3.332150 0
M  V30 50 H 0.786498 4.923139 -2.057624 0
M  V30 51 H -3.556270 -0.739915 2.226864 0
M  V30 52 H -5.413010 -1.925639 3.212891 0
M  V30 53 H -3.141881 -5.426238 3.562849 0
M  V30 54 H -1.266164 -4.259596 2.576603 0
M  V30 55 H 0.996944 -4.432535 1.885576 0
M  V30 END ATOM
M  V30 BEGIN BOND
M  V30 1 1 1 2
M  V30 2 2 2 3
M  V30 3 1 3 4
M  V30 4 1 4 5
M  V30 5 1 5 6
M  V30 6 2 6 7
M  V30 7 1 7 8
M  V30 8 1 8 9
M  V30 9 2 9 10
M  V30 10 1 10 11
M  V30 11 1 11 12
M  V30 12 1 12 13
M  V30 13 1 13 14
M  V30 14 1 13 15
M  V30 15 1 15 16
M  V30 16 2 16 17
M  V30 17 1 17 18
M  V30 18 2 18 19
M  V30 19 1 19 20
M  V30 20 2 20 21
M  V30 21 1 10 22
M  V30 22 2 22 23
M  V30 23 1 23 24
M  V30 24 2 24 25
M  V30 25 1 25 26
M  V30 26 2 26 27
M  V30 27 1 27 28
M  V30 28 2 28 29
M  V30 29 1 23 30
M  V30 30 2 30 31
M  V30 31 2 5 32
M  V30 32 1 32 2
M  V30 33 1 31 6
M  V30 34 1 31 9
M  V30 35 1 21 16
M  V30 36 1 29 24
M  V30 37 1 1 33
M  V30 38 1 1 34
M  V30 39 1 1 35
M  V30 40 1 3 36
M  V30 41 1 7 37
M  V30 42 1 11 38
M  V30 43 1 12 39
M  V30 44 1 12 40
M  V30 45 1 13 41 CFG=1
M  V30 46 1 14 42
M  V30 47 1 14 43
M  V30 48 1 15 44
M  V30 49 1 15 45
M  V30 50 1 17 46
M  V30 51 1 18 47
M  V30 52 1 19 48
M  V30 53 1 20 49
M  V30 54 1 21 50
M  V30 55 1 25 51
M  V30 56 1 26 52
M  V30 57 1 28 53
M  V30 58 1 29 54
M  V30 59 1 32 55
M  V30 END BOND
M  V30 END CTAB
M  END
>  <Dataset>  (197) 
ChEMBL_Kinases

>  <Ligand_Instance>  (197) 
nan

>  <PDB_ID>  (197) 
nan

>  <Standardized_SMILES>  (197) 
Cc1csc(-c2csc3c(NC[C@@H](N)Cc4ccccc4)nc(-c4ccncc4)nc23)c1

>  <Name>  (197) 
nan

>  <Pocket>  (197) 
nan

>  <ATP_Site>  (197) 
nan

>  <Peripheral>  (197) 
nan

>  <Num_H_Atoms_ProtBoundConf>  (197) 
nan

>  <Num_Resolved_Atoms>  (197) 
nan

>  <Num_Not_Resolved_Atoms>  (197) 
nan

$$$$
CHEMBL3731732
     RDKit          3D

  0  0  0  0  0  0  0  0  0  0999 V3000
M  V30 BEGIN CTAB
M  V30 COUNTS 58 62 0 0 0
M  V30 BEGIN ATOM
M  V30 1 C 4.417855 -2.502623 5.904819 0
M  V30 2 C 4.917146 -1.813369 4.646748 0
M  V30 3 C 5.853928 -2.782900 3.958685 0
M  V30 4 C 5.650771 -0.586369 5.112599 0
M  V30 5 C 3.797124 -1.410642 3.754691 0
M  V30 6 C 3.151763 -0.191123 3.816867 0
M  V30 7 C 2.115491 0.097049 2.942251 0
M  V30 8 C 1.731108 -0.844568 2.006037 0
M  V30 9 C 0.607020 -0.514684 1.067390 0
M  V30 10 C -0.131153 0.582888 0.965003 0
M  V30 11 C -1.100997 0.608175 0.003839 0
M  V30 12 N -1.961056 1.610672 -0.276675 0
M  V30 13 C -2.874493 1.538041 -1.238215 0
M  V30 14 C -3.749788 2.684959 -1.449798 0
M  V30 15 C -3.643826 3.821951 -0.679795 0
M  V30 16 C -4.450839 4.931724 -0.844348 0
M  V30 17 N -5.392696 4.911948 -1.803625 0
M  V30 18 C -5.506556 3.794729 -2.570040 0
M  V30 19 C -4.714058 2.660819 -2.434173 0
M  V30 20 N -3.044638 0.448098 -2.045381 0
M  V30 21 C -2.213985 -0.610639 -1.827269 0
M  V30 22 N -2.207479 -1.840912 -2.538536 0
M  V30 23 C -2.408088 -3.212596 -2.113261 0
M  V30 24 C -3.637991 -3.767083 -2.828998 0
M  V30 25 N -3.459418 -3.731440 -4.256136 0
M  V30 26 C -3.105298 -2.432250 -4.750758 0
M  V30 27 C -1.964316 -1.815926 -3.949967 0
M  V30 28 C -1.270267 -0.473525 -0.797637 0
M  V30 29 S 0.001925 -1.595735 -0.172262 0
M  V30 30 C 2.332773 -2.081690 1.889622 0
M  V30 31 C 3.356681 -2.298982 2.793153 0
M  V30 32 H 3.536336 -3.117785 5.566619 0
M  V30 33 H 5.148333 -3.236364 6.298827 0
M  V30 34 H 4.029613 -1.803681 6.658951 0
M  V30 35 H 6.786566 -2.780740 4.567187 0
M  V30 36 H 5.400803 -3.799003 4.028746 0
M  V30 37 H 6.079813 -2.465725 2.928570 0
M  V30 38 H 5.014145 -0.004757 5.782722 0
M  V30 39 H 6.151839 -0.018941 4.309903 0
M  V30 40 H 6.493685 -0.962606 5.763676 0
M  V30 41 H 3.472066 0.519002 4.553522 0
M  V30 42 H 1.610100 1.053392 2.991710 0
M  V30 43 H 0.084162 1.390885 1.653110 0
M  V30 44 H -2.869817 3.804685 0.088973 0
M  V30 45 H -4.257456 5.754784 -0.169539 0
M  V30 46 H -6.258074 3.749502 -3.352636 0
M  V30 47 H -4.857969 1.814473 -3.072780 0
M  V30 48 H -1.511860 -3.824251 -2.313422 0
M  V30 49 H -2.630629 -3.308627 -1.043973 0
M  V30 50 H -4.477432 -3.124981 -2.479642 0
M  V30 51 H -3.823932 -4.791055 -2.502119 0
M  V30 52 H -2.755294 -4.465468 -4.493330 0
M  V30 53 H -4.008590 -1.792697 -4.697146 0
M  V30 54 H -2.749050 -2.544572 -5.792849 0
M  V30 55 H -1.057896 -2.391545 -4.241670 0
M  V30 56 H -1.801518 -0.790182 -4.330830 0
M  V30 57 H 2.038061 -2.812570 1.166604 0
M  V30 58 H 3.861956 -3.273021 2.733252 0
M  V30 END ATOM
M  V30 BEGIN BOND
M  V30 1 1 1 2
M  V30 2 1 2 3
M  V30 3 1 2 4
M  V30 4 1 2 5
M  V30 5 2 5 6
M  V30 6 1 6 7
M  V30 7 2 7 8
M  V30 8 1 8 9
M  V30 9 2 9 10
M  V30 10 1 10 11
M  V30 11 2 11 12
M  V30 12 1 12 13
M  V30 13 1 13 14
M  V30 14 2 14 15
M  V30 15 1 15 16
M  V30 16 2 16 17
M  V30 17 1 17 18
M  V30 18 2 18 19
M  V30 19 2 13 20
M  V30 20 1 20 21
M  V30 21 1 21 22
M  V30 22 1 22 23
M  V30 23 1 23 24
M  V30 24 1 24 25
M  V30 25 1 25 26
M  V30 26 1 26 27
M  V30 27 2 21 28
M  V30 28 1 28 29
M  V30 29 1 8 30
M  V30 30 2 30 31
M  V30 31 1 31 5
M  V30 32 1 29 9
M  V30 33 1 28 11
M  V30 34 1 19 14
M  V30 35 1 27 22
M  V30 36 1 1 32
M  V30 37 1 1 33
M  V30 38 1 1 34
M  V30 39 1 3 35
M  V30 40 1 3 36
M  V30 41 1 3 37
M  V30 42 1 4 38
M  V30 43 1 4 39
M  V30 44 1 4 40
M  V30 45 1 6 41
M  V30 46 1 7 42
M  V30 47 1 10 43
M  V30 48 1 15 44
M  V30 49 1 16 45
M  V30 50 1 18 46
M  V30 51 1 19 47
M  V30 52 1 23 48
M  V30 53 1 23 49
M  V30 54 1 24 50
M  V30 55 1 24 51
M  V30 56 1 25 52
M  V30 57 1 26 53
M  V30 58 1 26 54
M  V30 59 1 27 55
M  V30 60 1 27 56
M  V30 61 1 30 57
M  V30 62 1 31 58
M  V30 END BOND
M  V30 END CTAB
M  END
>  <Dataset>  (198) 
ChEMBL_Kinases

>  <Ligand_Instance>  (198) 
nan

>  <PDB_ID>  (198) 
nan

>  <Standardized_SMILES>  (198) 
CC(C)(C)c1ccc(-c2cc3nc(-c4ccncc4)nc(N4CCNCC4)c3s2)cc1

>  <Name>  (198) 
nan

>  <Pocket>  (198) 
nan

>  <ATP_Site>  (198) 
nan

>  <Peripheral>  (198) 
nan

>  <Num_H_Atoms_ProtBoundConf>  (198) 
nan

>  <Num_Resolved_Atoms>  (198) 
nan

>  <Num_Not_Resolved_Atoms>  (198) 
nan

$$$$
CHEMBL3731728
     RDKit          3D

  0  0  0  0  0  0  0  0  0  0999 V3000
M  V30 BEGIN CTAB
M  V30 COUNTS 44 46 0 0 0
M  V30 BEGIN ATOM
M  V30 1 C -2.120849 -4.747314 0.780193 0
M  V30 2 C -0.781367 -4.068132 0.519348 0
M  V30 3 C -0.338021 -3.386514 1.757824 0
M  V30 4 C -0.921448 -3.253123 -0.726926 0
M  V30 5 C 0.325471 -2.521965 -1.072631 0
M  V30 6 C 1.170912 -3.259405 -1.917715 0
M  V30 7 S 2.638549 -2.245630 -2.143158 0
M  V30 8 C 2.032376 -0.934888 -1.116184 0
M  V30 9 N 2.637235 0.252126 -0.813418 0
M  V30 10 C 2.030717 1.154535 -0.029907 0
M  V30 11 C 2.630965 2.426713 0.322455 0
M  V30 12 C 1.918443 3.275519 1.145786 0
M  V30 13 C 2.582806 4.471599 1.426059 0
M  V30 14 N 3.796865 4.826480 0.972925 0
M  V30 15 C 4.480144 3.994310 0.173855 0
M  V30 16 C 3.883451 2.773488 -0.155087 0
M  V30 17 N 0.847779 0.766716 0.381809 0
M  V30 18 C 0.205185 -0.377423 0.121049 0
M  V30 19 N -1.102693 -0.460853 0.724322 0
M  V30 20 C -1.618256 0.612186 1.551139 0
M  V30 21 C -0.817839 0.839183 2.807632 0
M  V30 22 N -1.396208 1.933020 3.591031 0
M  V30 23 C 0.799589 -1.328710 -0.679274 0
M  V30 24 H -2.943801 -4.023517 0.592629 0
M  V30 25 H -2.180738 -5.059628 1.846613 0
M  V30 26 H -2.272974 -5.608678 0.103043 0
M  V30 27 H -0.059143 -4.920148 0.319269 0
M  V30 28 H 0.576610 -2.767292 1.635024 0
M  V30 29 H -1.179905 -2.865361 2.222307 0
M  V30 30 H -0.024115 -4.177481 2.488983 0
M  V30 31 H -1.844897 -2.653739 -0.802178 0
M  V30 32 H -1.133821 -4.039689 -1.537803 0
M  V30 33 H 1.124008 -4.221433 -2.411853 0
M  V30 34 H 0.939841 3.084788 1.561743 0
M  V30 35 H 2.046092 5.169628 2.076793 0
M  V30 36 H 5.459036 4.171160 -0.249968 0
M  V30 37 H 4.366119 2.038021 -0.798669 0
M  V30 38 H -1.855789 -1.166966 0.730565 0
M  V30 39 H -2.679339 0.507391 1.716826 0
M  V30 40 H -1.507718 1.551068 0.914351 0
M  V30 41 H 0.240714 1.011799 2.654273 0
M  V30 42 H -0.943464 -0.064466 3.438240 0
M  V30 43 H -1.169290 2.854248 3.205024 0
M  V30 44 H -2.443348 1.767558 3.551249 0
M  V30 END ATOM
M  V30 BEGIN BOND
M  V30 1 1 1 2
M  V30 2 1 2 3
M  V30 3 1 2 4
M  V30 4 1 4 5
M  V30 5 2 5 6
M  V30 6 1 6 7
M  V30 7 1 7 8
M  V30 8 2 8 9
M  V30 9 1 9 10
M  V30 10 1 10 11
M  V30 11 2 11 12
M  V30 12 1 12 13
M  V30 13 2 13 14
M  V30 14 1 14 15
M  V30 15 2 15 16
M  V30 16 2 10 17
M  V30 17 1 17 18
M  V30 18 1 18 19
M  V30 19 1 19 20
M  V30 20 1 20 21
M  V30 21 1 21 22
M  V30 22 2 18 23
M  V30 23 1 23 5
M  V30 24 1 23 8
M  V30 25 1 16 11
M  V30 26 1 1 24
M  V30 27 1 1 25
M  V30 28 1 1 26
M  V30 29 1 2 27
M  V30 30 1 3 28
M  V30 31 1 3 29
M  V30 32 1 3 30
M  V30 33 1 4 31
M  V30 34 1 4 32
M  V30 35 1 6 33
M  V30 36 1 12 34
M  V30 37 1 13 35
M  V30 38 1 15 36
M  V30 39 1 16 37
M  V30 40 1 19 38
M  V30 41 1 20 39
M  V30 42 1 20 40
M  V30 43 1 21 41
M  V30 44 1 21 42
M  V30 45 1 22 43
M  V30 46 1 22 44
M  V30 END BOND
M  V30 END CTAB
M  END
>  <Dataset>  (199) 
ChEMBL_Kinases

>  <Ligand_Instance>  (199) 
nan

>  <PDB_ID>  (199) 
nan

>  <Standardized_SMILES>  (199) 
CC(C)Cc1csc2nc(-c3ccncc3)nc(NCCN)c12

>  <Name>  (199) 
nan

>  <Pocket>  (199) 
nan

>  <ATP_Site>  (199) 
nan

>  <Peripheral>  (199) 
nan

>  <Num_H_Atoms_ProtBoundConf>  (199) 
nan

>  <Num_Resolved_Atoms>  (199) 
nan

>  <Num_Not_Resolved_Atoms>  (199) 
nan

$$$$
CHEMBL3731713
     RDKit          3D

  0  0  0  0  0  0  0  0  0  0999 V3000
M  V30 BEGIN CTAB
M  V30 COUNTS 68 72 0 0 0
M  V30 BEGIN ATOM
M  V30 1 C 0.570724 -1.331679 5.495675 0
M  V30 2 C 0.405861 -1.435406 4.036300 0
M  V30 3 S 1.656397 -0.669424 2.825190 0
M  V30 4 C 0.786136 -1.206955 1.418277 0
M  V30 5 C 1.070923 -1.034774 0.060484 0
M  V30 6 N 2.226894 -0.327269 -0.276229 0
M  V30 7 C 2.546489 -0.132984 -1.651508 0
M  V30 8 C 1.525639 0.629685 -2.446448 0 CFG=1
M  V30 9 N 1.306574 1.964947 -1.924529 0
M  V30 10 C 2.017038 0.782723 -3.869729 0
M  V30 11 C 3.303110 1.514365 -3.943068 0
M  V30 12 C 3.280487 2.886799 -4.062650 0
M  V30 13 C 4.421751 3.684441 -4.142939 0
M  V30 14 C 5.650789 3.064114 -4.100291 0
M  V30 15 C 5.717370 1.693263 -3.981259 0
M  V30 16 C 4.566345 0.925781 -3.903455 0
M  V30 17 N 0.247718 -1.542417 -0.886852 0
M  V30 18 C -0.831675 -2.204672 -0.402143 0
M  V30 19 C -1.763333 -2.779788 -1.382753 0
M  V30 20 C -2.891867 -3.469016 -0.990281 0
M  V30 21 C -3.716231 -3.978636 -1.956335 0
M  V30 22 N -3.454544 -3.824824 -3.282199 0
M  V30 23 C -2.348719 -3.149351 -3.650109 0
M  V30 24 C -1.463835 -2.602872 -2.713910 0
M  V30 25 N -1.112283 -2.374527 0.899188 0
M  V30 26 C -0.306065 -1.877244 1.867939 0
M  V30 27 C -0.518934 -2.005403 3.214318 0
M  V30 28 C -1.605889 -2.692610 3.890758 0
M  V30 29 C -1.467400 -4.026410 4.190664 0
M  V30 30 C -2.502971 -4.665199 4.829815 0
M  V30 31 Cl -2.274480 -6.354375 5.186406 0
M  V30 32 C -3.648217 -3.973179 5.156675 0
M  V30 33 C -3.745337 -2.614708 4.831499 0
M  V30 34 C -2.707325 -1.931287 4.179331 0
M  V30 35 O -3.116908 -0.653684 4.016666 0
M  V30 36 C -2.567429 0.476306 3.465948 0
M  V30 37 C -2.589872 1.546592 4.576639 0
M  V30 38 C -3.500933 1.066024 2.387963 0
M  V30 39 H -0.246216 -0.717548 5.923353 0
M  V30 40 H 0.517563 -2.336982 5.985348 0
M  V30 41 H 1.523453 -0.891552 5.796442 0
M  V30 42 H 2.868421 0.066427 0.460084 0
M  V30 43 H 3.505220 0.414335 -1.744398 0
M  V30 44 H 2.704816 -1.123651 -2.150647 0
M  V30 45 H 0.535582 0.163087 -2.513043 0
M  V30 46 H 0.475988 2.332185 -2.477948 0
M  V30 47 H 1.030118 1.910393 -0.912843 0
M  V30 48 H 2.137420 -0.232724 -4.324048 0
M  V30 49 H 1.286775 1.322797 -4.502035 0
M  V30 50 H 2.311596 3.381363 -4.096803 0
M  V30 51 H 4.282497 4.759194 -4.235371 0
M  V30 52 H 6.540094 3.675887 -4.161857 0
M  V30 53 H 6.663108 1.175168 -3.944948 0
M  V30 54 H 4.584169 -0.151754 -3.810061 0
M  V30 55 H -3.124377 -3.605973 0.064530 0
M  V30 56 H -4.616883 -4.528803 -1.645414 0
M  V30 57 H -2.107613 -3.006845 -4.683873 0
M  V30 58 H -0.594236 -2.072144 -3.069532 0
M  V30 59 H -0.563169 -4.508839 3.914899 0
M  V30 60 H -4.389272 -4.578989 5.654636 0
M  V30 61 H -4.724607 -2.258040 5.174707 0
M  V30 62 H -1.558432 0.381487 3.057491 0
M  V30 63 H -3.655874 1.795938 4.736806 0
M  V30 64 H -1.992238 2.426582 4.269346 0
M  V30 65 H -2.220975 1.035940 5.484871 0
M  V30 66 H -3.478357 2.161601 2.432481 0
M  V30 67 H -3.145438 0.735388 1.379312 0
M  V30 68 H -4.532358 0.718862 2.510236 0
M  V30 END ATOM
M  V30 BEGIN BOND
M  V30 1 1 1 2
M  V30 2 1 2 3
M  V30 3 1 3 4
M  V30 4 2 4 5
M  V30 5 1 5 6
M  V30 6 1 6 7
M  V30 7 1 7 8
M  V30 8 1 8 9
M  V30 9 1 8 10
M  V30 10 1 10 11
M  V30 11 2 11 12
M  V30 12 1 12 13
M  V30 13 2 13 14
M  V30 14 1 14 15
M  V30 15 2 15 16
M  V30 16 1 5 17
M  V30 17 2 17 18
M  V30 18 1 18 19
M  V30 19 2 19 20
M  V30 20 1 20 21
M  V30 21 2 21 22
M  V30 22 1 22 23
M  V30 23 2 23 24
M  V30 24 1 18 25
M  V30 25 2 25 26
M  V30 26 1 26 27
M  V30 27 1 27 28
M  V30 28 2 28 29
M  V30 29 1 29 30
M  V30 30 1 30 31
M  V30 31 2 30 32
M  V30 32 1 32 33
M  V30 33 2 33 34
M  V30 34 1 34 35
M  V30 35 1 35 36
M  V30 36 1 36 37
M  V30 37 1 36 38
M  V30 38 2 27 2
M  V30 39 1 34 28
M  V30 40 1 26 4
M  V30 41 1 16 11
M  V30 42 1 24 19
M  V30 43 1 1 39
M  V30 44 1 1 40
M  V30 45 1 1 41
M  V30 46 1 6 42
M  V30 47 1 7 43
M  V30 48 1 7 44
M  V30 49 1 8 45 CFG=3
M  V30 50 1 9 46
M  V30 51 1 9 47
M  V30 52 1 10 48
M  V30 53 1 10 49
M  V30 54 1 12 50
M  V30 55 1 13 51
M  V30 56 1 14 52
M  V30 57 1 15 53
M  V30 58 1 16 54
M  V30 59 1 20 55
M  V30 60 1 21 56
M  V30 61 1 23 57
M  V30 62 1 24 58
M  V30 63 1 29 59
M  V30 64 1 32 60
M  V30 65 1 33 61
M  V30 66 1 36 62
M  V30 67 1 37 63
M  V30 68 1 37 64
M  V30 69 1 37 65
M  V30 70 1 38 66
M  V30 71 1 38 67
M  V30 72 1 38 68
M  V30 END BOND
M  V30 END CTAB
M  END
>  <Dataset>  (200) 
ChEMBL_Kinases

>  <Ligand_Instance>  (200) 
nan

>  <PDB_ID>  (200) 
nan

>  <Standardized_SMILES>  (200) 
Cc1sc2c(NC[C@@H](N)Cc3ccccc3)nc(-c3ccncc3)nc2c1-c1cc(Cl)ccc1OC(C)C

>  <Name>  (200) 
nan

>  <Pocket>  (200) 
nan

>  <ATP_Site>  (200) 
nan

>  <Peripheral>  (200) 
nan

>  <Num_H_Atoms_ProtBoundConf>  (200) 
nan

>  <Num_Resolved_Atoms>  (200) 
nan

>  <Num_Not_Resolved_Atoms>  (200) 
nan

$$$$
CHEMBL3731709
     RDKit          3D

  0  0  0  0  0  0  0  0  0  0999 V3000
M  V30 BEGIN CTAB
M  V30 COUNTS 57 60 0 0 0
M  V30 BEGIN ATOM
M  V30 1 C -0.554355 -1.427962 4.719579 0
M  V30 2 C 0.822116 -1.941567 4.977479 0 CFG=1
M  V30 3 N 1.342808 -2.863275 4.028436 0
M  V30 4 C 1.854616 -0.795877 5.137035 0
M  V30 5 N 1.929078 -0.012590 3.963148 0
M  V30 6 C 2.013579 0.788606 2.782492 0
M  V30 7 N 2.717083 1.916817 2.605276 0
M  V30 8 C 2.656868 2.534574 1.421581 0
M  V30 9 C 3.436025 3.758318 1.270092 0
M  V30 10 C 4.200381 4.257892 2.300305 0
M  V30 11 C 4.913014 5.417477 2.095900 0
M  V30 12 N 4.836207 6.019888 0.896643 0
M  V30 13 C 4.095785 5.552948 -0.129874 0
M  V30 14 C 3.376896 4.395523 0.055719 0
M  V30 15 N 1.917495 2.031800 0.461103 0
M  V30 16 C 1.182589 0.921563 0.530407 0
M  V30 17 C 0.433722 0.443716 -0.510624 0
M  V30 18 C -0.242972 -0.715420 -0.233358 0
M  V30 19 C -1.131280 -1.524235 -1.062823 0
M  V30 20 C -1.397001 -1.122137 -2.377877 0
M  V30 21 C -2.234019 -1.871773 -3.180570 0
M  V30 22 C -2.836861 -3.037628 -2.722191 0
M  V30 23 C -3.747151 -3.930495 -3.464135 0
M  V30 24 C -3.012278 -5.023198 -4.214247 0
M  V30 25 C -4.619341 -3.185482 -4.447458 0
M  V30 26 C -4.700010 -4.569356 -2.462910 0
M  V30 27 C -2.534517 -3.389491 -1.401160 0
M  V30 28 C -1.705433 -2.671733 -0.564909 0
M  V30 29 S 0.161927 -1.099741 1.405818 0
M  V30 30 C 1.240845 0.279885 1.749538 0
M  V30 31 H -1.119015 -2.049835 4.024716 0
M  V30 32 H -1.164269 -1.322238 5.638600 0
M  V30 33 H -0.441699 -0.407793 4.266616 0
M  V30 34 H 0.780887 -2.490105 5.960589 0
M  V30 35 H 0.943465 -3.816243 4.047585 0
M  V30 36 H 2.342443 -2.795825 3.804531 0
M  V30 37 H 2.807014 -1.364834 5.374269 0
M  V30 38 H 1.563093 -0.243366 6.085495 0
M  V30 39 H 2.618730 0.577040 4.545315 0
M  V30 40 H 4.241195 3.755150 3.243983 0
M  V30 41 H 5.498014 5.774068 2.927418 0
M  V30 42 H 4.051620 6.055517 -1.082323 0
M  V30 43 H 2.759784 3.975300 -0.747337 0
M  V30 44 H 0.297262 0.836568 -1.504097 0
M  V30 45 H -0.962211 -0.223929 -2.803367 0
M  V30 46 H -2.473726 -1.611126 -4.198208 0
M  V30 47 H -1.930120 -4.776548 -4.121330 0
M  V30 48 H -3.246397 -5.057957 -5.286736 0
M  V30 49 H -3.152193 -5.994688 -3.714919 0
M  V30 50 H -5.345415 -2.543755 -3.905322 0
M  V30 51 H -3.978005 -2.615026 -5.137488 0
M  V30 52 H -5.165131 -3.915956 -5.077262 0
M  V30 53 H -4.871081 -3.814765 -1.674629 0
M  V30 54 H -4.229782 -5.488530 -2.105473 0
M  V30 55 H -5.680466 -4.790616 -2.955907 0
M  V30 56 H -2.976915 -4.292947 -0.985465 0
M  V30 57 H -1.520884 -3.008360 0.443419 0
M  V30 END ATOM
M  V30 BEGIN BOND
M  V30 1 1 1 2
M  V30 2 1 2 3
M  V30 3 1 2 4
M  V30 4 1 4 5
M  V30 5 1 5 6
M  V30 6 2 6 7
M  V30 7 1 7 8
M  V30 8 1 8 9
M  V30 9 2 9 10
M  V30 10 1 10 11
M  V30 11 2 11 12
M  V30 12 1 12 13
M  V30 13 2 13 14
M  V30 14 2 8 15
M  V30 15 1 15 16
M  V30 16 1 16 17
M  V30 17 2 17 18
M  V30 18 1 18 19
M  V30 19 2 19 20
M  V30 20 1 20 21
M  V30 21 2 21 22
M  V30 22 1 22 23
M  V30 23 1 23 24
M  V30 24 1 23 25
M  V30 25 1 23 26
M  V30 26 1 22 27
M  V30 27 2 27 28
M  V30 28 1 18 29
M  V30 29 1 29 30
M  V30 30 1 30 6
M  V30 31 1 14 9
M  V30 32 2 30 16
M  V30 33 1 28 19
M  V30 34 1 1 31
M  V30 35 1 1 32
M  V30 36 1 1 33
M  V30 37 1 2 34 CFG=1
M  V30 38 1 3 35
M  V30 39 1 3 36
M  V30 40 1 4 37
M  V30 41 1 4 38
M  V30 42 1 5 39
M  V30 43 1 10 40
M  V30 44 1 11 41
M  V30 45 1 13 42
M  V30 46 1 14 43
M  V30 47 1 17 44
M  V30 48 1 20 45
M  V30 49 1 21 46
M  V30 50 1 24 47
M  V30 51 1 24 48
M  V30 52 1 24 49
M  V30 53 1 25 50
M  V30 54 1 25 51
M  V30 55 1 25 52
M  V30 56 1 26 53
M  V30 57 1 26 54
M  V30 58 1 26 55
M  V30 59 1 27 56
M  V30 60 1 28 57
M  V30 END BOND
M  V30 END CTAB
M  END
>  <Dataset>  (201) 
ChEMBL_Kinases

>  <Ligand_Instance>  (201) 
nan

>  <PDB_ID>  (201) 
nan

>  <Standardized_SMILES>  (201) 
C[C@@H](N)CNc1nc(-c2ccncc2)nc2cc(-c3ccc(C(C)(C)C)cc3)sc12

>  <Name>  (201) 
nan

>  <Pocket>  (201) 
nan

>  <ATP_Site>  (201) 
nan

>  <Peripheral>  (201) 
nan

>  <Num_H_Atoms_ProtBoundConf>  (201) 
nan

>  <Num_Resolved_Atoms>  (201) 
nan

>  <Num_Not_Resolved_Atoms>  (201) 
nan

$$$$
CHEMBL3731690
     RDKit          3D

  0  0  0  0  0  0  0  0  0  0999 V3000
M  V30 BEGIN CTAB
M  V30 COUNTS 43 46 0 0 0
M  V30 BEGIN ATOM
M  V30 1 C -1.804857 0.230960 -4.314720 0
M  V30 2 C -1.719112 -1.203431 -3.844046 0 CFG=1
M  V30 3 N -0.376473 -1.717784 -3.793950 0
M  V30 4 C -2.489895 -1.454921 -2.592074 0
M  V30 5 N -2.082957 -0.668221 -1.446088 0
M  V30 6 C -0.860018 -0.811814 -0.740777 0
M  V30 7 N -0.116132 -1.837843 -1.170826 0
M  V30 8 C 1.025908 -2.272323 -0.693240 0
M  V30 9 C 1.823942 -3.383603 -1.165675 0
M  V30 10 C 2.363180 -3.666156 -2.403234 0
M  V30 11 N 3.012060 -4.833655 -2.269907 0
M  V30 12 N 2.908667 -5.286003 -1.039447 0
M  V30 13 C 2.178236 -4.422651 -0.305469 0
M  V30 14 N 1.474581 -1.575305 0.360490 0
M  V30 15 C 0.739967 -0.541629 0.804212 0
M  V30 16 S 1.109896 0.519614 2.184149 0
M  V30 17 C -0.350370 1.520820 2.019951 0
M  V30 18 C -1.031417 1.012367 0.947972 0
M  V30 19 C -0.443512 -0.060283 0.337672 0
M  V30 20 C -2.281306 1.738117 0.597056 0
M  V30 21 C -2.125748 3.165627 1.148659 0
M  V30 22 C -2.072148 3.036526 2.651902 0
M  V30 23 C -0.642201 2.628483 2.953261 0
M  V30 24 H -0.944486 0.486808 -4.967895 0
M  V30 25 H -1.874372 0.905806 -3.428634 0
M  V30 26 H -2.725010 0.395303 -4.915022 0
M  V30 27 H -2.220433 -1.805678 -4.667090 0
M  V30 28 H -0.387617 -2.742251 -3.976846 0
M  V30 29 H 0.283426 -1.258450 -4.428101 0
M  V30 30 H -2.306045 -2.565744 -2.368384 0
M  V30 31 H -3.560435 -1.438973 -2.827440 0
M  V30 32 H -2.891755 -0.031579 -1.296800 0
M  V30 33 H 2.213580 -2.991365 -3.229322 0
M  V30 34 H 3.388267 -6.191188 -0.857984 0
M  V30 35 H 1.979664 -4.620066 0.741329 0
M  V30 36 H -3.192067 1.343073 1.024740 0
M  V30 37 H -2.334115 1.940653 -0.507318 0
M  V30 38 H -2.982273 3.788833 0.830445 0
M  V30 39 H -1.150025 3.616930 0.826870 0
M  V30 40 H -2.719392 2.191725 2.973400 0
M  V30 41 H -2.378774 3.933462 3.195536 0
M  V30 42 H -0.596782 2.321312 4.019595 0
M  V30 43 H 0.070863 3.455878 2.791636 0
M  V30 END ATOM
M  V30 BEGIN BOND
M  V30 1 1 1 2
M  V30 2 1 2 3
M  V30 3 1 2 4
M  V30 4 1 4 5
M  V30 5 1 5 6
M  V30 6 2 6 7
M  V30 7 1 7 8
M  V30 8 1 8 9
M  V30 9 1 9 10
M  V30 10 2 10 11
M  V30 11 1 11 12
M  V30 12 1 12 13
M  V30 13 2 8 14
M  V30 14 1 14 15
M  V30 15 1 15 16
M  V30 16 1 16 17
M  V30 17 2 17 18
M  V30 18 1 18 19
M  V30 19 1 18 20
M  V30 20 1 20 21
M  V30 21 1 21 22
M  V30 22 1 22 23
M  V30 23 1 19 6
M  V30 24 2 13 9
M  V30 25 2 19 15
M  V30 26 1 23 17
M  V30 27 1 1 24
M  V30 28 1 1 25
M  V30 29 1 1 26
M  V30 30 1 2 27 CFG=3
M  V30 31 1 3 28
M  V30 32 1 3 29
M  V30 33 1 4 30
M  V30 34 1 4 31
M  V30 35 1 5 32
M  V30 36 1 10 33
M  V30 37 1 12 34
M  V30 38 1 13 35
M  V30 39 1 20 36
M  V30 40 1 20 37
M  V30 41 1 21 38
M  V30 42 1 21 39
M  V30 43 1 22 40
M  V30 44 1 22 41
M  V30 45 1 23 42
M  V30 46 1 23 43
M  V30 END BOND
M  V30 END CTAB
M  END
>  <Dataset>  (202) 
ChEMBL_Kinases

>  <Ligand_Instance>  (202) 
nan

>  <PDB_ID>  (202) 
nan

>  <Standardized_SMILES>  (202) 
C[C@@H](N)CNc1nc(-c2cn[nH]c2)nc2sc3c(c12)CCCC3

>  <Name>  (202) 
nan

>  <Pocket>  (202) 
nan

>  <ATP_Site>  (202) 
nan

>  <Peripheral>  (202) 
nan

>  <Num_H_Atoms_ProtBoundConf>  (202) 
nan

>  <Num_Resolved_Atoms>  (202) 
nan

>  <Num_Not_Resolved_Atoms>  (202) 
nan

$$$$
CHEMBL3731649
     RDKit          3D

  0  0  0  0  0  0  0  0  0  0999 V3000
M  V30 BEGIN CTAB
M  V30 COUNTS 44 47 0 0 0
M  V30 BEGIN ATOM
M  V30 1 C -2.583544 -4.852069 0.874778 0
M  V30 2 N -1.778380 -3.774015 0.358635 0
M  V30 3 C -2.566128 -2.542214 0.378358 0
M  V30 4 C -1.759416 -1.373942 -0.157534 0
M  V30 5 O -0.608370 -1.137691 0.587057 0
M  V30 6 C 0.310577 -0.136433 0.324023 0
M  V30 7 N 0.132200 0.693411 -0.705521 0
M  V30 8 C 0.917831 1.692310 -1.081186 0
M  V30 9 C 0.715389 2.592635 -2.205861 0
M  V30 10 C -0.403420 2.426883 -2.996897 0
M  V30 11 C -0.628090 3.266979 -4.077216 0
M  V30 12 N 0.257150 4.256712 -4.357180 0
M  V30 13 C 1.361324 4.426696 -3.583244 0
M  V30 14 C 1.611954 3.603528 -2.498373 0
M  V30 15 N 2.010381 1.861424 -0.316402 0
M  V30 16 C 2.286573 1.092315 0.733508 0
M  V30 17 S 3.641798 1.056306 1.941295 0
M  V30 18 C 2.963861 -0.396107 2.888370 0
M  V30 19 C 1.791074 -0.707110 2.204174 0
M  V30 20 C 1.418821 0.023945 1.111585 0
M  V30 21 C 1.190348 -1.865954 2.908996 0
M  V30 22 C 1.013640 -1.427994 4.370705 0
M  V30 23 C 2.360090 -1.290192 5.046000 0
M  V30 24 C 3.466662 -1.071732 4.035262 0
M  V30 25 H -3.653771 -4.612081 0.988921 0
M  V30 26 H -2.249417 -5.175082 1.893002 0
M  V30 27 H -2.536827 -5.773344 0.255784 0
M  V30 28 H -0.922370 -3.686256 0.924174 0
M  V30 29 H -3.448856 -2.750876 -0.251925 0
M  V30 30 H -2.916798 -2.365820 1.405010 0
M  V30 31 H -1.603985 -1.490696 -1.247611 0
M  V30 32 H -2.422963 -0.480398 -0.032647 0
M  V30 33 H -1.095922 1.646662 -2.771580 0
M  V30 34 H -1.488900 3.177850 -4.726356 0
M  V30 35 H 2.071006 5.225361 -3.813178 0
M  V30 36 H 2.489273 3.718465 -1.862208 0
M  V30 37 H 1.900450 -2.712017 2.841706 0
M  V30 38 H 0.191123 -2.117511 2.549320 0
M  V30 39 H 0.402358 -2.121205 4.949417 0
M  V30 40 H 0.545124 -0.422710 4.363490 0
M  V30 41 H 2.333553 -0.408188 5.715046 0
M  V30 42 H 2.536924 -2.204895 5.672564 0
M  V30 43 H 4.283445 -0.462530 4.474130 0
M  V30 44 H 3.862113 -2.073237 3.767199 0
M  V30 END ATOM
M  V30 BEGIN BOND
M  V30 1 1 1 2
M  V30 2 1 2 3
M  V30 3 1 3 4
M  V30 4 1 4 5
M  V30 5 1 5 6
M  V30 6 2 6 7
M  V30 7 1 7 8
M  V30 8 1 8 9
M  V30 9 2 9 10
M  V30 10 1 10 11
M  V30 11 2 11 12
M  V30 12 1 12 13
M  V30 13 2 13 14
M  V30 14 2 8 15
M  V30 15 1 15 16
M  V30 16 1 16 17
M  V30 17 1 17 18
M  V30 18 2 18 19
M  V30 19 1 19 20
M  V30 20 1 19 21
M  V30 21 1 21 22
M  V30 22 1 22 23
M  V30 23 1 23 24
M  V30 24 1 20 6
M  V30 25 1 14 9
M  V30 26 2 20 16
M  V30 27 1 24 18
M  V30 28 1 1 25
M  V30 29 1 1 26
M  V30 30 1 1 27
M  V30 31 1 2 28
M  V30 32 1 3 29
M  V30 33 1 3 30
M  V30 34 1 4 31
M  V30 35 1 4 32
M  V30 36 1 10 33
M  V30 37 1 11 34
M  V30 38 1 13 35
M  V30 39 1 14 36
M  V30 40 1 21 37
M  V30 41 1 21 38
M  V30 42 1 22 39
M  V30 43 1 22 40
M  V30 44 1 23 41
M  V30 45 1 23 42
M  V30 46 1 24 43
M  V30 47 1 24 44
M  V30 END BOND
M  V30 END CTAB
M  END
>  <Dataset>  (203) 
ChEMBL_Kinases

>  <Ligand_Instance>  (203) 
nan

>  <PDB_ID>  (203) 
nan

>  <Standardized_SMILES>  (203) 
CNCCOc1nc(-c2ccncc2)nc2sc3c(c12)CCCC3

>  <Name>  (203) 
nan

>  <Pocket>  (203) 
nan

>  <ATP_Site>  (203) 
nan

>  <Peripheral>  (203) 
nan

>  <Num_H_Atoms_ProtBoundConf>  (203) 
nan

>  <Num_Resolved_Atoms>  (203) 
nan

>  <Num_Not_Resolved_Atoms>  (203) 
nan

$$$$
CHEMBL3731647
     RDKit          3D

  0  0  0  0  0  0  0  0  0  0999 V3000
M  V30 BEGIN CTAB
M  V30 COUNTS 43 44 0 0 0
M  V30 BEGIN ATOM
M  V30 1 C -0.518523 -3.958979 3.415804 0
M  V30 2 C 0.180367 -2.903542 4.280895 0
M  V30 3 C -0.755640 -2.596307 5.442787 0
M  V30 4 O 0.368917 -1.713058 3.584137 0
M  V30 5 C 1.603798 -1.111614 3.407016 0
M  V30 6 C 2.843837 -1.522408 3.848216 0
M  V30 7 C 3.976430 -0.787293 3.573802 0
M  V30 8 C 3.830759 0.360274 2.851180 0
M  V30 9 C 2.614232 0.852890 2.363581 0
M  V30 10 N 2.568070 2.058194 1.626943 0
M  V30 11 C 1.357547 2.613627 1.084788 0
M  V30 12 C 0.818983 1.642164 0.091615 0
M  V30 13 O 1.114138 0.510209 -0.394077 0
M  V30 14 N -0.402689 2.037214 -0.552964 0
M  V30 15 N -0.913997 1.131772 -1.485394 0
M  V30 16 C -0.585727 1.065711 -2.720807 0
M  V30 17 C -1.196704 0.067808 -3.596612 0
M  V30 18 C -2.126808 -0.774592 -3.019366 0
M  V30 19 Cl -2.541732 -0.641913 -1.328875 0
M  V30 20 C -2.703579 -1.725640 -3.869297 0
M  V30 21 N -2.368161 -1.808422 -5.166939 0
M  V30 22 C -1.457532 -0.967201 -5.685764 0
M  V30 23 C -0.825740 0.014223 -4.924986 0
M  V30 24 Cl 0.346747 1.086008 -5.624744 0
M  V30 25 C 1.517803 0.075119 2.669817 0
M  V30 26 H -1.207906 -4.561755 4.021386 0
M  V30 27 H -1.147181 -3.379196 2.698131 0
M  V30 28 H 0.231436 -4.558593 2.842810 0
M  V30 29 H 1.060508 -3.379879 4.703152 0
M  V30 30 H -0.440271 -1.670009 5.965873 0
M  V30 31 H -1.772934 -2.434758 5.037700 0
M  V30 32 H -0.708646 -3.413575 6.190686 0
M  V30 33 H 2.833843 -2.445301 4.409670 0
M  V30 34 H 4.916022 -1.140435 3.933612 0
M  V30 35 H 4.749792 0.905486 2.659633 0
M  V30 36 H 3.453243 2.575240 1.465456 0
M  V30 37 H 0.618402 2.839089 1.880523 0
M  V30 38 H 1.538620 3.560747 0.538841 0
M  V30 39 H -0.956431 2.933509 -0.400593 0
M  V30 40 H 0.154260 1.790030 -3.032369 0
M  V30 41 H -3.433810 -2.392757 -3.431712 0
M  V30 42 H -1.231818 -1.089962 -6.747488 0
M  V30 43 H 0.573038 0.478494 2.282724 0
M  V30 END ATOM
M  V30 BEGIN BOND
M  V30 1 1 1 2
M  V30 2 1 2 3
M  V30 3 1 2 4
M  V30 4 1 4 5
M  V30 5 2 5 6
M  V30 6 1 6 7
M  V30 7 2 7 8
M  V30 8 1 8 9
M  V30 9 1 9 10
M  V30 10 1 10 11
M  V30 11 1 11 12
M  V30 12 2 12 13
M  V30 13 1 12 14
M  V30 14 1 14 15
M  V30 15 2 15 16
M  V30 16 1 16 17
M  V30 17 2 17 18
M  V30 18 1 18 19
M  V30 19 1 18 20
M  V30 20 2 20 21
M  V30 21 1 21 22
M  V30 22 2 22 23
M  V30 23 1 23 24
M  V30 24 2 9 25
M  V30 25 1 25 5
M  V30 26 1 23 17
M  V30 27 1 1 26
M  V30 28 1 1 27
M  V30 29 1 1 28
M  V30 30 1 2 29
M  V30 31 1 3 30
M  V30 32 1 3 31
M  V30 33 1 3 32
M  V30 34 1 6 33
M  V30 35 1 7 34
M  V30 36 1 8 35
M  V30 37 1 10 36
M  V30 38 1 11 37
M  V30 39 1 11 38
M  V30 40 1 14 39
M  V30 41 1 16 40
M  V30 42 1 20 41
M  V30 43 1 22 42
M  V30 44 1 25 43
M  V30 END BOND
M  V30 END CTAB
M  END
>  <Dataset>  (204) 
ChEMBL_Kinases

>  <Ligand_Instance>  (204) 
nan

>  <PDB_ID>  (204) 
nan

>  <Standardized_SMILES>  (204) 
CC(C)Oc1cccc(NCC(=O)N/N=C/c2c(Cl)cncc2Cl)c1

>  <Name>  (204) 
nan

>  <Pocket>  (204) 
nan

>  <ATP_Site>  (204) 
nan

>  <Peripheral>  (204) 
nan

>  <Num_H_Atoms_ProtBoundConf>  (204) 
nan

>  <Num_Resolved_Atoms>  (204) 
nan

>  <Num_Not_Resolved_Atoms>  (204) 
nan

$$$$
CHEMBL3731640
     RDKit          3D

  0  0  0  0  0  0  0  0  0  0999 V3000
M  V30 BEGIN CTAB
M  V30 COUNTS 60 63 0 0 0
M  V30 BEGIN ATOM
M  V30 1 C 4.530459 -0.636567 2.695865 0
M  V30 2 C 5.914714 -1.171986 2.601116 0
M  V30 3 C 6.185465 -2.088281 1.461481 0
M  V30 4 C 5.973249 -1.466561 0.103206 0 CFG=2
M  V30 5 O 6.843361 -0.365509 0.019810 0
M  V30 6 C 4.618625 -0.984259 -0.123887 0
M  V30 7 C 3.483030 -0.590295 -0.332971 0
M  V30 8 C 2.136231 -0.137812 -0.558774 0
M  V30 9 C 1.944758 0.771672 -1.623017 0
M  V30 10 S 0.081058 1.098741 -1.569489 0
M  V30 11 C -0.196501 0.051686 -0.223248 0
M  V30 12 C -1.384657 -0.239383 0.421026 0
M  V30 13 N -2.573175 0.377651 -0.043940 0
M  V30 14 C -3.798933 0.057452 0.644950 0
M  V30 15 C -5.000817 0.713988 0.041144 0 CFG=1
M  V30 16 N -4.952983 2.147783 0.005140 0
M  V30 17 C -5.479594 0.092974 -1.241770 0
M  V30 18 C -4.482965 0.092255 -2.331070 0
M  V30 19 C -4.275051 1.093562 -3.252202 0
M  V30 20 C -3.321465 0.988025 -4.244163 0
M  V30 21 C -2.535364 -0.124588 -4.356179 0
M  V30 22 C -2.702302 -1.163025 -3.455263 0
M  V30 23 C -3.661689 -1.034325 -2.472743 0
M  V30 24 N -1.395917 -1.103130 1.478773 0
M  V30 25 C -0.165724 -1.606707 1.794841 0
M  V30 26 C -0.119143 -2.548727 2.934499 0
M  V30 27 C 1.057156 -3.117696 3.342647 0
M  V30 28 C 1.014000 -3.984692 4.412508 0
M  V30 29 N -0.135670 -4.274666 5.047352 0
M  V30 30 C -1.292850 -3.716525 4.647763 0
M  V30 31 C -1.308035 -2.831169 3.569701 0
M  V30 32 N 0.960322 -1.321329 1.172574 0
M  V30 33 C 1.011283 -0.476624 0.128441 0
M  V30 34 H 4.356018 -0.400070 3.790266 0
M  V30 35 H 4.434023 0.360577 2.206894 0
M  V30 36 H 3.780253 -1.373275 2.418066 0
M  V30 37 H 6.143637 -1.731179 3.540275 0
M  V30 38 H 6.596135 -0.290146 2.497484 0
M  V30 39 H 7.194410 -2.517409 1.571696 0
M  V30 40 H 5.409943 -2.909539 1.528586 0
M  V30 41 H 6.212598 -2.207915 -0.702448 0
M  V30 42 H 6.443461 0.448224 0.390066 0
M  V30 43 H 2.697029 1.210998 -2.342372 0
M  V30 44 H -2.567066 1.041123 -0.844185 0
M  V30 45 H -3.750320 0.296050 1.729529 0
M  V30 46 H -4.003414 -1.046680 0.612440 0
M  V30 47 H -5.840735 0.490612 0.794055 0
M  V30 48 H -3.993385 2.538452 0.003675 0
M  V30 49 H -5.605982 2.630791 0.642188 0
M  V30 50 H -6.408618 0.612553 -1.615506 0
M  V30 51 H -5.797895 -0.977695 -1.084159 0
M  V30 52 H -4.908778 1.968529 -3.146847 0
M  V30 53 H -3.176786 1.796464 -4.962015 0
M  V30 54 H -1.783861 -0.228361 -5.123781 0
M  V30 55 H -2.098255 -2.055128 -3.515752 0
M  V30 56 H -3.763638 -1.868798 -1.784644 0
M  V30 57 H 1.949295 -2.870759 2.823135 0
M  V30 58 H 1.970854 -4.416208 4.706246 0
M  V30 59 H -2.240842 -3.936502 5.147878 0
M  V30 60 H -2.262283 -2.411609 3.289978 0
M  V30 END ATOM
M  V30 BEGIN BOND
M  V30 1 1 1 2
M  V30 2 1 2 3
M  V30 3 1 3 4
M  V30 4 1 4 5
M  V30 5 1 4 6
M  V30 6 3 6 7
M  V30 7 1 7 8
M  V30 8 2 8 9
M  V30 9 1 9 10
M  V30 10 1 10 11
M  V30 11 2 11 12
M  V30 12 1 12 13
M  V30 13 1 13 14
M  V30 14 1 14 15
M  V30 15 1 15 16
M  V30 16 1 15 17
M  V30 17 1 17 18
M  V30 18 2 18 19
M  V30 19 1 19 20
M  V30 20 2 20 21
M  V30 21 1 21 22
M  V30 22 2 22 23
M  V30 23 1 12 24
M  V30 24 2 24 25
M  V30 25 1 25 26
M  V30 26 2 26 27
M  V30 27 1 27 28
M  V30 28 2 28 29
M  V30 29 1 29 30
M  V30 30 2 30 31
M  V30 31 1 25 32
M  V30 32 2 32 33
M  V30 33 1 33 8
M  V30 34 1 33 11
M  V30 35 1 23 18
M  V30 36 1 31 26
M  V30 37 1 1 34
M  V30 38 1 1 35
M  V30 39 1 1 36
M  V30 40 1 2 37
M  V30 41 1 2 38
M  V30 42 1 3 39
M  V30 43 1 3 40
M  V30 44 1 4 41 CFG=3
M  V30 45 1 5 42
M  V30 46 1 9 43
M  V30 47 1 13 44
M  V30 48 1 14 45
M  V30 49 1 14 46
M  V30 50 1 15 47 CFG=1
M  V30 51 1 16 48
M  V30 52 1 16 49
M  V30 53 1 17 50
M  V30 54 1 17 51
M  V30 55 1 19 52
M  V30 56 1 20 53
M  V30 57 1 21 54
M  V30 58 1 22 55
M  V30 59 1 23 56
M  V30 60 1 27 57
M  V30 61 1 28 58
M  V30 62 1 30 59
M  V30 63 1 31 60
M  V30 END BOND
M  V30 END CTAB
M  END
>  <Dataset>  (205) 
ChEMBL_Kinases

>  <Ligand_Instance>  (205) 
nan

>  <PDB_ID>  (205) 
nan

>  <Standardized_SMILES>  (205) 
CCC[C@H](O)C#Cc1csc2c(NC[C@@H](N)Cc3ccccc3)nc(-c3ccncc3)nc12

>  <Name>  (205) 
nan

>  <Pocket>  (205) 
nan

>  <ATP_Site>  (205) 
nan

>  <Peripheral>  (205) 
nan

>  <Num_H_Atoms_ProtBoundConf>  (205) 
nan

>  <Num_Resolved_Atoms>  (205) 
nan

>  <Num_Not_Resolved_Atoms>  (205) 
nan

$$$$
CHEMBL3731636
     RDKit          3D

  0  0  0  0  0  0  0  0  0  0999 V3000
M  V30 BEGIN CTAB
M  V30 COUNTS 66 71 0 0 0
M  V30 BEGIN ATOM
M  V30 1 N 4.045119 -0.968690 1.751947 0
M  V30 2 C 2.614927 -0.811503 1.522034 0 CFG=2
M  V30 3 C 2.420082 -0.000487 0.228556 0
M  V30 4 N 1.067100 0.229477 -0.119751 0
M  V30 5 C -0.165857 0.721199 -0.730045 0
M  V30 6 N -0.218630 1.737952 -1.604982 0
M  V30 7 C -1.197786 2.362179 -2.188501 0
M  V30 8 C -1.094603 3.459204 -3.125347 0
M  V30 9 C 0.164501 3.955683 -3.482336 0
M  V30 10 C 0.168011 4.991029 -4.369453 0
M  V30 11 N -0.939160 5.531947 -4.893041 0
M  V30 12 C -2.151119 5.037887 -4.535919 0
M  V30 13 C -2.284068 3.975203 -3.632706 0
M  V30 14 N -2.352501 1.848969 -1.804380 0
M  V30 15 C -2.421991 0.825276 -0.931602 0
M  V30 16 S -3.923803 0.112797 -0.410442 0
M  V30 17 C -3.105453 -1.125690 0.675233 0
M  V30 18 C -1.784609 -0.817741 0.486560 0
M  V30 19 C -1.382754 0.190846 -0.338486 0
M  V30 20 C -1.061443 -1.824449 1.308301 0
M  V30 21 C -1.490507 -3.187301 0.719825 0
M  V30 22 N -2.813417 -3.457485 1.227997 0
M  V30 23 C -3.356966 -4.761563 1.370292 0
M  V30 24 O -4.550071 -4.791810 1.838700 0
M  V30 25 C -2.628882 -5.964294 1.014019 0
M  V30 26 C -2.112604 -6.161045 -0.253448 0
M  V30 27 C -1.406629 -7.242405 -0.740282 0
M  V30 28 C -1.206257 -8.242313 0.183761 0
M  V30 29 C -1.680035 -8.147142 1.477071 0
M  V30 30 C -2.377061 -7.031307 1.884282 0
M  V30 31 C -3.539639 -2.238103 1.571062 0
M  V30 32 C 2.000193 -0.135783 2.712125 0
M  V30 33 C 2.566245 1.212385 2.986403 0
M  V30 34 C 2.064802 2.359214 2.408063 0
M  V30 35 C 2.527944 3.639368 2.615655 0
M  V30 36 C 3.596999 3.805185 3.484432 0
M  V30 37 C 4.151294 2.704872 4.100758 0
M  V30 38 C 3.630122 1.457415 3.840402 0
M  V30 39 H 4.188279 -1.081380 2.765925 0
M  V30 40 H 4.429983 -1.775498 1.202901 0
M  V30 41 H 2.238030 -1.816993 1.333083 0
M  V30 42 H 3.056771 0.937217 0.353944 0
M  V30 43 H 3.008389 -0.617905 -0.527037 0
M  V30 44 H 1.625078 0.809906 -0.769323 0
M  V30 45 H 1.078944 3.562673 -3.096657 0
M  V30 46 H 1.056894 5.474343 -4.735297 0
M  V30 47 H -3.118871 5.405978 -4.904083 0
M  V30 48 H -3.226561 3.562822 -3.330874 0
M  V30 49 H -1.328006 -1.774029 2.377956 0
M  V30 50 H 0.011024 -1.738944 1.235542 0
M  V30 51 H -0.762200 -3.972339 0.981584 0
M  V30 52 H -1.567056 -3.089953 -0.371579 0
M  V30 53 H -2.291825 -5.338578 -0.964216 0
M  V30 54 H -1.071057 -7.241005 -1.760406 0
M  V30 55 H -0.651964 -9.128417 -0.141364 0
M  V30 56 H -1.517944 -8.943061 2.202689 0
M  V30 57 H -2.783500 -6.883249 2.892174 0
M  V30 58 H -4.612775 -2.455572 1.433616 0
M  V30 59 H -3.364436 -2.010986 2.629393 0
M  V30 60 H 0.886909 -0.050115 2.584475 0
M  V30 61 H 2.113230 -0.774728 3.627493 0
M  V30 62 H 1.230365 2.311886 1.722719 0
M  V30 63 H 2.099594 4.506729 2.137165 0
M  V30 64 H 3.971732 4.804563 3.656347 0
M  V30 65 H 4.981380 2.846299 4.774898 0
M  V30 66 H 4.104882 0.647061 4.359409 0
M  V30 END ATOM
M  V30 BEGIN BOND
M  V30 1 1 1 2
M  V30 2 1 2 3
M  V30 3 1 3 4
M  V30 4 1 4 5
M  V30 5 2 5 6
M  V30 6 1 6 7
M  V30 7 1 7 8
M  V30 8 2 8 9
M  V30 9 1 9 10
M  V30 10 2 10 11
M  V30 11 1 11 12
M  V30 12 2 12 13
M  V30 13 2 7 14
M  V30 14 1 14 15
M  V30 15 1 15 16
M  V30 16 1 16 17
M  V30 17 2 17 18
M  V30 18 1 18 19
M  V30 19 1 18 20
M  V30 20 1 20 21
M  V30 21 1 21 22
M  V30 22 1 22 23
M  V30 23 2 23 24
M  V30 24 1 23 25
M  V30 25 2 25 26
M  V30 26 1 26 27
M  V30 27 2 27 28
M  V30 28 1 28 29
M  V30 29 2 29 30
M  V30 30 1 22 31
M  V30 31 1 2 32
M  V30 32 1 32 33
M  V30 33 2 33 34
M  V30 34 1 34 35
M  V30 35 2 35 36
M  V30 36 1 36 37
M  V30 37 2 37 38
M  V30 38 1 19 5
M  V30 39 1 30 25
M  V30 40 1 38 33
M  V30 41 1 13 8
M  V30 42 2 19 15
M  V30 43 1 31 17
M  V30 44 1 1 39
M  V30 45 1 1 40
M  V30 46 1 2 41 CFG=3
M  V30 47 1 3 42
M  V30 48 1 3 43
M  V30 49 1 4 44
M  V30 50 1 9 45
M  V30 51 1 10 46
M  V30 52 1 12 47
M  V30 53 1 13 48
M  V30 54 1 20 49
M  V30 55 1 20 50
M  V30 56 1 21 51
M  V30 57 1 21 52
M  V30 58 1 26 53
M  V30 59 1 27 54
M  V30 60 1 28 55
M  V30 61 1 29 56
M  V30 62 1 30 57
M  V30 63 1 31 58
M  V30 64 1 31 59
M  V30 65 1 32 60
M  V30 66 1 32 61
M  V30 67 1 34 62
M  V30 68 1 35 63
M  V30 69 1 36 64
M  V30 70 1 37 65
M  V30 71 1 38 66
M  V30 END BOND
M  V30 END CTAB
M  END
>  <Dataset>  (206) 
ChEMBL_Kinases

>  <Ligand_Instance>  (206) 
nan

>  <PDB_ID>  (206) 
nan

>  <Standardized_SMILES>  (206) 
N[C@H](CNc1nc(-c2ccncc2)nc2sc3c(c12)CCN(C(=O)c1ccccc1)C3)Cc1ccccc1

>  <Name>  (206) 
nan

>  <Pocket>  (206) 
nan

>  <ATP_Site>  (206) 
nan

>  <Peripheral>  (206) 
nan

>  <Num_H_Atoms_ProtBoundConf>  (206) 
nan

>  <Num_Resolved_Atoms>  (206) 
nan

>  <Num_Not_Resolved_Atoms>  (206) 
nan

$$$$
CHEMBL3731761
     RDKit          3D

  0  0  0  0  0  0  0  0  0  0999 V3000
M  V30 BEGIN CTAB
M  V30 COUNTS 36 39 0 0 0
M  V30 BEGIN ATOM
M  V30 1 C 0.333927 -4.339037 0.448918 0
M  V30 2 C 1.545982 -4.229522 1.295355 0
M  V30 3 O 1.989568 -5.196639 1.980803 0
M  V30 4 C 2.262812 -2.963781 1.348002 0
M  V30 5 C 3.401772 -2.835970 2.134082 0
M  V30 6 C 4.043194 -1.624366 2.151708 0
M  V30 7 C 3.617079 -0.530257 1.431689 0
M  V30 8 C 2.471125 -0.648203 0.636810 0
M  V30 9 C 2.024013 0.513719 -0.123946 0
M  V30 10 C 2.946674 1.269481 -0.832930 0
M  V30 11 N 2.242292 2.259980 -1.424384 0
M  V30 12 C 0.925126 2.125028 -1.094393 0
M  V30 13 C -0.184390 2.868748 -1.435993 0
M  V30 14 N -1.373569 2.477274 -0.943196 0
M  V30 15 C -1.465643 1.413683 -0.158350 0
M  V30 16 C -2.835095 1.031700 0.359433 0
M  V30 17 C -4.024161 1.595140 0.162124 0
M  V30 18 C -5.132093 1.088894 0.723550 0
M  V30 19 C -4.906062 -0.087083 1.533525 0
M  V30 20 S -3.031194 -0.314360 1.366837 0
M  V30 21 C -0.395967 0.631475 0.218095 0
M  V30 22 N 0.800500 1.050645 -0.296008 0
M  V30 23 C 1.831799 -1.870758 0.624803 0
M  V30 24 H -0.315540 -3.487154 0.701275 0
M  V30 25 H -0.238628 -5.255166 0.636515 0
M  V30 26 H 0.571156 -4.327863 -0.634878 0
M  V30 27 H 3.732705 -3.712612 2.703314 0
M  V30 28 H 4.922555 -1.610060 2.790088 0
M  V30 29 H 4.198035 0.396262 1.511383 0
M  V30 30 H 4.020542 1.234764 -0.997371 0
M  V30 31 H -0.146495 3.731628 -2.066232 0
M  V30 32 H -4.037535 2.477668 -0.473313 0
M  V30 33 H -6.126984 1.508248 0.596096 0
M  V30 34 H -5.942913 -0.554851 2.054601 0
M  V30 35 H -0.455831 -0.224713 0.847392 0
M  V30 36 H 0.944913 -1.988814 0.019581 0
M  V30 END ATOM
M  V30 BEGIN BOND
M  V30 1 1 1 2
M  V30 2 2 2 3
M  V30 3 1 2 4
M  V30 4 2 4 5
M  V30 5 1 5 6
M  V30 6 2 6 7
M  V30 7 1 7 8
M  V30 8 1 8 9
M  V30 9 2 9 10
M  V30 10 1 10 11
M  V30 11 2 11 12
M  V30 12 1 12 13
M  V30 13 2 13 14
M  V30 14 1 14 15
M  V30 15 1 15 16
M  V30 16 2 16 17
M  V30 17 1 17 18
M  V30 18 2 18 19
M  V30 19 1 19 20
M  V30 20 2 15 21
M  V30 21 1 21 22
M  V30 22 2 8 23
M  V30 23 1 23 4
M  V30 24 1 22 9
M  V30 25 1 22 12
M  V30 26 1 20 16
M  V30 27 1 1 24
M  V30 28 1 1 25
M  V30 29 1 1 26
M  V30 30 1 5 27
M  V30 31 1 6 28
M  V30 32 1 7 29
M  V30 33 1 10 30
M  V30 34 1 13 31
M  V30 35 1 17 32
M  V30 36 1 18 33
M  V30 37 1 19 34
M  V30 38 1 21 35
M  V30 39 1 23 36
M  V30 END BOND
M  V30 END CTAB
M  END
>  <Dataset>  (207) 
ChEMBL_Kinases

>  <Ligand_Instance>  (207) 
nan

>  <PDB_ID>  (207) 
nan

>  <Standardized_SMILES>  (207) 
CC(=O)c1cccc(-c2cnc3cnc(-c4cccs4)cn23)c1

>  <Name>  (207) 
nan

>  <Pocket>  (207) 
nan

>  <ATP_Site>  (207) 
nan

>  <Peripheral>  (207) 
nan

>  <Num_H_Atoms_ProtBoundConf>  (207) 
nan

>  <Num_Resolved_Atoms>  (207) 
nan

>  <Num_Not_Resolved_Atoms>  (207) 
nan

$$$$
CHEMBL3703704
     RDKit          3D

  0  0  0  0  0  0  0  0  0  0999 V3000
M  V30 BEGIN CTAB
M  V30 COUNTS 47 50 0 0 0
M  V30 BEGIN ATOM
M  V30 1 C -5.787034 -6.422037 1.349275 0
M  V30 2 C -5.665438 -5.028619 0.828213 0
M  V30 3 C -4.428619 -4.607853 0.333624 0
M  V30 4 C -4.195359 -3.330890 -0.178103 0
M  V30 5 C -2.842222 -3.057545 -0.653840 0
M  V30 6 N -2.040418 -3.833727 -1.429518 0
M  V30 7 N -0.879909 -3.185555 -1.619704 0
M  V30 8 C -0.915365 -1.989640 -0.973973 0
M  V30 9 C 0.071122 -1.024343 -0.917516 0
M  V30 10 C -0.237093 0.110187 -0.179196 0
M  V30 11 N 0.786098 1.104757 -0.124148 0
M  V30 12 C 1.725243 0.997578 0.950418 0
M  V30 13 O 1.710304 0.096139 1.840091 0
M  V30 14 N 2.728729 2.003794 0.973345 0
M  V30 15 C 3.818805 2.154690 1.944076 0
M  V30 16 C 3.792586 3.537654 2.498995 0
M  V30 17 C 5.030347 3.830596 3.305000 0
M  V30 18 C 6.271279 3.472410 2.493193 0
M  V30 19 N 5.865157 3.196941 1.140113 0
M  V30 20 C 5.106102 1.966842 1.168025 0
M  V30 21 N -1.445856 0.241565 0.443403 0
M  V30 22 C -2.380691 -0.727352 0.361397 0
M  V30 23 C -2.164617 -1.892800 -0.351011 0
M  V30 24 C -5.263420 -2.486924 -0.172840 0
M  V30 25 C -6.487171 -2.896925 0.314314 0
M  V30 26 N -6.687936 -4.135640 0.803546 0
M  V30 27 H -5.336584 -7.171410 0.651006 0
M  V30 28 H -6.851247 -6.669861 1.445459 0
M  V30 29 H -5.332026 -6.533848 2.359770 0
M  V30 30 H -3.606378 -5.338115 0.357703 0
M  V30 31 H -0.131342 -3.652865 -2.208406 0
M  V30 32 H 1.009171 -1.175612 -1.426625 0
M  V30 33 H 0.741560 1.818141 -0.886261 0
M  V30 34 H 2.780681 2.777719 0.249846 0
M  V30 35 H 3.775688 1.351241 2.706743 0
M  V30 36 H 3.688609 4.231024 1.635380 0
M  V30 37 H 2.895771 3.648753 3.116025 0
M  V30 38 H 5.002920 3.172932 4.185392 0
M  V30 39 H 5.052398 4.889559 3.617696 0
M  V30 40 H 6.984955 4.316051 2.475563 0
M  V30 41 H 6.806195 2.608164 2.955558 0
M  V30 42 H 6.644970 3.166098 0.477093 0
M  V30 43 H 5.738807 1.146271 1.596093 0
M  V30 44 H 4.930238 1.669884 0.105604 0
M  V30 45 H -3.340313 -0.628897 0.852599 0
M  V30 46 H -5.071011 -1.489454 -0.575443 0
M  V30 47 H -7.277599 -2.173347 0.283620 0
M  V30 END ATOM
M  V30 BEGIN BOND
M  V30 1 1 1 2
M  V30 2 2 2 3
M  V30 3 1 3 4
M  V30 4 1 4 5
M  V30 5 2 5 6
M  V30 6 1 6 7
M  V30 7 1 7 8
M  V30 8 2 8 9
M  V30 9 1 9 10
M  V30 10 1 10 11
M  V30 11 1 11 12
M  V30 12 2 12 13
M  V30 13 1 12 14
M  V30 14 1 14 15
M  V30 15 1 15 16
M  V30 16 1 16 17
M  V30 17 1 17 18
M  V30 18 1 18 19
M  V30 19 1 19 20
M  V30 20 2 10 21
M  V30 21 1 21 22
M  V30 22 2 22 23
M  V30 23 2 4 24
M  V30 24 1 24 25
M  V30 25 2 25 26
M  V30 26 1 26 2
M  V30 27 1 23 5
M  V30 28 1 23 8
M  V30 29 1 20 15
M  V30 30 1 1 27
M  V30 31 1 1 28
M  V30 32 1 1 29
M  V30 33 1 3 30
M  V30 34 1 7 31
M  V30 35 1 9 32
M  V30 36 1 11 33
M  V30 37 1 14 34
M  V30 38 1 15 35
M  V30 39 1 16 36
M  V30 40 1 16 37
M  V30 41 1 17 38
M  V30 42 1 17 39
M  V30 43 1 18 40
M  V30 44 1 18 41
M  V30 45 1 19 42
M  V30 46 1 20 43
M  V30 47 1 20 44
M  V30 48 1 22 45
M  V30 49 1 24 46
M  V30 50 1 25 47
M  V30 END BOND
M  V30 END CTAB
M  END
>  <Dataset>  (208) 
ChEMBL_Kinases

>  <Ligand_Instance>  (208) 
nan

>  <PDB_ID>  (208) 
nan

>  <Standardized_SMILES>  (208) 
Cc1cc(-c2n[nH]c3cc(NC(=O)NC4CCCNC4)ncc23)ccn1

>  <Name>  (208) 
nan

>  <Pocket>  (208) 
nan

>  <ATP_Site>  (208) 
nan

>  <Peripheral>  (208) 
nan

>  <Num_H_Atoms_ProtBoundConf>  (208) 
nan

>  <Num_Resolved_Atoms>  (208) 
nan

>  <Num_Not_Resolved_Atoms>  (208) 
nan

$$$$
CHEMBL3731222
     RDKit          3D

  0  0  0  0  0  0  0  0  0  0999 V3000
M  V30 BEGIN CTAB
M  V30 COUNTS 48 52 0 0 0
M  V30 BEGIN ATOM
M  V30 1 C 2.191001 -5.653557 0.265297 0
M  V30 2 C 1.632559 -4.393259 0.378265 0
M  V30 3 C 0.407818 -4.344825 1.029214 0
M  V30 4 C -0.231492 -3.046450 1.179986 0
M  V30 5 N 0.256983 -1.893536 0.746314 0
M  V30 6 C -0.296941 -0.688299 0.865049 0
M  V30 7 O 0.359629 0.420720 0.347568 0
M  V30 8 C 1.603564 0.281291 -0.300218 0
M  V30 9 C 1.485582 0.793908 -1.700224 0
M  V30 10 C 2.753911 0.673357 -2.487932 0
M  V30 11 C 3.896724 1.285766 -1.700769 0
M  V30 12 N 3.928334 0.807151 -0.350836 0
M  V30 13 C 2.716612 1.045377 0.385240 0
M  V30 14 C -1.512504 -0.580746 1.502306 0
M  V30 15 C -2.282594 0.522429 1.752367 0
M  V30 16 C -3.460463 0.412213 2.401689 0
M  V30 17 S -3.591103 -1.315040 2.728341 0
M  V30 18 C -2.012028 -1.787329 1.949882 0
M  V30 19 N -1.415170 -3.013487 1.811181 0
M  V30 20 C -4.456944 1.382587 2.792640 0
M  V30 21 C -3.994092 2.777753 2.561000 0
M  V30 22 C -2.482088 2.791289 2.617266 0
M  V30 23 C -2.041087 1.955071 1.410406 0
M  V30 24 C -0.148850 -5.513207 1.501827 0
M  V30 25 C 0.452914 -6.743969 1.361195 0
M  V30 26 N 1.641726 -6.797359 0.730289 0
M  V30 27 H 3.154022 -5.798531 -0.230680 0
M  V30 28 H 2.106709 -3.517751 -0.006515 0
M  V30 29 H 1.911939 -0.783432 -0.307977 0
M  V30 30 H 0.683144 0.217056 -2.201087 0
M  V30 31 H 1.244480 1.888705 -1.669214 0
M  V30 32 H 3.009426 -0.379119 -2.743706 0
M  V30 33 H 2.625601 1.285388 -3.404728 0
M  V30 34 H 3.757434 2.388160 -1.683295 0
M  V30 35 H 4.841486 1.003625 -2.187422 0
M  V30 36 H 4.363765 -0.111411 -0.215710 0
M  V30 37 H 2.535406 2.143693 0.344842 0
M  V30 38 H 2.871617 0.716257 1.423165 0
M  V30 39 H -5.377733 1.219971 2.163715 0
M  V30 40 H -4.788163 1.253779 3.852763 0
M  V30 41 H -4.304743 3.142481 1.538626 0
M  V30 42 H -4.402728 3.431399 3.357162 0
M  V30 43 H -2.212820 2.198636 3.522797 0
M  V30 44 H -2.039234 3.791767 2.596286 0
M  V30 45 H -2.535594 2.264982 0.482256 0
M  V30 46 H -0.948943 2.183392 1.317302 0
M  V30 47 H -1.099008 -5.456964 2.004059 0
M  V30 48 H -0.054037 -7.627143 1.764743 0
M  V30 END ATOM
M  V30 BEGIN BOND
M  V30 1 2 1 2
M  V30 2 1 2 3
M  V30 3 1 3 4
M  V30 4 2 4 5
M  V30 5 1 5 6
M  V30 6 1 6 7
M  V30 7 1 7 8
M  V30 8 1 8 9
M  V30 9 1 9 10
M  V30 10 1 10 11
M  V30 11 1 11 12
M  V30 12 1 12 13
M  V30 13 2 6 14
M  V30 14 1 14 15
M  V30 15 2 15 16
M  V30 16 1 16 17
M  V30 17 1 17 18
M  V30 18 2 18 19
M  V30 19 1 16 20
M  V30 20 1 20 21
M  V30 21 1 21 22
M  V30 22 1 22 23
M  V30 23 2 3 24
M  V30 24 1 24 25
M  V30 25 2 25 26
M  V30 26 1 26 1
M  V30 27 1 19 4
M  V30 28 1 13 8
M  V30 29 1 18 14
M  V30 30 1 23 15
M  V30 31 1 1 27
M  V30 32 1 2 28
M  V30 33 1 8 29
M  V30 34 1 9 30
M  V30 35 1 9 31
M  V30 36 1 10 32
M  V30 37 1 10 33
M  V30 38 1 11 34
M  V30 39 1 11 35
M  V30 40 1 12 36
M  V30 41 1 13 37
M  V30 42 1 13 38
M  V30 43 1 20 39
M  V30 44 1 20 40
M  V30 45 1 21 41
M  V30 46 1 21 42
M  V30 47 1 22 43
M  V30 48 1 22 44
M  V30 49 1 23 45
M  V30 50 1 23 46
M  V30 51 1 24 47
M  V30 52 1 25 48
M  V30 END BOND
M  V30 END CTAB
M  END
>  <Dataset>  (209) 
ChEMBL_Kinases

>  <Ligand_Instance>  (209) 
nan

>  <PDB_ID>  (209) 
nan

>  <Standardized_SMILES>  (209) 
c1cc(-c2nc(OC3CCCNC3)c3c4c(sc3n2)CCCC4)ccn1

>  <Name>  (209) 
nan

>  <Pocket>  (209) 
nan

>  <ATP_Site>  (209) 
nan

>  <Peripheral>  (209) 
nan

>  <Num_H_Atoms_ProtBoundConf>  (209) 
nan

>  <Num_Resolved_Atoms>  (209) 
nan

>  <Num_Not_Resolved_Atoms>  (209) 
nan

$$$$
CHEMBL3731215
     RDKit          3D

  0  0  0  0  0  0  0  0  0  0999 V3000
M  V30 BEGIN CTAB
M  V30 COUNTS 52 56 0 0 0
M  V30 BEGIN ATOM
M  V30 1 N 2.427309 -5.298501 1.085672 0
M  V30 2 C 2.205286 -3.901621 0.784988 0 CFG=2
M  V30 3 C 1.420659 -3.210433 1.866426 0
M  V30 4 N 1.139802 -1.829317 1.690910 0
M  V30 5 C 0.865309 -0.478965 1.519295 0
M  V30 6 N 1.636816 0.597392 1.316072 0
M  V30 7 C 0.994403 1.765490 1.210443 0
M  V30 8 C 1.872226 2.906701 0.999071 0
M  V30 9 C 3.256857 2.753761 0.928468 0
M  V30 10 C 3.924162 3.970571 0.724487 0
M  V30 11 N 3.333228 5.161511 0.605169 0
M  V30 12 C 1.974346 5.318985 0.673660 0
M  V30 13 C 1.316228 4.149058 0.871573 0
M  V30 14 F -0.038855 4.263076 0.947430 0
M  V30 15 N -0.300555 1.889098 1.293741 0
M  V30 16 C -1.202531 0.910647 1.493737 0
M  V30 17 C -2.546484 1.069525 1.581062 0
M  V30 18 C -3.246539 2.373506 1.493581 0
M  V30 19 C -4.232770 2.372108 0.616487 0
M  V30 20 C -5.012971 3.594404 0.441150 0
M  V30 21 S -4.158068 4.772041 1.698192 0
M  V30 22 C -2.914394 3.576486 2.297870 0
M  V30 23 C -3.142560 -0.138785 1.791228 0
M  V30 24 S -1.932212 -1.380817 1.861849 0
M  V30 25 C -0.594719 -0.255124 1.602215 0
M  V30 26 C 1.736384 -3.662554 -0.599712 0
M  V30 27 C 0.440691 -4.341394 -0.944324 0
M  V30 28 C 0.580790 -5.633482 -1.402237 0
M  V30 29 C -0.558063 -6.375742 -1.762036 0
M  V30 30 C -1.733677 -5.689949 -1.608127 0
M  V30 31 C -1.929085 -4.408765 -1.159433 0
M  V30 32 C -0.774658 -3.707053 -0.812200 0
M  V30 33 H 3.257113 -5.685012 0.572139 0
M  V30 34 H 1.616653 -5.899013 0.839204 0
M  V30 35 H 3.242019 -3.437736 0.849832 0
M  V30 36 H 1.846069 -3.431487 2.882213 0
M  V30 37 H 0.388087 -3.725836 1.857229 0
M  V30 38 H 2.210737 -1.740555 1.604152 0
M  V30 39 H 3.736231 1.803151 1.022609 0
M  V30 40 H 5.006788 3.827897 0.669077 0
M  V30 41 H 1.540414 6.277582 0.577520 0
M  V30 42 H -4.868889 1.956046 -0.122130 0
M  V30 43 H -5.621497 4.568629 0.313338 0
M  V30 44 H -2.080895 3.411475 2.967905 0
M  V30 45 H -4.396016 -0.163991 1.889487 0
M  V30 46 H 1.500773 -2.577102 -0.681915 0
M  V30 47 H 2.463928 -3.931746 -1.363398 0
M  V30 48 H 1.524706 -6.163505 -1.525723 0
M  V30 49 H -0.613089 -7.376040 -2.128150 0
M  V30 50 H -2.676586 -6.191134 -1.865659 0
M  V30 51 H -2.839923 -3.852438 -1.033000 0
M  V30 52 H -0.678639 -2.697587 -0.447745 0
M  V30 END ATOM
M  V30 BEGIN BOND
M  V30 1 1 1 2
M  V30 2 1 2 3
M  V30 3 1 3 4
M  V30 4 1 4 5
M  V30 5 2 5 6
M  V30 6 1 6 7
M  V30 7 1 7 8
M  V30 8 2 8 9
M  V30 9 1 9 10
M  V30 10 2 10 11
M  V30 11 1 11 12
M  V30 12 2 12 13
M  V30 13 1 13 14
M  V30 14 2 7 15
M  V30 15 1 15 16
M  V30 16 1 16 17
M  V30 17 1 17 18
M  V30 18 1 18 19
M  V30 19 2 19 20
M  V30 20 1 20 21
M  V30 21 1 21 22
M  V30 22 2 17 23
M  V30 23 1 23 24
M  V30 24 1 24 25
M  V30 25 1 2 26
M  V30 26 1 26 27
M  V30 27 2 27 28
M  V30 28 1 28 29
M  V30 29 2 29 30
M  V30 30 1 30 31
M  V30 31 2 31 32
M  V30 32 1 25 5
M  V30 33 1 32 27
M  V30 34 1 13 8
M  V30 35 2 25 16
M  V30 36 2 22 18
M  V30 37 1 1 33
M  V30 38 1 1 34
M  V30 39 1 2 35 CFG=3
M  V30 40 1 3 36
M  V30 41 1 3 37
M  V30 42 1 4 38
M  V30 43 1 9 39
M  V30 44 1 10 40
M  V30 45 1 12 41
M  V30 46 1 19 42
M  V30 47 1 20 43
M  V30 48 1 22 44
M  V30 49 1 23 45
M  V30 50 1 26 46
M  V30 51 1 26 47
M  V30 52 1 28 48
M  V30 53 1 29 49
M  V30 54 1 30 50
M  V30 55 1 31 51
M  V30 56 1 32 52
M  V30 END BOND
M  V30 END CTAB
M  END
>  <Dataset>  (210) 
ChEMBL_Kinases

>  <Ligand_Instance>  (210) 
nan

>  <PDB_ID>  (210) 
nan

>  <Standardized_SMILES>  (210) 
N[C@H](CNc1nc(-c2ccncc2F)nc2c(-c3ccsc3)csc12)Cc1ccccc1

>  <Name>  (210) 
nan

>  <Pocket>  (210) 
nan

>  <ATP_Site>  (210) 
nan

>  <Peripheral>  (210) 
nan

>  <Num_H_Atoms_ProtBoundConf>  (210) 
nan

>  <Num_Resolved_Atoms>  (210) 
nan

>  <Num_Not_Resolved_Atoms>  (210) 
nan

$$$$
CHEMBL3731209
     RDKit          3D

  0  0  0  0  0  0  0  0  0  0999 V3000
M  V30 BEGIN CTAB
M  V30 COUNTS 45 48 0 0 0
M  V30 BEGIN ATOM
M  V30 1 N -0.320169 -2.299011 2.579929 0
M  V30 2 C 0.793368 -2.546561 1.728957 0 CFG=2
M  V30 3 C 0.682051 -1.728423 0.469230 0
M  V30 4 N 0.728552 -0.317206 0.542849 0
M  V30 5 C 0.392508 0.684340 1.379391 0
M  V30 6 N 0.798820 1.615801 0.360832 0
M  V30 7 C 0.746319 2.939566 0.485458 0
M  V30 8 C 1.147138 3.939994 -0.574258 0
M  V30 9 C 1.531461 3.319200 -1.750008 0
M  V30 10 C 1.902548 4.180754 -2.746433 0
M  V30 11 N 1.891917 5.502892 -2.587727 0
M  V30 12 C 1.514810 6.081824 -1.439153 0
M  V30 13 C 1.130122 5.272944 -0.397968 0
M  V30 14 Cl 0.609869 5.912400 1.156312 0
M  V30 15 N 0.304798 3.554243 1.586160 0
M  V30 16 C -0.119208 2.873413 2.650738 0
M  V30 17 C -0.596199 3.105967 3.858424 0
M  V30 18 C -0.928235 1.978006 4.709349 0
M  V30 19 S -0.461755 0.603142 3.536764 0
M  V30 20 C 0.068844 1.649311 2.185149 0
M  V30 21 C 1.132590 -3.982513 1.504773 0
M  V30 22 C 0.085097 -4.803101 0.882289 0
M  V30 23 C -0.924724 -5.504520 1.558048 0
M  V30 24 C -1.857508 -6.260697 0.848998 0
M  V30 25 C -1.801760 -6.326677 -0.508601 0
M  V30 26 C -0.836105 -5.664745 -1.271545 0
M  V30 27 C 0.050290 -4.938707 -0.490341 0
M  V30 28 H -1.232817 -2.607392 2.178793 0
M  V30 29 H -0.218791 -2.598236 3.569859 0
M  V30 30 H 1.702240 -2.122410 2.278248 0
M  V30 31 H 1.374890 -2.153763 -0.297759 0
M  V30 32 H -0.334830 -2.019233 0.039161 0
M  V30 33 H 1.148104 -0.388872 -0.396832 0
M  V30 34 H 1.569580 2.246289 -1.977898 0
M  V30 35 H 2.217995 3.804760 -3.698707 0
M  V30 36 H 1.472857 7.155716 -1.216197 0
M  V30 37 H -0.718366 4.126122 4.154832 0
M  V30 38 H -1.332354 2.021590 5.769946 0
M  V30 39 H 1.402690 -4.380230 2.533349 0
M  V30 40 H 2.096186 -4.095232 0.944195 0
M  V30 41 H -0.922665 -5.419102 2.627183 0
M  V30 42 H -2.612709 -6.778024 1.423960 0
M  V30 43 H -2.531337 -6.918218 -1.083553 0
M  V30 44 H -0.737923 -5.680057 -2.345370 0
M  V30 45 H 0.820643 -4.408347 -1.040679 0
M  V30 END ATOM
M  V30 BEGIN BOND
M  V30 1 1 1 2
M  V30 2 1 2 3
M  V30 3 1 3 4
M  V30 4 1 4 5
M  V30 5 2 5 6
M  V30 6 1 6 7
M  V30 7 1 7 8
M  V30 8 2 8 9
M  V30 9 1 9 10
M  V30 10 2 10 11
M  V30 11 1 11 12
M  V30 12 2 12 13
M  V30 13 1 13 14
M  V30 14 2 7 15
M  V30 15 1 15 16
M  V30 16 1 16 17
M  V30 17 2 17 18
M  V30 18 1 18 19
M  V30 19 1 19 20
M  V30 20 1 2 21
M  V30 21 1 21 22
M  V30 22 2 22 23
M  V30 23 1 23 24
M  V30 24 2 24 25
M  V30 25 1 25 26
M  V30 26 2 26 27
M  V30 27 1 20 5
M  V30 28 1 27 22
M  V30 29 1 13 8
M  V30 30 2 20 16
M  V30 31 1 1 28
M  V30 32 1 1 29
M  V30 33 1 2 30 CFG=1
M  V30 34 1 3 31
M  V30 35 1 3 32
M  V30 36 1 4 33
M  V30 37 1 9 34
M  V30 38 1 10 35
M  V30 39 1 12 36
M  V30 40 1 17 37
M  V30 41 1 18 38
M  V30 42 1 21 39
M  V30 43 1 21 40
M  V30 44 1 23 41
M  V30 45 1 24 42
M  V30 46 1 25 43
M  V30 47 1 26 44
M  V30 48 1 27 45
M  V30 END BOND
M  V30 END CTAB
M  END
>  <Dataset>  (211) 
ChEMBL_Kinases

>  <Ligand_Instance>  (211) 
nan

>  <PDB_ID>  (211) 
nan

>  <Standardized_SMILES>  (211) 
N[C@H](CNc1nc(-c2ccncc2Cl)nc2ccsc12)Cc1ccccc1

>  <Name>  (211) 
nan

>  <Pocket>  (211) 
nan

>  <ATP_Site>  (211) 
nan

>  <Peripheral>  (211) 
nan

>  <Num_H_Atoms_ProtBoundConf>  (211) 
nan

>  <Num_Resolved_Atoms>  (211) 
nan

>  <Num_Not_Resolved_Atoms>  (211) 
nan

$$$$
CHEMBL3731205
     RDKit          3D

  0  0  0  0  0  0  0  0  0  0999 V3000
M  V30 BEGIN CTAB
M  V30 COUNTS 56 60 0 0 0
M  V30 BEGIN ATOM
M  V30 1 N 0.428279 -3.875285 2.684455 0
M  V30 2 C 0.790139 -3.571315 1.300620 0 CFG=2
M  V30 3 C 1.073600 -2.104492 1.122477 0
M  V30 4 N -0.042910 -1.292232 1.448212 0
M  V30 5 C 0.074886 0.140608 1.325535 0
M  V30 6 N 1.263303 0.604510 0.928525 0
M  V30 7 C 1.651913 1.843480 0.749640 0
M  V30 8 C 2.982298 2.179892 0.313409 0
M  V30 9 C 3.336373 3.499489 0.141849 0
M  V30 10 C 4.604566 3.871908 -0.276303 0
M  V30 11 N 5.495330 2.914198 -0.515032 0
M  V30 12 C 5.179784 1.600987 -0.355956 0
M  V30 13 C 3.915212 1.224035 0.061257 0
M  V30 14 N 0.711727 2.762268 1.005768 0
M  V30 15 C -0.499377 2.339280 1.407785 0
M  V30 16 S -1.911318 3.332395 1.811643 0
M  V30 17 C -3.005073 1.963634 2.218824 0
M  V30 18 C -2.190302 0.796594 2.011872 0
M  V30 19 C -0.915826 1.049551 1.597323 0
M  V30 20 C -3.112261 -0.291346 2.347762 0
M  V30 21 C -4.337985 -0.150917 1.441406 0
M  V30 22 C -5.243511 0.948210 1.959390 0
M  V30 23 C -4.419847 2.012099 2.666464 0
M  V30 24 C -0.325069 -4.063037 0.415997 0
M  V30 25 C -0.085450 -3.816098 -1.018570 0
M  V30 26 C 0.577051 -4.778142 -1.787129 0
M  V30 27 C 0.850867 -4.652687 -3.121741 0
M  V30 28 C 0.455310 -3.506099 -3.775299 0
M  V30 29 O 0.730128 -3.374038 -5.126738 0
M  V30 30 C -0.210241 -2.513361 -3.054265 0
M  V30 31 C -0.465331 -2.685336 -1.703801 0
M  V30 32 H -0.109551 -4.783276 2.707789 0
M  V30 33 H 1.300546 -4.025336 3.228670 0
M  V30 34 H 1.676084 -4.197167 1.049489 0
M  V30 35 H 1.513477 -1.881575 0.126096 0
M  V30 36 H 1.898159 -1.851971 1.851784 0
M  V30 37 H -0.777940 -1.939882 1.737228 0
M  V30 38 H 2.571652 4.252940 0.349893 0
M  V30 39 H 4.774006 4.936526 -0.377930 0
M  V30 40 H 5.978776 0.888715 -0.576702 0
M  V30 41 H 3.720777 0.161636 0.170692 0
M  V30 42 H -2.738132 -1.294580 2.138825 0
M  V30 43 H -3.478662 -0.203387 3.405441 0
M  V30 44 H -4.860406 -1.116548 1.411341 0
M  V30 45 H -3.956765 0.069078 0.429313 0
M  V30 46 H -5.819293 1.335155 1.101828 0
M  V30 47 H -5.960533 0.536456 2.691063 0
M  V30 48 H -4.485421 1.841245 3.752459 0
M  V30 49 H -4.819452 2.997185 2.361088 0
M  V30 50 H -0.351108 -5.183792 0.555860 0
M  V30 51 H -1.283669 -3.670242 0.798140 0
M  V30 52 H 0.887648 -5.679519 -1.271906 0
M  V30 53 H 1.367256 -5.445961 -3.636431 0
M  V30 54 H 1.715998 -3.404688 -5.422917 0
M  V30 55 H -0.515698 -1.628497 -3.557884 0
M  V30 56 H -0.980509 -1.927134 -1.125763 0
M  V30 END ATOM
M  V30 BEGIN BOND
M  V30 1 1 1 2
M  V30 2 1 2 3
M  V30 3 1 3 4
M  V30 4 1 4 5
M  V30 5 2 5 6
M  V30 6 1 6 7
M  V30 7 1 7 8
M  V30 8 2 8 9
M  V30 9 1 9 10
M  V30 10 2 10 11
M  V30 11 1 11 12
M  V30 12 2 12 13
M  V30 13 2 7 14
M  V30 14 1 14 15
M  V30 15 1 15 16
M  V30 16 1 16 17
M  V30 17 2 17 18
M  V30 18 1 18 19
M  V30 19 1 18 20
M  V30 20 1 20 21
M  V30 21 1 21 22
M  V30 22 1 22 23
M  V30 23 1 2 24
M  V30 24 1 24 25
M  V30 25 2 25 26
M  V30 26 1 26 27
M  V30 27 2 27 28
M  V30 28 1 28 29
M  V30 29 1 28 30
M  V30 30 2 30 31
M  V30 31 1 19 5
M  V30 32 1 31 25
M  V30 33 1 13 8
M  V30 34 2 19 15
M  V30 35 1 23 17
M  V30 36 1 1 32
M  V30 37 1 1 33
M  V30 38 1 2 34 CFG=3
M  V30 39 1 3 35
M  V30 40 1 3 36
M  V30 41 1 4 37
M  V30 42 1 9 38
M  V30 43 1 10 39
M  V30 44 1 12 40
M  V30 45 1 13 41
M  V30 46 1 20 42
M  V30 47 1 20 43
M  V30 48 1 21 44
M  V30 49 1 21 45
M  V30 50 1 22 46
M  V30 51 1 22 47
M  V30 52 1 23 48
M  V30 53 1 23 49
M  V30 54 1 24 50
M  V30 55 1 24 51
M  V30 56 1 26 52
M  V30 57 1 27 53
M  V30 58 1 29 54
M  V30 59 1 30 55
M  V30 60 1 31 56
M  V30 END BOND
M  V30 END CTAB
M  END
>  <Dataset>  (212) 
ChEMBL_Kinases

>  <Ligand_Instance>  (212) 
nan

>  <PDB_ID>  (212) 
nan

>  <Standardized_SMILES>  (212) 
N[C@H](CNc1nc(-c2ccncc2)nc2sc3c(c12)CCCC3)Cc1ccc(O)cc1

>  <Name>  (212) 
nan

>  <Pocket>  (212) 
nan

>  <ATP_Site>  (212) 
nan

>  <Peripheral>  (212) 
nan

>  <Num_H_Atoms_ProtBoundConf>  (212) 
nan

>  <Num_Resolved_Atoms>  (212) 
nan

>  <Num_Not_Resolved_Atoms>  (212) 
nan

$$$$
CHEMBL3731192
     RDKit          3D

  0  0  0  0  0  0  0  0  0  0999 V3000
M  V30 BEGIN CTAB
M  V30 COUNTS 41 44 0 0 0
M  V30 BEGIN ATOM
M  V30 1 N 3.186388 -5.558575 2.859874 0
M  V30 2 C 2.368619 -5.544505 1.712610 0
M  V30 3 O 1.870546 -6.671069 1.432337 0
M  V30 4 C 2.115198 -4.360227 0.922088 0
M  V30 5 C 2.678652 -3.125061 1.253633 0
M  V30 6 C 2.416549 -2.014134 0.478026 0
M  V30 7 C 1.602139 -2.087947 -0.632150 0
M  V30 8 C 1.260470 -0.978523 -1.518307 0
M  V30 9 C 1.207621 -0.850820 -2.892345 0
M  V30 10 N 0.830552 0.396275 -3.230095 0
M  V30 11 C 0.646696 1.052054 -2.050675 0
M  V30 12 C 0.248926 2.385478 -1.903648 0
M  V30 13 C 0.144257 2.782267 -0.571301 0
M  V30 14 C 0.402709 1.957264 0.499515 0
M  V30 15 C 0.275539 2.431829 1.906206 0
M  V30 16 C -1.125502 2.159628 2.325388 0
M  V30 17 C -1.349265 0.923597 2.905295 0
M  V30 18 C -2.620722 0.551099 3.339676 0
M  V30 19 C -3.659782 1.472116 3.167565 0
M  V30 20 F -4.895587 1.109243 3.590113 0
M  V30 21 C -3.416788 2.700038 2.587000 0
M  V30 22 C -2.142958 3.075013 2.151042 0
M  V30 23 N 0.770185 0.719461 0.196532 0
M  V30 24 N 0.904982 0.226037 -1.024050 0
M  V30 25 C 1.050909 -3.334231 -0.942527 0
M  V30 26 C 1.302059 -4.455039 -0.178573 0
M  V30 27 H 4.086087 -5.862503 3.253510 0
M  V30 28 H 2.614784 -5.041915 3.584116 0
M  V30 29 H 3.330314 -3.026073 2.127237 0
M  V30 30 H 2.831394 -1.028500 0.694023 0
M  V30 31 H 1.451410 -1.687721 -3.536489 0
M  V30 32 H 0.047375 3.028990 -2.735287 0
M  V30 33 H -0.164972 3.820846 -0.401644 0
M  V30 34 H 0.489924 3.523999 1.927025 0
M  V30 35 H 1.000962 1.857517 2.516180 0
M  V30 36 H -0.553385 0.210928 3.040227 0
M  V30 37 H -2.750274 -0.423533 3.786836 0
M  V30 38 H -4.235168 3.394027 2.464956 0
M  V30 39 H -1.935778 4.031245 1.695065 0
M  V30 40 H 0.397361 -3.438817 -1.816695 0
M  V30 41 H 0.870406 -5.415807 -0.427206 0
M  V30 END ATOM
M  V30 BEGIN BOND
M  V30 1 1 1 2
M  V30 2 2 2 3
M  V30 3 1 2 4
M  V30 4 2 4 5
M  V30 5 1 5 6
M  V30 6 2 6 7
M  V30 7 1 7 8
M  V30 8 2 8 9
M  V30 9 1 9 10
M  V30 10 2 10 11
M  V30 11 1 11 12
M  V30 12 2 12 13
M  V30 13 1 13 14
M  V30 14 1 14 15
M  V30 15 1 15 16
M  V30 16 2 16 17
M  V30 17 1 17 18
M  V30 18 2 18 19
M  V30 19 1 19 20
M  V30 20 1 19 21
M  V30 21 2 21 22
M  V30 22 2 14 23
M  V30 23 1 23 24
M  V30 24 1 7 25
M  V30 25 2 25 26
M  V30 26 1 26 4
M  V30 27 1 24 8
M  V30 28 1 24 11
M  V30 29 1 22 16
M  V30 30 1 1 27
M  V30 31 1 1 28
M  V30 32 1 5 29
M  V30 33 1 6 30
M  V30 34 1 9 31
M  V30 35 1 12 32
M  V30 36 1 13 33
M  V30 37 1 15 34
M  V30 38 1 15 35
M  V30 39 1 17 36
M  V30 40 1 18 37
M  V30 41 1 21 38
M  V30 42 1 22 39
M  V30 43 1 25 40
M  V30 44 1 26 41
M  V30 END BOND
M  V30 END CTAB
M  END
>  <Dataset>  (213) 
ChEMBL_Kinases

>  <Ligand_Instance>  (213) 
nan

>  <PDB_ID>  (213) 
nan

>  <Standardized_SMILES>  (213) 
NC(=O)c1ccc(-c2cnc3ccc(Cc4ccc(F)cc4)nn23)cc1

>  <Name>  (213) 
nan

>  <Pocket>  (213) 
nan

>  <ATP_Site>  (213) 
nan

>  <Peripheral>  (213) 
nan

>  <Num_H_Atoms_ProtBoundConf>  (213) 
nan

>  <Num_Resolved_Atoms>  (213) 
nan

>  <Num_Not_Resolved_Atoms>  (213) 
nan

$$$$
CHEMBL3731185
     RDKit          3D

  0  0  0  0  0  0  0  0  0  0999 V3000
M  V30 BEGIN CTAB
M  V30 COUNTS 31 32 0 0 0
M  V30 BEGIN ATOM
M  V30 1 O -1.855504 -1.667461 2.575459 0
M  V30 2 C -0.612898 -1.650712 2.265934 0
M  V30 3 C -0.044645 -2.975860 2.464775 0
M  V30 4 N 1.333288 -3.143939 2.157281 0
M  V30 5 C 1.915331 -2.998468 0.880941 0
M  V30 6 C 3.278461 -3.158395 0.601772 0
M  V30 7 C 3.804572 -3.013086 -0.665030 0
M  V30 8 C 2.986779 -2.697489 -1.727239 0
M  V30 9 C 1.645627 -2.524577 -1.539700 0
M  V30 10 Cl 0.563104 -2.124302 -2.847857 0
M  V30 11 C 1.177154 -2.681217 -0.259115 0
M  V30 12 N -0.069700 -0.426079 1.820347 0
M  V30 13 N -0.863310 0.722455 1.720130 0
M  V30 14 C -1.043181 1.345008 0.601405 0
M  V30 15 C -1.884928 2.537527 0.572784 0
M  V30 16 C -2.532213 3.089215 1.656207 0
M  V30 17 C -3.194675 4.188252 1.147955 0
M  V30 18 O -2.960887 4.290366 -0.155289 0
M  V30 19 C -2.171392 3.306412 -0.535514 0
M  V30 20 H -0.228889 -3.362157 3.508812 0
M  V30 21 H -0.636828 -3.684534 1.811451 0
M  V30 22 H 2.028232 -3.400416 2.912761 0
M  V30 23 H 3.924239 -3.407398 1.439362 0
M  V30 24 H 4.869681 -3.150876 -0.811322 0
M  V30 25 H 3.383122 -2.580514 -2.723629 0
M  V30 26 H 0.105994 -2.543404 -0.107743 0
M  V30 27 H 0.934068 -0.501710 1.598721 0
M  V30 28 H -0.575190 0.987510 -0.307051 0
M  V30 29 H -2.516236 2.724993 2.690370 0
M  V30 30 H -3.818989 4.882149 1.703373 0
M  V30 31 H -1.785550 3.094396 -1.534890 0
M  V30 END ATOM
M  V30 BEGIN BOND
M  V30 1 2 1 2
M  V30 2 1 2 3
M  V30 3 1 3 4
M  V30 4 1 4 5
M  V30 5 2 5 6
M  V30 6 1 6 7
M  V30 7 2 7 8
M  V30 8 1 8 9
M  V30 9 1 9 10
M  V30 10 2 9 11
M  V30 11 1 2 12
M  V30 12 1 12 13
M  V30 13 2 13 14
M  V30 14 1 14 15
M  V30 15 1 15 16
M  V30 16 2 16 17
M  V30 17 1 17 18
M  V30 18 1 18 19
M  V30 19 1 11 5
M  V30 20 2 19 15
M  V30 21 1 3 20
M  V30 22 1 3 21
M  V30 23 1 4 22
M  V30 24 1 6 23
M  V30 25 1 7 24
M  V30 26 1 8 25
M  V30 27 1 11 26
M  V30 28 1 12 27
M  V30 29 1 14 28
M  V30 30 1 16 29
M  V30 31 1 17 30
M  V30 32 1 19 31
M  V30 END BOND
M  V30 END CTAB
M  END
>  <Dataset>  (214) 
ChEMBL_Kinases

>  <Ligand_Instance>  (214) 
nan

>  <PDB_ID>  (214) 
nan

>  <Standardized_SMILES>  (214) 
O=C(CNc1cccc(Cl)c1)N/N=C/c1ccoc1

>  <Name>  (214) 
nan

>  <Pocket>  (214) 
nan

>  <ATP_Site>  (214) 
nan

>  <Peripheral>  (214) 
nan

>  <Num_H_Atoms_ProtBoundConf>  (214) 
nan

>  <Num_Resolved_Atoms>  (214) 
nan

>  <Num_Not_Resolved_Atoms>  (214) 
nan

$$$$
CHEMBL3731177
     RDKit          3D

  0  0  0  0  0  0  0  0  0  0999 V3000
M  V30 BEGIN CTAB
M  V30 COUNTS 75 79 0 0 0
M  V30 BEGIN ATOM
M  V30 1 C 6.258661 0.157247 1.290683 0
M  V30 2 O 4.992294 -0.218183 0.753382 0
M  V30 3 C 4.722608 -1.587672 0.756859 0
M  V30 4 C 5.526501 -2.612605 1.213410 0
M  V30 5 C 5.126985 -3.910224 1.151697 0
M  V30 6 C 3.896925 -4.229657 0.625687 0
M  V30 7 C 3.078851 -3.239478 0.165914 0
M  V30 8 O 1.856947 -3.659415 -0.347226 0
M  V30 9 C 1.417658 -4.981202 -0.424700 0
M  V30 10 C 0.034178 -5.034213 -1.044215 0
M  V30 11 C 0.081034 -4.444861 -2.435091 0
M  V30 12 C -0.919056 -4.179832 -0.224477 0
M  V30 13 C 3.485281 -1.900420 0.226956 0
M  V30 14 C 2.474970 -0.984824 -0.312725 0
M  V30 15 C 2.582912 -0.723088 -1.658533 0
M  V30 16 C 3.478684 -1.145850 -2.697892 0
M  V30 17 S 1.161328 0.462711 -2.018635 0
M  V30 18 C 0.613407 0.429721 -0.244524 0
M  V30 19 C -0.459001 1.115921 0.297410 0
M  V30 20 N -1.245958 1.931785 -0.517003 0
M  V30 21 C -2.364280 2.645167 0.052053 0
M  V30 22 C -3.420078 1.780586 0.655120 0 CFG=1
M  V30 23 N -4.453993 2.667506 1.170746 0
M  V30 24 C -4.066299 0.852388 -0.343584 0
M  V30 25 C -4.718931 1.567108 -1.447225 0
M  V30 26 C -4.098113 1.918890 -2.640533 0
M  V30 27 C -4.681222 2.581437 -3.679055 0
M  V30 28 C -6.019682 2.945056 -3.546391 0
M  V30 29 C -6.691670 2.618342 -2.372278 0
M  V30 30 C -6.040298 1.937728 -1.341573 0
M  V30 31 N -0.678481 0.947571 1.614017 0
M  V30 32 C 0.176439 0.117416 2.287421 0
M  V30 33 C 0.023034 -0.136464 3.739330 0
M  V30 34 C -1.025125 0.511762 4.354625 0
M  V30 35 C -1.149048 0.257091 5.720803 0
M  V30 36 N -0.357328 -0.541954 6.464067 0
M  V30 37 C 0.668555 -1.163464 5.811376 0
M  V30 38 C 0.860208 -0.964064 4.457626 0
M  V30 39 N 1.200900 -0.520735 1.701879 0
M  V30 40 C 1.483677 -0.402494 0.390802 0
M  V30 41 H 7.036638 -0.269023 0.596145 0
M  V30 42 H 6.427752 1.239019 1.305673 0
M  V30 43 H 6.413508 -0.330811 2.270023 0
M  V30 44 H 6.481687 -2.264954 1.612740 0
M  V30 45 H 5.803571 -4.683414 1.527734 0
M  V30 46 H 3.625457 -5.270338 0.598299 0
M  V30 47 H 2.126995 -5.528990 -1.072823 0
M  V30 48 H 1.398354 -5.413926 0.589599 0
M  V30 49 H -0.291524 -6.072855 -1.117077 0
M  V30 50 H -0.124136 -3.350758 -2.374884 0
M  V30 51 H 1.074856 -4.592840 -2.857704 0
M  V30 52 H -0.701106 -4.884350 -3.088684 0
M  V30 53 H -0.638039 -4.266413 0.846701 0
M  V30 54 H -1.962706 -4.523929 -0.432935 0
M  V30 55 H -0.840722 -3.111373 -0.494482 0
M  V30 56 H 3.086624 -0.840974 -3.689205 0
M  V30 57 H 3.647571 -2.237472 -2.775732 0
M  V30 58 H 4.485424 -0.689185 -2.600851 0
M  V30 59 H -1.046906 2.041282 -1.533604 0
M  V30 60 H -2.834057 3.341243 -0.673133 0
M  V30 61 H -1.938655 3.265284 0.875303 0
M  V30 62 H -3.030358 1.212312 1.501781 0
M  V30 63 H -3.983147 3.497870 1.592753 0
M  V30 64 H -5.044322 2.218669 1.904173 0
M  V30 65 H -4.814731 0.222773 0.178994 0
M  V30 66 H -3.290244 0.129109 -0.701866 0
M  V30 67 H -3.066821 1.650915 -2.769336 0
M  V30 68 H -4.130099 2.819429 -4.576747 0
M  V30 69 H -6.512220 3.468950 -4.346018 0
M  V30 70 H -7.733466 2.905296 -2.277499 0
M  V30 71 H -6.609798 1.704924 -0.442391 0
M  V30 72 H -1.720890 1.168941 3.877312 0
M  V30 73 H -1.969523 0.754440 6.241477 0
M  V30 74 H 1.358140 -1.824594 6.322986 0
M  V30 75 H 1.659535 -1.430107 3.877922 0
M  V30 END ATOM
M  V30 BEGIN BOND
M  V30 1 1 1 2
M  V30 2 1 2 3
M  V30 3 2 3 4
M  V30 4 1 4 5
M  V30 5 2 5 6
M  V30 6 1 6 7
M  V30 7 1 7 8
M  V30 8 1 8 9
M  V30 9 1 9 10
M  V30 10 1 10 11
M  V30 11 1 10 12
M  V30 12 2 7 13
M  V30 13 1 13 14
M  V30 14 2 14 15
M  V30 15 1 15 16
M  V30 16 1 15 17
M  V30 17 1 17 18
M  V30 18 2 18 19
M  V30 19 1 19 20
M  V30 20 1 20 21
M  V30 21 1 21 22
M  V30 22 1 22 23
M  V30 23 1 22 24
M  V30 24 1 24 25
M  V30 25 2 25 26
M  V30 26 1 26 27
M  V30 27 2 27 28
M  V30 28 1 28 29
M  V30 29 2 29 30
M  V30 30 1 19 31
M  V30 31 2 31 32
M  V30 32 1 32 33
M  V30 33 2 33 34
M  V30 34 1 34 35
M  V30 35 2 35 36
M  V30 36 1 36 37
M  V30 37 2 37 38
M  V30 38 1 32 39
M  V30 39 2 39 40
M  V30 40 1 13 3
M  V30 41 1 40 14
M  V30 42 1 40 18
M  V30 43 1 30 25
M  V30 44 1 38 33
M  V30 45 1 1 41
M  V30 46 1 1 42
M  V30 47 1 1 43
M  V30 48 1 4 44
M  V30 49 1 5 45
M  V30 50 1 6 46
M  V30 51 1 9 47
M  V30 52 1 9 48
M  V30 53 1 10 49
M  V30 54 1 11 50
M  V30 55 1 11 51
M  V30 56 1 11 52
M  V30 57 1 12 53
M  V30 58 1 12 54
M  V30 59 1 12 55
M  V30 60 1 16 56
M  V30 61 1 16 57
M  V30 62 1 16 58
M  V30 63 1 20 59
M  V30 64 1 21 60
M  V30 65 1 21 61
M  V30 66 1 22 62 CFG=1
M  V30 67 1 23 63
M  V30 68 1 23 64
M  V30 69 1 24 65
M  V30 70 1 24 66
M  V30 71 1 26 67
M  V30 72 1 27 68
M  V30 73 1 28 69
M  V30 74 1 29 70
M  V30 75 1 30 71
M  V30 76 1 34 72
M  V30 77 1 35 73
M  V30 78 1 37 74
M  V30 79 1 38 75
M  V30 END BOND
M  V30 END CTAB
M  END
>  <Dataset>  (215) 
ChEMBL_Kinases

>  <Ligand_Instance>  (215) 
nan

>  <PDB_ID>  (215) 
nan

>  <Standardized_SMILES>  (215) 
COc1cccc(OCC(C)C)c1-c1c(C)sc2c(NC[C@@H](N)Cc3ccccc3)nc(-c3ccncc3)nc12

>  <Name>  (215) 
nan

>  <Pocket>  (215) 
nan

>  <ATP_Site>  (215) 
nan

>  <Peripheral>  (215) 
nan

>  <Num_H_Atoms_ProtBoundConf>  (215) 
nan

>  <Num_Resolved_Atoms>  (215) 
nan

>  <Num_Not_Resolved_Atoms>  (215) 
nan

$$$$
CHEMBL3703705
     RDKit          3D

  0  0  0  0  0  0  0  0  0  0999 V3000
M  V30 BEGIN CTAB
M  V30 COUNTS 64 68 0 0 0
M  V30 BEGIN ATOM
M  V30 1 C 1.697831 4.105796 5.773989 0
M  V30 2 O 2.213018 3.714205 4.502571 0
M  V30 3 C 2.432593 2.404087 4.145648 0
M  V30 4 C 2.167631 1.355790 5.000688 0
M  V30 5 C 2.382723 0.022800 4.658949 0
M  V30 6 C 2.879510 -0.283202 3.422271 0
M  V30 7 C 3.149545 0.742335 2.557947 0
M  V30 8 F 3.651182 0.457346 1.311291 0
M  V30 9 C 2.932558 2.078513 2.904020 0
M  V30 10 C 3.250634 3.139269 1.906753 0
M  V30 11 N 2.073842 3.644870 1.324032 0
M  V30 12 C 2.177014 4.655077 0.341244 0
M  V30 13 C 2.170324 4.212614 -1.073280 0
M  V30 14 C 1.857205 2.774077 -1.333109 0
M  V30 15 C 1.053822 2.081481 -0.283621 0 CFG=2
M  V30 16 N -0.295501 1.899373 -0.793433 0
M  V30 17 C -0.821472 0.598252 -0.983705 0
M  V30 18 O -0.092234 -0.412969 -0.701267 0
M  V30 19 N -2.122167 0.292413 -1.473334 0
M  V30 20 C -2.566453 -1.053099 -1.633790 0
M  V30 21 C -3.838939 -1.296331 -2.110035 0
M  V30 22 C -4.187148 -2.627548 -2.236137 0
M  V30 23 N -5.287898 -3.274400 -2.646612 0
M  V30 24 N -5.122864 -4.596898 -2.580317 0
M  V30 25 C -3.881761 -4.891383 -2.114067 0
M  V30 26 C -3.273734 -6.198105 -1.882125 0
M  V30 27 C -3.428570 -7.175299 -2.871950 0
M  V30 28 C -2.874571 -8.436248 -2.710136 0
M  V30 29 N -2.177267 -8.739857 -1.594635 0
M  V30 30 C -2.005940 -7.815757 -0.611113 0
M  V30 31 C -1.236533 -8.162449 0.610942 0
M  V30 32 C -2.554710 -6.559884 -0.766292 0
M  V30 33 C -3.314498 -3.645947 -1.905561 0
M  V30 34 C -2.056567 -3.350675 -1.434893 0
M  V30 35 N -1.704628 -2.058031 -1.307248 0
M  V30 36 C 1.010176 2.765899 1.041568 0
M  V30 37 H 0.925917 3.378074 6.112826 0
M  V30 38 H 1.149563 5.084090 5.680107 0
M  V30 39 H 2.534859 4.150183 6.481962 0
M  V30 40 H 1.773139 1.523715 5.995116 0
M  V30 41 H 2.162445 -0.757939 5.354261 0
M  V30 42 H 3.049375 -1.325853 3.149137 0
M  V30 43 H 3.723781 3.963098 2.517721 0
M  V30 44 H 3.981904 2.845298 1.155673 0
M  V30 45 H 3.113850 5.247353 0.566845 0
M  V30 46 H 1.361534 5.411841 0.547497 0
M  V30 47 H 3.141003 4.497166 -1.534286 0
M  V30 48 H 1.433259 4.874631 -1.620874 0
M  V30 49 H 1.381657 2.711102 -2.337556 0
M  V30 50 H 2.824811 2.234204 -1.455115 0
M  V30 51 H 1.443607 1.054615 -0.117687 0
M  V30 52 H -0.966598 2.658279 -1.053088 0
M  V30 53 H -2.741766 1.087626 -1.712714 0
M  V30 54 H -4.541188 -0.517793 -2.376099 0
M  V30 55 H -6.182821 -2.828411 -2.983623 0
M  V30 56 H -3.991329 -6.916769 -3.762137 0
M  V30 57 H -2.992186 -9.193795 -3.473067 0
M  V30 58 H -0.231688 -8.595837 0.330880 0
M  V30 59 H -1.731167 -8.888090 1.260576 0
M  V30 60 H -0.961752 -7.198854 1.120543 0
M  V30 61 H -2.429037 -5.812964 0.003470 0
M  V30 62 H -1.284676 -4.037270 -1.142829 0
M  V30 63 H 0.072324 3.372205 1.098762 0
M  V30 64 H 0.935498 2.028595 1.872160 0
M  V30 END ATOM
M  V30 BEGIN BOND
M  V30 1 1 1 2
M  V30 2 1 2 3
M  V30 3 2 3 4
M  V30 4 1 4 5
M  V30 5 2 5 6
M  V30 6 1 6 7
M  V30 7 1 7 8
M  V30 8 2 7 9
M  V30 9 1 9 10
M  V30 10 1 10 11
M  V30 11 1 11 12
M  V30 12 1 12 13
M  V30 13 1 13 14
M  V30 14 1 14 15
M  V30 15 1 15 16
M  V30 16 1 16 17
M  V30 17 2 17 18
M  V30 18 1 17 19
M  V30 19 1 19 20
M  V30 20 2 20 21
M  V30 21 1 21 22
M  V30 22 1 22 23
M  V30 23 1 23 24
M  V30 24 2 24 25
M  V30 25 1 25 26
M  V30 26 2 26 27
M  V30 27 1 27 28
M  V30 28 2 28 29
M  V30 29 1 29 30
M  V30 30 1 30 31
M  V30 31 2 30 32
M  V30 32 1 25 33
M  V30 33 1 33 34
M  V30 34 2 34 35
M  V30 35 1 15 36
M  V30 36 1 9 3
M  V30 37 1 36 11
M  V30 38 1 35 20
M  V30 39 2 33 22
M  V30 40 1 32 26
M  V30 41 1 1 37
M  V30 42 1 1 38
M  V30 43 1 1 39
M  V30 44 1 4 40
M  V30 45 1 5 41
M  V30 46 1 6 42
M  V30 47 1 10 43
M  V30 48 1 10 44
M  V30 49 1 12 45
M  V30 50 1 12 46
M  V30 51 1 13 47
M  V30 52 1 13 48
M  V30 53 1 14 49
M  V30 54 1 14 50
M  V30 55 1 15 51 CFG=1
M  V30 56 1 16 52
M  V30 57 1 19 53
M  V30 58 1 21 54
M  V30 59 1 23 55
M  V30 60 1 27 56
M  V30 61 1 28 57
M  V30 62 1 31 58
M  V30 63 1 31 59
M  V30 64 1 31 60
M  V30 65 1 32 61
M  V30 66 1 34 62
M  V30 67 1 36 63
M  V30 68 1 36 64
M  V30 END BOND
M  V30 END CTAB
M  END
>  <Dataset>  (216) 
ChEMBL_Kinases

>  <Ligand_Instance>  (216) 
nan

>  <PDB_ID>  (216) 
nan

>  <Standardized_SMILES>  (216) 
COc1cccc(F)c1CN1CCC[C@H](NC(=O)Nc2cc3[nH]nc(-c4ccnc(C)c4)c3cn2)C1

>  <Name>  (216) 
nan

>  <Pocket>  (216) 
nan

>  <ATP_Site>  (216) 
nan

>  <Peripheral>  (216) 
nan

>  <Num_H_Atoms_ProtBoundConf>  (216) 
nan

>  <Num_Resolved_Atoms>  (216) 
nan

>  <Num_Not_Resolved_Atoms>  (216) 
nan

$$$$
CHEMBL3703706
     RDKit          3D

  0  0  0  0  0  0  0  0  0  0999 V3000
M  V30 BEGIN CTAB
M  V30 COUNTS 64 68 0 0 0
M  V30 BEGIN ATOM
M  V30 1 C 2.570855 -0.147300 3.869280 0
M  V30 2 O 2.914311 1.002318 3.105262 0
M  V30 3 C 3.777247 0.819028 2.035112 0
M  V30 4 C 4.300028 -0.435081 1.702806 0
M  V30 5 C 5.153958 -0.575518 0.632346 0
M  V30 6 C 5.538074 0.473580 -0.156730 0
M  V30 7 C 5.024718 1.725805 0.164000 0
M  V30 8 F 5.321106 2.870918 -0.536693 0
M  V30 9 C 4.168092 1.889688 1.231465 0
M  V30 10 C 3.601341 3.235604 1.596038 0
M  V30 11 N 2.237451 3.361653 1.196177 0
M  V30 12 C 1.611327 4.615558 1.491804 0
M  V30 13 C 0.895066 5.219042 0.330433 0
M  V30 14 C -0.015095 4.305229 -0.416258 0
M  V30 15 C 0.435233 2.893133 -0.279853 0
M  V30 16 N -0.002732 2.045937 -1.383166 0
M  V30 17 C -0.830498 0.928995 -1.137001 0
M  V30 18 O -1.146030 0.733466 0.063461 0
M  V30 19 N -1.252572 0.103966 -2.239193 0
M  V30 20 C -2.084342 -0.981613 -1.807059 0
M  V30 21 C -3.456182 -1.006093 -1.680246 0
M  V30 22 C -4.074736 -2.159155 -1.243048 0
M  V30 23 N -5.392955 -2.401086 -1.047916 0
M  V30 24 N -5.474012 -3.648748 -0.625050 0
M  V30 25 C -4.266029 -4.233593 -0.535152 0
M  V30 26 C -3.919116 -5.588352 -0.112199 0
M  V30 27 C -3.015398 -6.384748 -0.796359 0
M  V30 28 C -2.703539 -7.675223 -0.366738 0
M  V30 29 N -3.329277 -8.123178 0.761871 0
M  V30 30 C -4.207888 -7.350591 1.428216 0
M  V30 31 C -4.850689 -7.924829 2.664104 0
M  V30 32 C -4.545423 -6.067314 1.037527 0
M  V30 33 C -3.318765 -3.294770 -0.930306 0
M  V30 34 C -1.963350 -3.214447 -1.074182 0
M  V30 35 N -1.362645 -2.077672 -1.504585 0
M  V30 36 C 1.929922 2.860141 -0.110147 0
M  V30 37 H 1.874562 -0.812783 3.281348 0
M  V30 38 H 2.063310 0.122927 4.820730 0
M  V30 39 H 3.469457 -0.725029 4.182880 0
M  V30 40 H 4.026503 -1.296651 2.295981 0
M  V30 41 H 5.561027 -1.548957 0.373266 0
M  V30 42 H 6.200525 0.453546 -1.010827 0
M  V30 43 H 4.218099 3.982687 1.051838 0
M  V30 44 H 3.756500 3.324242 2.686504 0
M  V30 45 H 2.410004 5.332597 1.789721 0
M  V30 46 H 0.929348 4.528913 2.359382 0
M  V30 47 H 1.603720 5.743030 -0.364249 0
M  V30 48 H 0.255200 6.050243 0.741285 0
M  V30 49 H -1.070592 4.356388 -0.049257 0
M  V30 50 H -0.085476 4.548630 -1.502432 0
M  V30 51 H 0.012091 2.510617 0.692141 0
M  V30 52 H 0.326442 2.313456 -2.334131 0
M  V30 53 H -0.962007 0.309271 -3.224137 0
M  V30 54 H -3.942487 -0.077948 -1.946599 0
M  V30 55 H -6.169457 -1.717691 -1.207977 0
M  V30 56 H -2.535206 -6.006979 -1.685710 0
M  V30 57 H -2.009241 -8.307964 -0.879260 0
M  V30 58 H -5.307708 -8.913460 2.458864 0
M  V30 59 H -5.671210 -7.260741 3.014502 0
M  V30 60 H -4.133820 -7.949846 3.518865 0
M  V30 61 H -5.257816 -5.507422 1.620569 0
M  V30 62 H -1.378729 -4.086548 -0.834377 0
M  V30 63 H 2.461951 3.451707 -0.878076 0
M  V30 64 H 2.298022 1.803636 -0.165151 0
M  V30 END ATOM
M  V30 BEGIN BOND
M  V30 1 1 1 2
M  V30 2 1 2 3
M  V30 3 2 3 4
M  V30 4 1 4 5
M  V30 5 2 5 6
M  V30 6 1 6 7
M  V30 7 1 7 8
M  V30 8 2 7 9
M  V30 9 1 9 10
M  V30 10 1 10 11
M  V30 11 1 11 12
M  V30 12 1 12 13
M  V30 13 1 13 14
M  V30 14 1 14 15
M  V30 15 1 15 16
M  V30 16 1 16 17
M  V30 17 2 17 18
M  V30 18 1 17 19
M  V30 19 1 19 20
M  V30 20 2 20 21
M  V30 21 1 21 22
M  V30 22 1 22 23
M  V30 23 1 23 24
M  V30 24 2 24 25
M  V30 25 1 25 26
M  V30 26 2 26 27
M  V30 27 1 27 28
M  V30 28 2 28 29
M  V30 29 1 29 30
M  V30 30 1 30 31
M  V30 31 2 30 32
M  V30 32 1 25 33
M  V30 33 1 33 34
M  V30 34 2 34 35
M  V30 35 1 15 36
M  V30 36 1 9 3
M  V30 37 1 36 11
M  V30 38 1 35 20
M  V30 39 2 33 22
M  V30 40 1 32 26
M  V30 41 1 1 37
M  V30 42 1 1 38
M  V30 43 1 1 39
M  V30 44 1 4 40
M  V30 45 1 5 41
M  V30 46 1 6 42
M  V30 47 1 10 43
M  V30 48 1 10 44
M  V30 49 1 12 45
M  V30 50 1 12 46
M  V30 51 1 13 47
M  V30 52 1 13 48
M  V30 53 1 14 49
M  V30 54 1 14 50
M  V30 55 1 15 51
M  V30 56 1 16 52
M  V30 57 1 19 53
M  V30 58 1 21 54
M  V30 59 1 23 55
M  V30 60 1 27 56
M  V30 61 1 28 57
M  V30 62 1 31 58
M  V30 63 1 31 59
M  V30 64 1 31 60
M  V30 65 1 32 61
M  V30 66 1 34 62
M  V30 67 1 36 63
M  V30 68 1 36 64
M  V30 END BOND
M  V30 END CTAB
M  END
>  <Dataset>  (217) 
ChEMBL_Kinases

>  <Ligand_Instance>  (217) 
nan

>  <PDB_ID>  (217) 
nan

>  <Standardized_SMILES>  (217) 
COc1cccc(F)c1CN1CCCC(NC(=O)Nc2cc3[nH]nc(-c4ccnc(C)c4)c3cn2)C1

>  <Name>  (217) 
nan

>  <Pocket>  (217) 
nan

>  <ATP_Site>  (217) 
nan

>  <Peripheral>  (217) 
nan

>  <Num_H_Atoms_ProtBoundConf>  (217) 
nan

>  <Num_Resolved_Atoms>  (217) 
nan

>  <Num_Not_Resolved_Atoms>  (217) 
nan

$$$$
CHEMBL3731407
     RDKit          3D

  0  0  0  0  0  0  0  0  0  0999 V3000
M  V30 BEGIN CTAB
M  V30 COUNTS 53 57 0 0 0
M  V30 BEGIN ATOM
M  V30 1 N -1.806923 -2.915509 0.893993 0
M  V30 2 C -0.517144 -2.771420 0.258752 0 CFG=1
M  V30 3 C 0.230739 -1.566452 0.731352 0
M  V30 4 N -0.479013 -0.334946 0.474768 0
M  V30 5 C 0.118842 0.918710 0.871982 0
M  V30 6 N 1.302096 0.829355 1.490199 0
M  V30 7 C 2.044525 1.821830 1.970748 0
M  V30 8 C 3.324014 1.623369 2.630229 0
M  V30 9 C 4.011909 2.727681 3.092316 0
M  V30 10 C 5.230736 2.590846 3.725354 0
M  V30 11 N 5.720693 1.342328 3.873950 0
M  V30 12 C 5.038773 0.285405 3.419222 0
M  V30 13 C 3.806735 0.338349 2.771755 0
M  V30 14 N 1.512958 3.042315 1.797443 0
M  V30 15 C 0.331638 3.168177 1.183061 0
M  V30 16 S -0.559004 4.637988 0.847688 0
M  V30 17 C -1.955848 3.834998 0.038085 0
M  V30 18 C -1.615862 2.458112 0.090999 0
M  V30 19 C -0.439990 2.162124 0.685138 0
M  V30 20 C -2.771922 1.845925 -0.587124 0
M  V30 21 C -2.956330 2.636359 -1.895277 0
M  V30 22 O -3.608315 3.832524 -1.672558 0
M  V30 23 C -3.161576 4.478456 -0.530039 0
M  V30 24 C 0.284952 -4.032433 0.488037 0
M  V30 25 C -0.427273 -5.201113 -0.094020 0
M  V30 26 C -0.230402 -5.614264 -1.389374 0
M  V30 27 C -0.920066 -6.707841 -1.877770 0
M  V30 28 C -1.816233 -7.418716 -1.107667 0
M  V30 29 C -2.027878 -7.021115 0.192788 0
M  V30 30 C -1.329942 -5.914726 0.686442 0
M  V30 31 H -2.377015 -3.557744 0.306129 0
M  V30 32 H -2.276154 -2.034159 1.138035 0
M  V30 33 H -0.733286 -2.698235 -0.837052 0
M  V30 34 H 1.248333 -1.533822 0.247788 0
M  V30 35 H 0.464647 -1.662796 1.832548 0
M  V30 36 H -1.341944 -0.594534 0.031968 0
M  V30 37 H 3.571822 3.698679 2.945532 0
M  V30 38 H 5.694295 3.512496 4.052510 0
M  V30 39 H 5.516185 -0.666961 3.587442 0
M  V30 40 H 3.300717 -0.550126 2.425095 0
M  V30 41 H -3.717360 1.983327 -0.010052 0
M  V30 42 H -2.643714 0.814473 -0.937251 0
M  V30 43 H -1.938210 2.861768 -2.261644 0
M  V30 44 H -3.451486 2.009366 -2.657281 0
M  V30 45 H -3.957064 4.546872 0.209192 0
M  V30 46 H -2.872185 5.496985 -0.850691 0
M  V30 47 H 0.412756 -4.258416 1.560889 0
M  V30 48 H 1.262521 -3.942182 -0.047407 0
M  V30 49 H 0.467560 -5.072872 -2.013434 0
M  V30 50 H -0.800805 -7.069032 -2.881841 0
M  V30 51 H -2.386477 -8.278314 -1.423265 0
M  V30 52 H -2.705434 -7.500332 0.890341 0
M  V30 53 H -1.486523 -5.594741 1.699581 0
M  V30 END ATOM
M  V30 BEGIN BOND
M  V30 1 1 1 2
M  V30 2 1 2 3
M  V30 3 1 3 4
M  V30 4 1 4 5
M  V30 5 2 5 6
M  V30 6 1 6 7
M  V30 7 1 7 8
M  V30 8 2 8 9
M  V30 9 1 9 10
M  V30 10 2 10 11
M  V30 11 1 11 12
M  V30 12 2 12 13
M  V30 13 2 7 14
M  V30 14 1 14 15
M  V30 15 1 15 16
M  V30 16 1 16 17
M  V30 17 2 17 18
M  V30 18 1 18 19
M  V30 19 1 18 20
M  V30 20 1 20 21
M  V30 21 1 21 22
M  V30 22 1 22 23
M  V30 23 1 2 24
M  V30 24 1 24 25
M  V30 25 2 25 26
M  V30 26 1 26 27
M  V30 27 2 27 28
M  V30 28 1 28 29
M  V30 29 2 29 30
M  V30 30 1 19 5
M  V30 31 1 30 25
M  V30 32 1 13 8
M  V30 33 2 19 15
M  V30 34 1 23 17
M  V30 35 1 1 31
M  V30 36 1 1 32
M  V30 37 1 2 33 CFG=3
M  V30 38 1 3 34
M  V30 39 1 3 35
M  V30 40 1 4 36
M  V30 41 1 9 37
M  V30 42 1 10 38
M  V30 43 1 12 39
M  V30 44 1 13 40
M  V30 45 1 20 41
M  V30 46 1 20 42
M  V30 47 1 21 43
M  V30 48 1 21 44
M  V30 49 1 23 45
M  V30 50 1 23 46
M  V30 51 1 24 47
M  V30 52 1 24 48
M  V30 53 1 26 49
M  V30 54 1 27 50
M  V30 55 1 28 51
M  V30 56 1 29 52
M  V30 57 1 30 53
M  V30 END BOND
M  V30 END CTAB
M  END
>  <Dataset>  (218) 
ChEMBL_Kinases

>  <Ligand_Instance>  (218) 
nan

>  <PDB_ID>  (218) 
nan

>  <Standardized_SMILES>  (218) 
N[C@@H](CNc1nc(-c2ccncc2)nc2sc3c(c12)CCOC3)Cc1ccccc1

>  <Name>  (218) 
nan

>  <Pocket>  (218) 
nan

>  <ATP_Site>  (218) 
nan

>  <Peripheral>  (218) 
nan

>  <Num_H_Atoms_ProtBoundConf>  (218) 
nan

>  <Num_Resolved_Atoms>  (218) 
nan

>  <Num_Not_Resolved_Atoms>  (218) 
nan

$$$$
CHEMBL3731140
     RDKit          3D

  0  0  0  0  0  0  0  0  0  0999 V3000
M  V30 BEGIN CTAB
M  V30 COUNTS 57 62 0 0 0
M  V30 BEGIN ATOM
M  V30 1 C -0.672300 -4.220690 -1.022022 0
M  V30 2 C -0.156246 -4.872539 0.076375 0
M  V30 3 C 0.897084 -4.214542 0.675708 0
M  V30 4 C 1.490148 -3.000119 0.315801 0
M  V30 5 C 2.630645 -2.486800 1.090624 0
M  V30 6 C 2.284177 -1.623544 2.231500 0 CFG=1
M  V30 7 C 1.553632 -0.368402 2.036263 0
M  V30 8 N 0.176251 -0.367731 1.619094 0
M  V30 9 C -0.051205 0.545282 0.544062 0
M  V30 10 N 0.993064 1.308401 0.180359 0
M  V30 11 C 1.120277 2.224399 -0.734779 0
M  V30 12 C 2.353281 2.949175 -0.977335 0
M  V30 13 C 2.683078 4.286278 -0.877651 0
M  V30 14 N 3.987502 4.383626 -1.230605 0
M  V30 15 N 4.468099 3.187896 -1.537924 0
M  V30 16 C 3.485217 2.265992 -1.394115 0
M  V30 17 N 0.000584 2.419352 -1.417220 0
M  V30 18 C -1.081366 1.692511 -1.108143 0
M  V30 19 S -2.655994 1.808394 -1.914607 0
M  V30 20 C -3.414422 0.535121 -0.893354 0
M  V30 21 C -2.414871 0.109848 -0.008754 0
M  V30 22 C -1.217505 0.744294 -0.162150 0
M  V30 23 C -3.091780 -0.904302 0.757352 0
M  V30 24 C -3.679751 -1.962997 -0.183031 0
M  V30 25 C -4.735945 -1.438044 -1.072584 0
M  V30 26 C -4.818755 0.067171 -0.994445 0
M  V30 27 C -0.310836 -1.308751 2.537291 0
M  V30 28 C 0.538599 -1.716511 3.712164 0
M  V30 29 N 1.708584 -2.461110 3.283942 0
M  V30 30 C 0.913222 -2.417881 -0.790210 0
M  V30 31 C -0.144854 -2.999318 -1.458057 0
M  V30 32 H -1.508483 -4.687772 -1.543939 0
M  V30 33 H -0.499541 -5.808367 0.476945 0
M  V30 34 H 1.332613 -4.711458 1.558951 0
M  V30 35 H 3.134468 -3.409342 1.522751 0
M  V30 36 H 3.435147 -2.075090 0.432847 0
M  V30 37 H 3.280264 -1.298379 2.694269 0
M  V30 38 H 2.187933 0.233971 1.290307 0
M  V30 39 H 1.674184 0.240932 2.990654 0
M  V30 40 H 1.938537 5.002831 -0.565058 0
M  V30 41 H 5.446032 2.980004 -1.842962 0
M  V30 42 H 3.652662 1.205630 -1.593850 0
M  V30 43 H -2.726092 -1.325120 1.655783 0
M  V30 44 H -4.076509 -0.423349 1.161517 0
M  V30 45 H -4.109432 -2.801703 0.403423 0
M  V30 46 H -2.905853 -2.428260 -0.826707 0
M  V30 47 H -4.614820 -1.685002 -2.143673 0
M  V30 48 H -5.726850 -1.823262 -0.785103 0
M  V30 49 H -5.288493 0.458117 -1.921727 0
M  V30 50 H -5.359766 0.423841 -0.106227 0
M  V30 51 H -1.143209 -0.757294 3.104797 0
M  V30 52 H -0.701979 -2.238983 2.051251 0
M  V30 53 H 0.847766 -0.891427 4.360840 0
M  V30 54 H -0.112776 -2.360194 4.345745 0
M  V30 55 H 2.303890 -2.523033 4.128661 0
M  V30 56 H 1.344355 -1.464272 -1.109325 0
M  V30 57 H -0.579646 -2.511229 -2.332630 0
M  V30 END ATOM
M  V30 BEGIN BOND
M  V30 1 2 1 2
M  V30 2 1 2 3
M  V30 3 2 3 4
M  V30 4 1 4 5
M  V30 5 1 5 6
M  V30 6 1 6 7
M  V30 7 1 7 8
M  V30 8 1 8 9
M  V30 9 2 9 10
M  V30 10 1 10 11
M  V30 11 1 11 12
M  V30 12 1 12 13
M  V30 13 2 13 14
M  V30 14 1 14 15
M  V30 15 1 15 16
M  V30 16 2 11 17
M  V30 17 1 17 18
M  V30 18 1 18 19
M  V30 19 1 19 20
M  V30 20 2 20 21
M  V30 21 1 21 22
M  V30 22 1 21 23
M  V30 23 1 23 24
M  V30 24 1 24 25
M  V30 25 1 25 26
M  V30 26 1 8 27
M  V30 27 1 27 28
M  V30 28 1 28 29
M  V30 29 1 4 30
M  V30 30 2 30 31
M  V30 31 1 31 1
M  V30 32 1 29 6
M  V30 33 1 22 9
M  V30 34 2 16 12
M  V30 35 2 22 18
M  V30 36 1 26 20
M  V30 37 1 1 32
M  V30 38 1 2 33
M  V30 39 1 3 34
M  V30 40 1 5 35
M  V30 41 1 5 36
M  V30 42 1 6 37 CFG=1
M  V30 43 1 7 38
M  V30 44 1 7 39
M  V30 45 1 13 40
M  V30 46 1 15 41
M  V30 47 1 16 42
M  V30 48 1 23 43
M  V30 49 1 23 44
M  V30 50 1 24 45
M  V30 51 1 24 46
M  V30 52 1 25 47
M  V30 53 1 25 48
M  V30 54 1 26 49
M  V30 55 1 26 50
M  V30 56 1 27 51
M  V30 57 1 27 52
M  V30 58 1 28 53
M  V30 59 1 28 54
M  V30 60 1 29 55
M  V30 61 1 30 56
M  V30 62 1 31 57
M  V30 END BOND
M  V30 END CTAB
M  END
>  <Dataset>  (219) 
ChEMBL_Kinases

>  <Ligand_Instance>  (219) 
nan

>  <PDB_ID>  (219) 
nan

>  <Standardized_SMILES>  (219) 
c1ccc(C[C@H]2CN(c3nc(-c4cn[nH]c4)nc4sc5c(c34)CCCC5)CCN2)cc1

>  <Name>  (219) 
nan

>  <Pocket>  (219) 
nan

>  <ATP_Site>  (219) 
nan

>  <Peripheral>  (219) 
nan

>  <Num_H_Atoms_ProtBoundConf>  (219) 
nan

>  <Num_Resolved_Atoms>  (219) 
nan

>  <Num_Not_Resolved_Atoms>  (219) 
nan

$$$$
CHEMBL3731136
     RDKit          3D

  0  0  0  0  0  0  0  0  0  0999 V3000
M  V30 BEGIN CTAB
M  V30 COUNTS 38 41 0 0 0
M  V30 BEGIN ATOM
M  V30 1 C 1.937466 -2.927930 5.973582 0
M  V30 2 C 2.093924 -2.820238 4.760952 0
M  V30 3 C 2.256524 -2.679554 3.344459 0
M  V30 4 C 3.346170 -3.379314 2.781101 0
M  V30 5 S 3.183347 -2.920975 0.942096 0
M  V30 6 C 1.696968 -1.864084 1.154166 0
M  V30 7 C 0.975674 -1.160434 0.220004 0
M  V30 8 N 1.419445 -1.241576 -1.117552 0
M  V30 9 C 0.647774 -0.500355 -2.054034 0 CFG=2
M  V30 10 C 1.162800 -0.618398 -3.476517 0
M  V30 11 C 0.308688 0.487814 -4.112109 0
M  V30 12 N 0.284739 1.548824 -3.128536 0
M  V30 13 C 0.717474 0.993837 -1.867329 0
M  V30 14 N -0.076326 -0.466615 0.664779 0
M  V30 15 C -0.349795 -0.510890 2.001551 0
M  V30 16 C -1.480721 0.219304 2.564946 0
M  V30 17 C -2.244058 0.945047 1.679336 0
M  V30 18 C -3.318884 1.643510 2.190401 0
M  V30 19 N -3.695487 1.681619 3.492602 0
M  V30 20 C -2.927497 0.961206 4.330589 0
M  V30 21 C -1.838257 0.239789 3.886530 0
M  V30 22 N 0.353753 -1.192316 2.886029 0
M  V30 23 C 1.426279 -1.926381 2.577761 0
M  V30 24 H 1.788415 -3.009212 7.015446 0
M  V30 25 H 4.057854 -3.966983 3.123291 0
M  V30 26 H 2.238759 -1.790641 -1.416596 0
M  V30 27 H -0.431242 -0.756709 -2.086123 0
M  V30 28 H 2.212027 -0.349769 -3.588002 0
M  V30 29 H 0.955016 -1.607771 -3.888746 0
M  V30 30 H 0.657762 0.786332 -5.100111 0
M  V30 31 H -0.735168 0.056325 -4.126165 0
M  V30 32 H -0.682730 1.927812 -3.001553 0
M  V30 33 H 1.746544 1.337871 -1.575124 0
M  V30 34 H 0.051910 1.292540 -1.028523 0
M  V30 35 H -2.036032 0.987062 0.617228 0
M  V30 36 H -3.913227 2.211043 1.487479 0
M  V30 37 H -3.106201 0.895896 5.401808 0
M  V30 38 H -1.208964 -0.346818 4.553063 0
M  V30 END ATOM
M  V30 BEGIN BOND
M  V30 1 3 1 2
M  V30 2 1 2 3
M  V30 3 2 3 4
M  V30 4 1 4 5
M  V30 5 1 5 6
M  V30 6 2 6 7
M  V30 7 1 7 8
M  V30 8 1 8 9
M  V30 9 1 9 10
M  V30 10 1 10 11
M  V30 11 1 11 12
M  V30 12 1 12 13
M  V30 13 1 7 14
M  V30 14 2 14 15
M  V30 15 1 15 16
M  V30 16 2 16 17
M  V30 17 1 17 18
M  V30 18 2 18 19
M  V30 19 1 19 20
M  V30 20 2 20 21
M  V30 21 1 15 22
M  V30 22 2 22 23
M  V30 23 1 23 3
M  V30 24 1 23 6
M  V30 25 1 13 9
M  V30 26 1 21 16
M  V30 27 1 1 24
M  V30 28 1 4 25
M  V30 29 1 8 26
M  V30 30 1 9 27 CFG=3
M  V30 31 1 10 28
M  V30 32 1 10 29
M  V30 33 1 11 30
M  V30 34 1 11 31
M  V30 35 1 12 32
M  V30 36 1 13 33
M  V30 37 1 13 34
M  V30 38 1 17 35
M  V30 39 1 18 36
M  V30 40 1 20 37
M  V30 41 1 21 38
M  V30 END BOND
M  V30 END CTAB
M  END
>  <Dataset>  (220) 
ChEMBL_Kinases

>  <Ligand_Instance>  (220) 
nan

>  <PDB_ID>  (220) 
nan

>  <Standardized_SMILES>  (220) 
C#Cc1csc2c(N[C@@H]3CCNC3)nc(-c3ccncc3)nc12

>  <Name>  (220) 
nan

>  <Pocket>  (220) 
nan

>  <ATP_Site>  (220) 
nan

>  <Peripheral>  (220) 
nan

>  <Num_H_Atoms_ProtBoundConf>  (220) 
nan

>  <Num_Resolved_Atoms>  (220) 
nan

>  <Num_Not_Resolved_Atoms>  (220) 
nan

$$$$
CHEMBL3703707
     RDKit          3D

  0  0  0  0  0  0  0  0  0  0999 V3000
M  V30 BEGIN CTAB
M  V30 COUNTS 48 51 0 0 0
M  V30 BEGIN ATOM
M  V30 1 C -2.583624 -5.895140 1.367063 0
M  V30 2 C -1.941008 -5.773343 0.036978 0
M  V30 3 C -1.450986 -4.566977 -0.431745 0
M  V30 4 C -0.844677 -4.400342 -1.661326 0
M  V30 5 C -0.342862 -3.106564 -2.112728 0
M  V30 6 N -0.533807 -2.581056 -3.349604 0
M  V30 7 N 0.046291 -1.415801 -3.414200 0
M  V30 8 C 0.627682 -1.155071 -2.223483 0
M  V30 9 C 1.353512 -0.058454 -1.804145 0
M  V30 10 C 1.843171 -0.056936 -0.499465 0
M  V30 11 N 2.607301 0.990592 0.090013 0
M  V30 12 C 1.979374 2.046056 0.767949 0
M  V30 13 O 0.725940 1.991205 0.809771 0
M  V30 14 N 2.597407 3.145961 1.398287 0
M  V30 15 C 2.157552 4.274990 2.149344 0
M  V30 16 C 1.528436 4.008817 3.472483 0
M  V30 17 C 0.333608 3.172061 3.535866 0
M  V30 18 C 0.163281 1.810307 3.824199 0
M  V30 19 C -1.083251 1.252767 3.819368 0
M  V30 20 C -2.212648 1.983961 3.537064 0
M  V30 21 C -2.085753 3.308491 3.252563 0
M  V30 22 C -0.820842 3.907413 3.250009 0
M  V30 23 N 1.600373 -1.114467 0.316195 0
M  V30 24 C 0.887513 -2.190065 -0.097622 0
M  V30 25 C 0.398396 -2.216321 -1.366613 0
M  V30 26 C -0.732606 -5.541803 -2.462905 0
M  V30 27 C -1.228128 -6.734354 -1.975519 0
M  V30 28 N -1.816547 -6.847949 -0.758643 0
M  V30 29 H -2.472192 -6.912778 1.769217 0
M  V30 30 H -2.216517 -5.116752 2.066877 0
M  V30 31 H -3.683808 -5.707770 1.249208 0
M  V30 32 H -1.571444 -3.728569 0.239489 0
M  V30 33 H 0.045012 -0.800785 -4.268796 0
M  V30 34 H 1.576743 0.806487 -2.405473 0
M  V30 35 H 3.648586 1.004429 0.035985 0
M  V30 36 H 3.653602 3.049620 1.238021 0
M  V30 37 H 3.046396 4.955968 2.266972 0
M  V30 38 H 1.420523 4.824932 1.463231 0
M  V30 39 H 1.357104 5.002268 3.997814 0
M  V30 40 H 2.356204 3.561947 4.127260 0
M  V30 41 H 1.122301 1.348678 4.028110 0
M  V30 42 H -1.014491 0.195946 4.064117 0
M  V30 43 H -3.127437 1.396780 3.573532 0
M  V30 44 H -2.990883 3.855200 3.035150 0
M  V30 45 H -0.867843 4.974141 3.005306 0
M  V30 46 H 0.700873 -3.027127 0.562759 0
M  V30 47 H -0.262174 -5.460535 -3.440461 0
M  V30 48 H -1.149626 -7.627272 -2.582749 0
M  V30 END ATOM
M  V30 BEGIN BOND
M  V30 1 1 1 2
M  V30 2 2 2 3
M  V30 3 1 3 4
M  V30 4 1 4 5
M  V30 5 2 5 6
M  V30 6 1 6 7
M  V30 7 1 7 8
M  V30 8 2 8 9
M  V30 9 1 9 10
M  V30 10 1 10 11
M  V30 11 1 11 12
M  V30 12 2 12 13
M  V30 13 1 12 14
M  V30 14 1 14 15
M  V30 15 1 15 16
M  V30 16 1 16 17
M  V30 17 2 17 18
M  V30 18 1 18 19
M  V30 19 2 19 20
M  V30 20 1 20 21
M  V30 21 2 21 22
M  V30 22 2 10 23
M  V30 23 1 23 24
M  V30 24 2 24 25
M  V30 25 2 4 26
M  V30 26 1 26 27
M  V30 27 2 27 28
M  V30 28 1 28 2
M  V30 29 1 25 5
M  V30 30 1 25 8
M  V30 31 1 22 17
M  V30 32 1 1 29
M  V30 33 1 1 30
M  V30 34 1 1 31
M  V30 35 1 3 32
M  V30 36 1 7 33
M  V30 37 1 9 34
M  V30 38 1 11 35
M  V30 39 1 14 36
M  V30 40 1 15 37
M  V30 41 1 15 38
M  V30 42 1 16 39
M  V30 43 1 16 40
M  V30 44 1 18 41
M  V30 45 1 19 42
M  V30 46 1 20 43
M  V30 47 1 21 44
M  V30 48 1 22 45
M  V30 49 1 24 46
M  V30 50 1 26 47
M  V30 51 1 27 48
M  V30 END BOND
M  V30 END CTAB
M  END
>  <Dataset>  (221) 
ChEMBL_Kinases

>  <Ligand_Instance>  (221) 
nan

>  <PDB_ID>  (221) 
nan

>  <Standardized_SMILES>  (221) 
Cc1cc(-c2n[nH]c3cc(NC(=O)NCCc4ccccc4)ncc23)ccn1

>  <Name>  (221) 
nan

>  <Pocket>  (221) 
nan

>  <ATP_Site>  (221) 
nan

>  <Peripheral>  (221) 
nan

>  <Num_H_Atoms_ProtBoundConf>  (221) 
nan

>  <Num_Resolved_Atoms>  (221) 
nan

>  <Num_Not_Resolved_Atoms>  (221) 
nan

$$$$
CHEMBL522387
     RDKit          3D

  0  0  0  0  0  0  0  0  0  0999 V3000
M  V30 BEGIN CTAB
M  V30 COUNTS 55 58 0 0 0
M  V30 BEGIN ATOM
M  V30 1 C 2.847432 -0.308294 5.376872 0
M  V30 2 C 2.376715 -1.645365 4.845508 0
M  V30 3 C 1.276753 -2.105758 5.777849 0
M  V30 4 C 3.474764 -2.691349 4.907883 0
M  V30 5 C 1.890411 -1.510226 3.437822 0
M  V30 6 C 1.854793 -0.347770 2.674188 0
M  V30 7 C 1.326347 -0.784033 1.478083 0
M  V30 8 N 1.094986 0.063877 0.356920 0
M  V30 9 C -0.074609 0.804218 0.029556 0
M  V30 10 O -1.014178 0.674708 0.853765 0
M  V30 11 N -0.024928 1.576763 -1.163136 0
M  V30 12 C -1.170785 2.339938 -1.540311 0
M  V30 13 C -1.182631 3.636704 -1.026792 0
M  V30 14 C -2.227601 4.491356 -1.307683 0
M  V30 15 C -3.279623 4.049169 -2.113398 0
M  V30 16 C -3.243523 2.750484 -2.613179 0
M  V30 17 C -4.251386 2.249328 -3.416220 0
M  V30 18 C -4.199507 0.950123 -3.906838 0
M  V30 19 C -3.127865 0.137235 -3.593238 0
M  V30 20 C -2.088399 0.598949 -2.787143 0
M  V30 21 C -2.216130 1.897864 -2.341937 0
M  V30 22 N 1.058615 -2.101632 1.500849 0
M  V30 23 C 0.515004 -2.965043 0.510705 0
M  V30 24 C -0.238639 -4.060299 0.900169 0
M  V30 25 C -0.817960 -4.970196 0.044337 0
M  V30 26 C -0.637076 -4.781471 -1.310979 0
M  V30 27 C 0.111546 -3.696865 -1.754856 0
M  V30 28 N 0.316576 -3.474802 -3.143494 0
M  V30 29 C 0.667795 -2.818256 -0.848563 0
M  V30 30 N 1.411384 -2.533821 2.713660 0
M  V30 31 H 2.175204 0.489933 5.002771 0
M  V30 32 H 3.871796 -0.066212 5.058808 0
M  V30 33 H 2.845700 -0.317186 6.485593 0
M  V30 34 H 0.311770 -1.605785 5.561650 0
M  V30 35 H 1.176308 -3.210113 5.776480 0
M  V30 36 H 1.544242 -1.770172 6.806769 0
M  V30 37 H 3.057913 -3.595998 4.421293 0
M  V30 38 H 3.592079 -2.947684 5.990030 0
M  V30 39 H 4.420369 -2.356858 4.476373 0
M  V30 40 H 2.167892 0.638030 2.966293 0
M  V30 41 H 1.943294 0.096251 -0.260371 0
M  V30 42 H 0.833770 1.585329 -1.752211 0
M  V30 43 H -0.447780 4.097713 -0.402837 0
M  V30 44 H -2.316682 5.506369 -0.953193 0
M  V30 45 H -4.149227 4.629316 -2.399904 0
M  V30 46 H -5.084248 2.901644 -3.651756 0
M  V30 47 H -4.997763 0.599850 -4.524069 0
M  V30 48 H -3.112446 -0.858559 -3.983954 0
M  V30 49 H -1.243924 -0.027844 -2.534541 0
M  V30 50 H -0.396198 -4.231616 1.956695 0
M  V30 51 H -1.397925 -5.808461 0.422337 0
M  V30 52 H -1.072191 -5.468784 -2.027028 0
M  V30 53 H -0.471277 -3.150697 -3.753533 0
M  V30 54 H 1.025007 -3.505993 -3.909608 0
M  V30 55 H 1.241119 -1.988945 -1.205242 0
M  V30 END ATOM
M  V30 BEGIN BOND
M  V30 1 1 1 2
M  V30 2 1 2 3
M  V30 3 1 2 4
M  V30 4 1 2 5
M  V30 5 1 5 6
M  V30 6 2 6 7
M  V30 7 1 7 8
M  V30 8 1 8 9
M  V30 9 2 9 10
M  V30 10 1 9 11
M  V30 11 1 11 12
M  V30 12 2 12 13
M  V30 13 1 13 14
M  V30 14 2 14 15
M  V30 15 1 15 16
M  V30 16 2 16 17
M  V30 17 1 17 18
M  V30 18 2 18 19
M  V30 19 1 19 20
M  V30 20 2 20 21
M  V30 21 1 7 22
M  V30 22 1 22 23
M  V30 23 2 23 24
M  V30 24 1 24 25
M  V30 25 2 25 26
M  V30 26 1 26 27
M  V30 27 1 27 28
M  V30 28 2 27 29
M  V30 29 1 22 30
M  V30 30 2 30 5
M  V30 31 1 21 12
M  V30 32 1 29 23
M  V30 33 1 21 16
M  V30 34 1 1 31
M  V30 35 1 1 32
M  V30 36 1 1 33
M  V30 37 1 3 34
M  V30 38 1 3 35
M  V30 39 1 3 36
M  V30 40 1 4 37
M  V30 41 1 4 38
M  V30 42 1 4 39
M  V30 43 1 6 40
M  V30 44 1 8 41
M  V30 45 1 11 42
M  V30 46 1 13 43
M  V30 47 1 14 44
M  V30 48 1 15 45
M  V30 49 1 17 46
M  V30 50 1 18 47
M  V30 51 1 19 48
M  V30 52 1 20 49
M  V30 53 1 24 50
M  V30 54 1 25 51
M  V30 55 1 26 52
M  V30 56 1 28 53
M  V30 57 1 28 54
M  V30 58 1 29 55
M  V30 END BOND
M  V30 END CTAB
M  END
>  <Dataset>  (222) 
ChEMBL_Kinases

>  <Ligand_Instance>  (222) 
nan

>  <PDB_ID>  (222) 
nan

>  <Standardized_SMILES>  (222) 
CC(C)(C)c1cc(NC(=O)Nc2cccc3ccccc23)n(-c2cccc(N)c2)n1

>  <Name>  (222) 
nan

>  <Pocket>  (222) 
nan

>  <ATP_Site>  (222) 
nan

>  <Peripheral>  (222) 
nan

>  <Num_H_Atoms_ProtBoundConf>  (222) 
nan

>  <Num_Resolved_Atoms>  (222) 
nan

>  <Num_Not_Resolved_Atoms>  (222) 
nan

$$$$
CHEMBL522398
     RDKit          3D

  0  0  0  0  0  0  0  0  0  0999 V3000
M  V30 BEGIN CTAB
M  V30 COUNTS 51 54 0 0 0
M  V30 BEGIN ATOM
M  V30 1 N -2.258299 -4.166975 3.276484 0
M  V30 2 C -1.386385 -4.737260 2.304311 0
M  V30 3 N -1.347364 -6.070206 2.020899 0
M  V30 4 C -0.491052 -6.547363 1.081344 0
M  V30 5 C 0.361687 -5.717070 0.385250 0
M  V30 6 C 0.301840 -4.375745 0.690921 0
M  V30 7 C 1.175639 -3.442730 -0.007285 0
M  V30 8 C 2.092244 -3.754514 -0.976613 0
M  V30 9 C 2.681417 -2.541938 -1.338994 0
M  V30 10 C 2.138519 -1.473121 -0.606198 0
M  V30 11 N 1.251780 -2.115791 0.160422 0
M  V30 12 C 2.740057 -0.197882 -1.007532 0
M  V30 13 C 2.476625 0.918762 -0.044518 0
M  V30 14 C 1.058092 1.313708 0.148536 0
M  V30 15 C 0.892401 2.440308 1.147603 0
M  V30 16 O -0.416349 2.825126 1.335386 0
M  V30 17 C -1.280996 1.886270 1.812027 0
M  V30 18 C -2.667083 2.416888 1.988983 0
M  V30 19 C -3.490958 2.280403 0.867342 0
M  V30 20 C -4.790530 2.752582 0.964520 0
M  V30 21 C -5.300135 3.336049 2.084020 0
M  V30 22 C -4.465932 3.458913 3.178097 0
M  V30 23 C -3.164588 3.004777 3.131518 0
M  V30 24 C 4.221173 -0.394390 -1.255015 0
M  V30 25 N 4.327977 -1.146712 -2.498962 0
M  V30 26 C 3.780418 -2.473582 -2.315997 0
M  V30 27 O 4.224728 -3.469491 -2.953446 0
M  V30 28 N -0.551828 -3.928923 1.622281 0
M  V30 29 H -1.701656 -3.855521 4.112564 0
M  V30 30 H -3.296885 -4.035056 3.254113 0
M  V30 31 H -0.511719 -7.619586 0.905164 0
M  V30 32 H 1.028358 -6.108865 -0.349957 0
M  V30 33 H 2.249889 -4.761325 -1.319289 0
M  V30 34 H 0.646760 -1.653951 0.863670 0
M  V30 35 H 2.266406 0.114416 -2.005379 0
M  V30 36 H 2.881829 0.650147 0.967650 0
M  V30 37 H 3.106224 1.802466 -0.369690 0
M  V30 38 H 0.370588 0.495056 0.322666 0
M  V30 39 H 0.733526 1.785733 -0.838492 0
M  V30 40 H 1.444129 3.344679 0.818305 0
M  V30 41 H 1.331587 2.183369 2.135406 0
M  V30 42 H -0.967961 1.556193 2.844995 0
M  V30 43 H -1.341923 0.942365 1.235954 0
M  V30 44 H -3.135959 1.819675 -0.059883 0
M  V30 45 H -5.405174 2.626132 0.060866 0
M  V30 46 H -6.321276 3.685491 2.101800 0
M  V30 47 H -4.833078 3.922777 4.102751 0
M  V30 48 H -2.465173 3.077195 3.965765 0
M  V30 49 H 4.660803 0.622324 -1.374704 0
M  V30 50 H 4.678353 -0.905305 -0.398129 0
M  V30 51 H 4.716957 -0.895212 -3.446869 0
M  V30 END ATOM
M  V30 BEGIN BOND
M  V30 1 1 1 2
M  V30 2 2 2 3
M  V30 3 1 3 4
M  V30 4 2 4 5
M  V30 5 1 5 6
M  V30 6 1 6 7
M  V30 7 2 7 8
M  V30 8 1 8 9
M  V30 9 2 9 10
M  V30 10 1 10 11
M  V30 11 1 10 12
M  V30 12 1 12 13
M  V30 13 1 13 14
M  V30 14 1 14 15
M  V30 15 1 15 16
M  V30 16 1 16 17
M  V30 17 1 17 18
M  V30 18 2 18 19
M  V30 19 1 19 20
M  V30 20 2 20 21
M  V30 21 1 21 22
M  V30 22 2 22 23
M  V30 23 1 12 24
M  V30 24 1 24 25
M  V30 25 1 25 26
M  V30 26 2 26 27
M  V30 27 2 6 28
M  V30 28 1 28 2
M  V30 29 1 11 7
M  V30 30 1 23 18
M  V30 31 1 26 9
M  V30 32 1 1 29
M  V30 33 1 1 30
M  V30 34 1 4 31
M  V30 35 1 5 32
M  V30 36 1 8 33
M  V30 37 1 11 34
M  V30 38 1 12 35
M  V30 39 1 13 36
M  V30 40 1 13 37
M  V30 41 1 14 38
M  V30 42 1 14 39
M  V30 43 1 15 40
M  V30 44 1 15 41
M  V30 45 1 17 42
M  V30 46 1 17 43
M  V30 47 1 19 44
M  V30 48 1 20 45
M  V30 49 1 21 46
M  V30 50 1 22 47
M  V30 51 1 23 48
M  V30 52 1 24 49
M  V30 53 1 24 50
M  V30 54 1 25 51
M  V30 END BOND
M  V30 END CTAB
M  END
>  <Dataset>  (223) 
ChEMBL_Kinases

>  <Ligand_Instance>  (223) 
nan

>  <PDB_ID>  (223) 
nan

>  <Standardized_SMILES>  (223) 
Nc1nccc(-c2cc3c([nH]2)C(CCCOCc2ccccc2)CNC3=O)n1

>  <Name>  (223) 
nan

>  <Pocket>  (223) 
nan

>  <ATP_Site>  (223) 
nan

>  <Peripheral>  (223) 
nan

>  <Num_H_Atoms_ProtBoundConf>  (223) 
nan

>  <Num_Resolved_Atoms>  (223) 
nan

>  <Num_Not_Resolved_Atoms>  (223) 
nan

$$$$
CHEMBL522464
     RDKit          3D

  0  0  0  0  0  0  0  0  0  0999 V3000
M  V30 BEGIN CTAB
M  V30 COUNTS 44 48 0 0 0
M  V30 BEGIN ATOM
M  V30 1 C -2.594992 -3.745405 0.325537 0
M  V30 2 N -1.751033 -2.682308 0.818918 0
M  V30 3 C -2.152435 -1.571374 1.464080 0
M  V30 4 C -1.126029 -0.729791 1.816801 0
M  V30 5 C -0.993385 0.523445 2.537213 0
M  V30 6 C -0.372412 1.571662 1.973278 0
M  V30 7 C 0.241590 1.705590 0.658513 0
M  V30 8 C -0.446616 1.316240 -0.490004 0
M  V30 9 O 0.313579 1.498088 -1.567990 0
M  V30 10 C 1.487719 1.994597 -1.190883 0
M  V30 11 C 2.628043 2.364692 -1.872247 0
M  V30 12 C 3.694861 2.856600 -1.112491 0
M  V30 13 C 3.639724 2.977648 0.251835 0
M  V30 14 C 2.508121 2.613698 0.947695 0
M  V30 15 C 1.459903 2.128099 0.176718 0
M  V30 16 C -0.368708 2.692856 2.900233 0
M  V30 17 O 0.055415 3.869644 2.907155 0
M  V30 18 N -1.037772 2.287158 4.110350 0
M  V30 19 C -1.433712 0.919015 3.883100 0
M  V30 20 O -2.047621 0.061440 4.583279 0
M  V30 21 C 0.010222 -1.397236 1.339647 0
M  V30 22 C 1.349279 -1.124791 1.371866 0
M  V30 23 C 2.335913 -1.924903 0.853757 0
M  V30 24 C 1.907852 -3.101000 0.255681 0
M  V30 25 C 0.553220 -3.460416 0.179880 0
M  V30 26 C 0.202870 -4.725978 -0.458631 0
M  V30 27 O -0.299376 -4.631202 -1.746245 0
M  V30 28 C -0.398257 -2.592031 0.731362 0
M  V30 29 H -3.656772 -3.454110 0.613967 0
M  V30 30 H -2.475158 -4.708750 0.875117 0
M  V30 31 H -2.655491 -3.826078 -0.763336 0
M  V30 32 H -3.173045 -1.299627 1.715903 0
M  V30 33 H -1.439644 0.922092 -0.562166 0
M  V30 34 H 2.627277 2.250410 -2.947156 0
M  V30 35 H 4.592613 3.144951 -1.655315 0
M  V30 36 H 4.496806 3.366604 0.818283 0
M  V30 37 H 2.452998 2.702216 2.024698 0
M  V30 38 H -1.273901 2.724326 5.028993 0
M  V30 39 H 1.803110 -0.239327 1.837704 0
M  V30 40 H 3.397010 -1.741399 0.861284 0
M  V30 41 H 2.665517 -3.776555 -0.174398 0
M  V30 42 H 1.165484 -5.314670 -0.592797 0
M  V30 43 H -0.381983 -5.407606 0.193926 0
M  V30 44 H -0.112897 -3.707333 -2.045525 0
M  V30 END ATOM
M  V30 BEGIN BOND
M  V30 1 1 1 2
M  V30 2 1 2 3
M  V30 3 2 3 4
M  V30 4 1 4 5
M  V30 5 2 5 6
M  V30 6 1 6 7
M  V30 7 2 7 8
M  V30 8 1 8 9
M  V30 9 1 9 10
M  V30 10 2 10 11
M  V30 11 1 11 12
M  V30 12 2 12 13
M  V30 13 1 13 14
M  V30 14 2 14 15
M  V30 15 1 6 16
M  V30 16 2 16 17
M  V30 17 1 16 18
M  V30 18 1 18 19
M  V30 19 2 19 20
M  V30 20 1 4 21
M  V30 21 2 21 22
M  V30 22 1 22 23
M  V30 23 2 23 24
M  V30 24 1 24 25
M  V30 25 1 25 26
M  V30 26 1 26 27
M  V30 27 2 25 28
M  V30 28 1 28 2
M  V30 29 1 19 5
M  V30 30 1 28 21
M  V30 31 1 15 7
M  V30 32 1 15 10
M  V30 33 1 1 29
M  V30 34 1 1 30
M  V30 35 1 1 31
M  V30 36 1 3 32
M  V30 37 1 8 33
M  V30 38 1 11 34
M  V30 39 1 12 35
M  V30 40 1 13 36
M  V30 41 1 14 37
M  V30 42 1 18 38
M  V30 43 1 22 39
M  V30 44 1 23 40
M  V30 45 1 24 41
M  V30 46 1 26 42
M  V30 47 1 26 43
M  V30 48 1 27 44
M  V30 END BOND
M  V30 END CTAB
M  END
>  <Dataset>  (224) 
ChEMBL_Kinases

>  <Ligand_Instance>  (224) 
nan

>  <PDB_ID>  (224) 
nan

>  <Standardized_SMILES>  (224) 
Cn1cc(C2=C(c3coc4ccccc34)C(=O)NC2=O)c2cccc(CO)c21

>  <Name>  (224) 
nan

>  <Pocket>  (224) 
nan

>  <ATP_Site>  (224) 
nan

>  <Peripheral>  (224) 
nan

>  <Num_H_Atoms_ProtBoundConf>  (224) 
nan

>  <Num_Resolved_Atoms>  (224) 
nan

>  <Num_Not_Resolved_Atoms>  (224) 
nan

$$$$
CHEMBL522578
     RDKit          3D

  0  0  0  0  0  0  0  0  0  0999 V3000
M  V30 BEGIN CTAB
M  V30 COUNTS 38 41 0 0 0
M  V30 BEGIN ATOM
M  V30 1 N 3.444316 -5.516051 2.638658 0
M  V30 2 C 3.236535 -4.645196 1.542265 0
M  V30 3 N 4.023577 -4.608806 0.449211 0
M  V30 4 C 3.719377 -3.739795 -0.517357 0
M  V30 5 C 2.614850 -2.918057 -0.356260 0
M  V30 6 C 1.799324 -2.943389 0.756888 0
M  V30 7 C 0.638209 -2.055855 0.888867 0
M  V30 8 C -0.185194 -2.070813 1.995775 0
M  V30 9 C -1.129402 -1.104224 1.717865 0
M  V30 10 C -0.879531 -0.531461 0.488258 0
M  V30 11 N 0.231996 -1.146534 -0.006808 0
M  V30 12 C -1.662216 0.541566 -0.170341 0
M  V30 13 C -0.965217 1.844536 -0.028721 0
M  V30 14 C -0.044765 2.239002 -1.007841 0
M  V30 15 C 0.686165 3.409132 -1.031690 0
M  V30 16 C 0.481075 4.274167 0.024589 0
M  V30 17 C -0.414367 3.939108 1.019919 0
M  V30 18 C -1.126557 2.757612 1.006790 0
M  V30 19 C -3.078099 0.639424 0.353921 0
M  V30 20 N -3.072923 0.473535 1.793418 0
M  V30 21 C -2.299166 -0.556761 2.395871 0
M  V30 22 O -2.623519 -1.003890 3.525877 0
M  V30 23 N 2.161434 -3.846581 1.701004 0
M  V30 24 H 4.147359 -5.845123 3.331419 0
M  V30 25 H 2.783236 -6.176909 3.105619 0
M  V30 26 H 4.337850 -3.691016 -1.408092 0
M  V30 27 H 2.391566 -2.222555 -1.156373 0
M  V30 28 H -0.176667 -2.648751 2.893519 0
M  V30 29 H 0.742901 -0.989453 -0.926027 0
M  V30 30 H -1.706989 0.328236 -1.280374 0
M  V30 31 H 0.103172 1.536755 -1.838698 0
M  V30 32 H 1.363277 3.578639 -1.858042 0
M  V30 33 H 1.044714 5.197876 0.025008 0
M  V30 34 H -0.566541 4.635465 1.851622 0
M  V30 35 H -1.818277 2.490225 1.768195 0
M  V30 36 H -3.441391 1.647513 0.057732 0
M  V30 37 H -3.674551 -0.159195 -0.147677 0
M  V30 38 H -3.610840 1.066492 2.484194 0
M  V30 END ATOM
M  V30 BEGIN BOND
M  V30 1 1 1 2
M  V30 2 2 2 3
M  V30 3 1 3 4
M  V30 4 2 4 5
M  V30 5 1 5 6
M  V30 6 1 6 7
M  V30 7 2 7 8
M  V30 8 1 8 9
M  V30 9 2 9 10
M  V30 10 1 10 11
M  V30 11 1 10 12
M  V30 12 1 12 13
M  V30 13 2 13 14
M  V30 14 1 14 15
M  V30 15 2 15 16
M  V30 16 1 16 17
M  V30 17 2 17 18
M  V30 18 1 12 19
M  V30 19 1 19 20
M  V30 20 1 20 21
M  V30 21 2 21 22
M  V30 22 2 6 23
M  V30 23 1 23 2
M  V30 24 1 11 7
M  V30 25 1 18 13
M  V30 26 1 21 9
M  V30 27 1 1 24
M  V30 28 1 1 25
M  V30 29 1 4 26
M  V30 30 1 5 27
M  V30 31 1 8 28
M  V30 32 1 11 29
M  V30 33 1 12 30
M  V30 34 1 14 31
M  V30 35 1 15 32
M  V30 36 1 16 33
M  V30 37 1 17 34
M  V30 38 1 18 35
M  V30 39 1 19 36
M  V30 40 1 19 37
M  V30 41 1 20 38
M  V30 END BOND
M  V30 END CTAB
M  END
>  <Dataset>  (225) 
ChEMBL_Kinases

>  <Ligand_Instance>  (225) 
nan

>  <PDB_ID>  (225) 
nan

>  <Standardized_SMILES>  (225) 
Nc1nccc(-c2cc3c([nH]2)C(c2ccccc2)CNC3=O)n1

>  <Name>  (225) 
nan

>  <Pocket>  (225) 
nan

>  <ATP_Site>  (225) 
nan

>  <Peripheral>  (225) 
nan

>  <Num_H_Atoms_ProtBoundConf>  (225) 
nan

>  <Num_Resolved_Atoms>  (225) 
nan

>  <Num_Not_Resolved_Atoms>  (225) 
nan

$$$$
CHEMBL3703708
     RDKit          3D

  0  0  0  0  0  0  0  0  0  0999 V3000
M  V30 BEGIN CTAB
M  V30 COUNTS 48 51 0 0 0
M  V30 BEGIN ATOM
M  V30 1 C 1.651448 -7.128900 -1.048997 0
M  V30 2 C 0.255168 -6.729545 -1.408715 0
M  V30 3 C -0.107543 -5.416776 -1.484176 0
M  V30 4 C -1.405035 -5.083859 -1.818995 0
M  V30 5 C -1.861759 -3.699078 -1.917960 0
M  V30 6 N -2.621193 -3.148374 -2.891941 0
M  V30 7 N -2.851504 -1.878849 -2.677806 0
M  V30 8 C -2.233654 -1.551865 -1.527248 0
M  V30 9 C -2.168797 -0.342586 -0.863440 0
M  V30 10 C -1.450298 -0.319541 0.309516 0
M  V30 11 N -1.260877 0.827094 1.145904 0
M  V30 12 C -0.152797 1.715415 0.960005 0
M  V30 13 O 0.618927 1.401433 0.016608 0
M  V30 14 N -0.069762 2.819309 1.851358 0
M  V30 15 C 0.983359 3.810975 1.803341 0 CFG=1
M  V30 16 C 0.434823 5.202282 1.573799 0
M  V30 17 C 1.683059 3.841436 3.128307 0
M  V30 18 C 0.965383 3.838137 4.292937 0
M  V30 19 C 1.634792 3.866783 5.513908 0
M  V30 20 C 3.011975 3.898374 5.558639 0
M  V30 21 C 3.728414 3.901600 4.390042 0
M  V30 22 C 3.052378 3.872894 3.177037 0
M  V30 23 N -0.835104 -1.411936 0.799833 0
M  V30 24 C -0.888944 -2.596940 0.165064 0
M  V30 25 C -1.606893 -2.672673 -1.031348 0
M  V30 26 C -2.332989 -6.073840 -2.076715 0
M  V30 27 C -1.937635 -7.399946 -1.992905 0
M  V30 28 N -0.652919 -7.714591 -1.661160 0
M  V30 29 H 1.861397 -8.169046 -1.377029 0
M  V30 30 H 2.358193 -6.421705 -1.536324 0
M  V30 31 H 1.791661 -7.005010 0.046103 0
M  V30 32 H 0.618920 -4.642451 -1.282443 0
M  V30 33 H -3.413113 -1.244701 -3.293215 0
M  V30 34 H -2.621766 0.565565 -1.176492 0
M  V30 35 H -2.021905 0.904700 1.873742 0
M  V30 36 H -0.775955 2.959644 2.586356 0
M  V30 37 H 1.723647 3.620257 0.994755 0
M  V30 38 H 0.089762 5.352605 0.532334 0
M  V30 39 H 1.218191 5.943457 1.776811 0
M  V30 40 H -0.410060 5.434500 2.258535 0
M  V30 41 H -0.100692 3.814312 4.314976 0
M  V30 42 H 1.136615 3.866190 6.475814 0
M  V30 43 H 3.613484 3.921714 6.439037 0
M  V30 44 H 4.809964 3.925191 4.315246 0
M  V30 45 H 3.591781 3.874444 2.218443 0
M  V30 46 H -0.397340 -3.477552 0.553329 0
M  V30 47 H -3.371352 -5.929753 -2.346475 0
M  V30 48 H -2.539430 -8.286006 -2.163672 0
M  V30 END ATOM
M  V30 BEGIN BOND
M  V30 1 1 1 2
M  V30 2 2 2 3
M  V30 3 1 3 4
M  V30 4 1 4 5
M  V30 5 2 5 6
M  V30 6 1 6 7
M  V30 7 1 7 8
M  V30 8 2 8 9
M  V30 9 1 9 10
M  V30 10 1 10 11
M  V30 11 1 11 12
M  V30 12 2 12 13
M  V30 13 1 12 14
M  V30 14 1 14 15
M  V30 15 1 15 16
M  V30 16 1 15 17
M  V30 17 2 17 18
M  V30 18 1 18 19
M  V30 19 2 19 20
M  V30 20 1 20 21
M  V30 21 2 21 22
M  V30 22 2 10 23
M  V30 23 1 23 24
M  V30 24 2 24 25
M  V30 25 2 4 26
M  V30 26 1 26 27
M  V30 27 2 27 28
M  V30 28 1 28 2
M  V30 29 1 25 5
M  V30 30 1 25 8
M  V30 31 1 22 17
M  V30 32 1 1 29
M  V30 33 1 1 30
M  V30 34 1 1 31
M  V30 35 1 3 32
M  V30 36 1 7 33
M  V30 37 1 9 34
M  V30 38 1 11 35
M  V30 39 1 14 36
M  V30 40 1 15 37 CFG=3
M  V30 41 1 16 38
M  V30 42 1 16 39
M  V30 43 1 16 40
M  V30 44 1 18 41
M  V30 45 1 19 42
M  V30 46 1 20 43
M  V30 47 1 21 44
M  V30 48 1 22 45
M  V30 49 1 24 46
M  V30 50 1 26 47
M  V30 51 1 27 48
M  V30 END BOND
M  V30 END CTAB
M  END
>  <Dataset>  (226) 
ChEMBL_Kinases

>  <Ligand_Instance>  (226) 
nan

>  <PDB_ID>  (226) 
nan

>  <Standardized_SMILES>  (226) 
Cc1cc(-c2n[nH]c3cc(NC(=O)N[C@@H](C)c4ccccc4)ncc23)ccn1

>  <Name>  (226) 
nan

>  <Pocket>  (226) 
nan

>  <ATP_Site>  (226) 
nan

>  <Peripheral>  (226) 
nan

>  <Num_H_Atoms_ProtBoundConf>  (226) 
nan

>  <Num_Resolved_Atoms>  (226) 
nan

>  <Num_Not_Resolved_Atoms>  (226) 
nan

$$$$
CHEMBL522579
     RDKit          3D

  0  0  0  0  0  0  0  0  0  0999 V3000
M  V30 BEGIN CTAB
M  V30 COUNTS 47 50 0 0 0
M  V30 BEGIN ATOM
M  V30 1 C 3.231417 -7.509616 2.359606 0
M  V30 2 C 2.512558 -6.529724 1.490471 0
M  V30 3 N 2.341861 -6.579433 0.149472 0
M  V30 4 N 1.641623 -5.497463 -0.185019 0
M  V30 5 C 1.379239 -4.784399 0.925742 0
M  V30 6 C 0.635934 -3.527233 1.007210 0
M  V30 7 C 0.466552 -2.937065 2.245757 0
M  V30 8 C -0.238262 -1.741381 2.337514 0
M  V30 9 C -0.752704 -1.170896 1.190287 0
M  V30 10 C -1.513049 0.064282 1.069507 0
M  V30 11 C -0.722787 1.194191 0.860435 0
M  V30 12 C -1.339805 2.431058 0.729885 0
M  V30 13 C -0.622880 3.690103 0.507783 0
M  V30 14 O -1.213451 4.799715 0.393037 0
M  V30 15 N 0.778097 3.760064 0.405253 0
M  V30 16 C 1.539247 4.970784 0.186919 0
M  V30 17 C 2.874258 4.946047 -0.414361 0
M  V30 18 C 2.768160 5.096362 1.107647 0
M  V30 19 C -2.715641 2.488060 0.813245 0
M  V30 20 C -3.526202 1.366916 1.022447 0
M  V30 21 C -2.887595 0.143926 1.149643 0
M  V30 22 C -3.643131 -1.115834 1.374423 0
M  V30 23 C -0.569158 -1.785641 -0.052305 0
M  V30 24 C -1.077918 -1.261575 -1.347948 0
M  V30 25 C 0.130550 -2.975526 -0.154888 0
M  V30 26 O 1.922033 -5.438471 1.926818 0
M  V30 27 H 4.088898 -6.999133 2.851552 0
M  V30 28 H 3.621320 -8.340908 1.771672 0
M  V30 29 H 2.578247 -7.841837 3.194461 0
M  V30 30 H 0.852206 -3.347027 3.176897 0
M  V30 31 H -0.434562 -1.190100 3.239893 0
M  V30 32 H 0.354734 1.158756 0.793864 0
M  V30 33 H 1.363292 2.906490 0.484854 0
M  V30 34 H 0.908283 5.885901 0.101642 0
M  V30 35 H 3.239470 5.823290 -0.971144 0
M  V30 36 H 3.311932 3.997914 -0.791693 0
M  V30 37 H 3.008530 6.108364 1.506572 0
M  V30 38 H 3.060715 4.195378 1.687840 0
M  V30 39 H -3.248378 3.430195 0.717966 0
M  V30 40 H -4.601191 1.440649 1.083530 0
M  V30 41 H -3.033796 -1.983483 1.141062 0
M  V30 42 H -4.557946 -1.183743 0.750203 0
M  V30 43 H -3.913240 -1.229100 2.464902 0
M  V30 44 H -2.022309 -1.791671 -1.666470 0
M  V30 45 H -0.324907 -1.399449 -2.142213 0
M  V30 46 H -1.359821 -0.191495 -1.279209 0
M  V30 47 H 0.299667 -3.490511 -1.093168 0
M  V30 END ATOM
M  V30 BEGIN BOND
M  V30 1 1 1 2
M  V30 2 2 2 3
M  V30 3 1 3 4
M  V30 4 2 4 5
M  V30 5 1 5 6
M  V30 6 2 6 7
M  V30 7 1 7 8
M  V30 8 2 8 9
M  V30 9 1 9 10
M  V30 10 2 10 11
M  V30 11 1 11 12
M  V30 12 1 12 13
M  V30 13 2 13 14
M  V30 14 1 13 15
M  V30 15 1 15 16
M  V30 16 1 16 17
M  V30 17 1 17 18
M  V30 18 2 12 19
M  V30 19 1 19 20
M  V30 20 2 20 21
M  V30 21 1 21 22
M  V30 22 1 9 23
M  V30 23 1 23 24
M  V30 24 2 23 25
M  V30 25 1 5 26
M  V30 26 1 26 2
M  V30 27 1 25 6
M  V30 28 1 21 10
M  V30 29 1 18 16
M  V30 30 1 1 27
M  V30 31 1 1 28
M  V30 32 1 1 29
M  V30 33 1 7 30
M  V30 34 1 8 31
M  V30 35 1 11 32
M  V30 36 1 15 33
M  V30 37 1 16 34
M  V30 38 1 17 35
M  V30 39 1 17 36
M  V30 40 1 18 37
M  V30 41 1 18 38
M  V30 42 1 19 39
M  V30 43 1 20 40
M  V30 44 1 22 41
M  V30 45 1 22 42
M  V30 46 1 22 43
M  V30 47 1 24 44
M  V30 48 1 24 45
M  V30 49 1 24 46
M  V30 50 1 25 47
M  V30 END BOND
M  V30 END CTAB
M  END
>  <Dataset>  (227) 
ChEMBL_Kinases

>  <Ligand_Instance>  (227) 
nan

>  <PDB_ID>  (227) 
nan

>  <Standardized_SMILES>  (227) 
Cc1nnc(-c2ccc(-c3cc(C(=O)NC4CC4)ccc3C)c(C)c2)o1

>  <Name>  (227) 
nan

>  <Pocket>  (227) 
nan

>  <ATP_Site>  (227) 
nan

>  <Peripheral>  (227) 
nan

>  <Num_H_Atoms_ProtBoundConf>  (227) 
nan

>  <Num_Resolved_Atoms>  (227) 
nan

>  <Num_Not_Resolved_Atoms>  (227) 
nan

$$$$
CHEMBL522590
     RDKit          3D

  0  0  0  0  0  0  0  0  0  0999 V3000
M  V30 BEGIN CTAB
M  V30 COUNTS 44 48 0 0 0
M  V30 BEGIN ATOM
M  V30 1 C -3.073197 0.046582 -0.819602 0
M  V30 2 N -1.966588 -0.857472 -0.547288 0
M  V30 3 C -0.667017 -0.778082 -0.946067 0
M  V30 4 C 0.047686 -1.875349 -0.450760 0
M  V30 5 C 1.468096 -2.128594 -0.659419 0
M  V30 6 C 2.489052 -1.286528 -0.562200 0
M  V30 7 C 2.636750 0.123953 -0.235293 0
M  V30 8 C 3.453452 1.052064 -0.895281 0
M  V30 9 O 3.358874 2.224016 -0.340689 0
M  V30 10 C 2.533629 2.202777 0.669430 0
M  V30 11 C 2.104445 3.163423 1.557709 0
M  V30 12 C 1.192646 2.865116 2.572960 0
M  V30 13 C 0.742675 3.921701 3.521658 0
M  V30 14 O 1.563905 3.994636 4.649489 0
M  V30 15 C 0.738627 1.544138 2.640854 0
M  V30 16 C 1.187665 0.607166 1.735841 0
M  V30 17 C 2.073760 0.908402 0.752748 0
M  V30 18 C 3.733341 -2.030069 -0.883026 0
M  V30 19 O 4.942690 -1.635711 -0.916551 0
M  V30 20 N 3.422912 -3.389628 -1.187169 0
M  V30 21 C 1.989967 -3.444193 -1.044293 0
M  V30 22 O 1.423931 -4.565185 -1.262574 0
M  V30 23 C -0.917362 -2.573458 0.246883 0
M  V30 24 C -0.815262 -3.745645 0.964289 0
M  V30 25 C -1.905769 -4.290516 1.606963 0
M  V30 26 F -1.784553 -5.451560 2.312170 0
M  V30 27 C -3.150120 -3.703795 1.572579 0
M  V30 28 Cl -4.565275 -4.354257 2.368533 0
M  V30 29 C -3.229778 -2.522300 0.843960 0
M  V30 30 C -2.150693 -1.970399 0.200412 0
M  V30 31 H -3.998111 -0.550430 -1.055999 0
M  V30 32 H -2.905340 0.723585 -1.663211 0
M  V30 33 H -3.330429 0.597107 0.129322 0
M  V30 34 H -0.266648 0.017396 -1.552478 0
M  V30 35 H 4.087000 0.827491 -1.760320 0
M  V30 36 H 2.502049 4.175084 1.445433 0
M  V30 37 H -0.321539 3.770877 3.761225 0
M  V30 38 H 0.898479 4.898874 2.990344 0
M  V30 39 H 0.994760 4.293917 5.423329 0
M  V30 40 H 0.047295 1.383519 3.436575 0
M  V30 41 H 0.807471 -0.385449 1.847110 0
M  V30 42 H 4.093160 -4.152982 -1.450852 0
M  V30 43 H 0.104035 -4.279290 1.062684 0
M  V30 44 H -4.192786 -2.041752 0.798161 0
M  V30 END ATOM
M  V30 BEGIN BOND
M  V30 1 1 1 2
M  V30 2 1 2 3
M  V30 3 2 3 4
M  V30 4 1 4 5
M  V30 5 2 5 6
M  V30 6 1 6 7
M  V30 7 2 7 8
M  V30 8 1 8 9
M  V30 9 1 9 10
M  V30 10 2 10 11
M  V30 11 1 11 12
M  V30 12 1 12 13
M  V30 13 1 13 14
M  V30 14 2 12 15
M  V30 15 1 15 16
M  V30 16 2 16 17
M  V30 17 1 6 18
M  V30 18 2 18 19
M  V30 19 1 18 20
M  V30 20 1 20 21
M  V30 21 2 21 22
M  V30 22 1 4 23
M  V30 23 2 23 24
M  V30 24 1 24 25
M  V30 25 1 25 26
M  V30 26 2 25 27
M  V30 27 1 27 28
M  V30 28 1 27 29
M  V30 29 2 29 30
M  V30 30 1 30 2
M  V30 31 1 21 5
M  V30 32 1 30 23
M  V30 33 1 17 7
M  V30 34 1 17 10
M  V30 35 1 1 31
M  V30 36 1 1 32
M  V30 37 1 1 33
M  V30 38 1 3 34
M  V30 39 1 8 35
M  V30 40 1 11 36
M  V30 41 1 13 37
M  V30 42 1 13 38
M  V30 43 1 14 39
M  V30 44 1 15 40
M  V30 45 1 16 41
M  V30 46 1 20 42
M  V30 47 1 24 43
M  V30 48 1 29 44
M  V30 END BOND
M  V30 END CTAB
M  END
>  <Dataset>  (228) 
ChEMBL_Kinases

>  <Ligand_Instance>  (228) 
nan

>  <PDB_ID>  (228) 
nan

>  <Standardized_SMILES>  (228) 
Cn1cc(C2=C(c3coc4cc(CO)ccc34)C(=O)NC2=O)c2cc(F)c(Cl)cc21

>  <Name>  (228) 
nan

>  <Pocket>  (228) 
nan

>  <ATP_Site>  (228) 
nan

>  <Peripheral>  (228) 
nan

>  <Num_H_Atoms_ProtBoundConf>  (228) 
nan

>  <Num_Resolved_Atoms>  (228) 
nan

>  <Num_Not_Resolved_Atoms>  (228) 
nan

$$$$
CHEMBL52263
     RDKit          3D

  0  0  0  0  0  0  0  0  0  0999 V3000
M  V30 BEGIN CTAB
M  V30 COUNTS 63 64 0 0 0
M  V30 BEGIN ATOM
M  V30 1 C 0.918502 -5.311661 2.740930 0
M  V30 2 C 1.323658 -3.836220 2.466670 0
M  V30 3 C 0.928070 -3.593584 1.049476 0
M  V30 4 C 1.184425 -2.311947 0.415455 0
M  V30 5 C 0.651432 -1.023639 0.824038 0
M  V30 6 C 1.057763 -0.625291 2.218451 0
M  V30 7 C 2.530889 -0.524072 2.455716 0
M  V30 8 C 2.737578 -0.117088 3.900139 0
M  V30 9 C 4.191131 0.014963 4.249998 0
M  V30 10 C 1.405063 0.023710 -0.030112 0
M  V30 11 C 0.812704 0.091219 -1.411713 0
M  V30 12 C -0.565981 0.697595 -1.228833 0 CFG=1
M  V30 13 C -0.997440 1.150924 -2.547518 0 CFG=2
M  V30 14 C -0.109090 2.315526 -2.962135 0
M  V30 15 C -2.381644 1.587447 -2.738096 0
M  V30 16 O -2.595611 2.592124 -3.504583 0
M  V30 17 N -3.614874 1.099494 -2.218305 0
M  V30 18 C -3.830536 0.203079 -1.104278 0 CFG=2
M  V30 19 C -5.103876 0.708336 -0.410307 0
M  V30 20 O -5.401048 -0.105696 0.697282 0
M  V30 21 C -2.728558 0.367076 -0.144973 0
M  V30 22 C -1.407861 -0.315950 -0.538939 0 CFG=1
M  V30 23 C -1.819443 -1.385231 -1.535616 0
M  V30 24 C -0.824582 -0.839992 0.717122 0
M  V30 25 H -0.173963 -5.324485 2.500556 0
M  V30 26 H 1.040413 -5.574543 3.791331 0
M  V30 27 H 1.434438 -5.988093 2.053374 0
M  V30 28 H 2.429106 -3.816606 2.550566 0
M  V30 29 H 0.796365 -3.293495 3.240686 0
M  V30 30 H -0.096612 -4.018022 0.865412 0
M  V30 31 H 1.563419 -4.348177 0.468037 0
M  V30 32 H 2.333179 -2.213369 0.377969 0
M  V30 33 H 0.980374 -2.462744 -0.703685 0
M  V30 34 H 0.530335 -1.074610 3.040749 0
M  V30 35 H 0.695090 0.476455 2.268787 0
M  V30 36 H 3.044177 0.222779 1.837016 0
M  V30 37 H 3.009561 -1.489843 2.277934 0
M  V30 38 H 2.273129 0.865694 4.119146 0
M  V30 39 H 2.221520 -0.835860 4.598039 0
M  V30 40 H 4.588431 1.033620 3.995276 0
M  V30 41 H 4.339244 -0.114116 5.351051 0
M  V30 42 H 4.795226 -0.722209 3.700248 0
M  V30 43 H 2.458303 -0.305602 -0.156626 0
M  V30 44 H 1.351127 1.018636 0.414645 0
M  V30 45 H 1.445365 0.774452 -1.999098 0
M  V30 46 H 0.793165 -0.857867 -1.948463 0
M  V30 47 H -0.407022 1.555197 -0.519149 0
M  V30 48 H -0.772266 0.347211 -3.304065 0
M  V30 49 H 0.235162 2.866967 -2.064397 0
M  V30 50 H 0.777857 1.971630 -3.527644 0
M  V30 51 H -0.656118 3.033378 -3.603508 0
M  V30 52 H -4.500400 1.425211 -2.697945 0
M  V30 53 H -4.076337 -0.820816 -1.414991 0
M  V30 54 H -5.982924 0.649454 -1.083597 0
M  V30 55 H -4.989905 1.750935 -0.087681 0
M  V30 56 H -5.639039 -1.009085 0.367056 0
M  V30 57 H -3.084106 0.015843 0.852566 0
M  V30 58 H -2.538744 1.453141 -0.020035 0
M  V30 59 H -2.468382 -2.107468 -1.009260 0
M  V30 60 H -0.977994 -1.956032 -1.954442 0
M  V30 61 H -2.294906 -0.868803 -2.391502 0
M  V30 62 H -1.175270 -0.219690 1.569380 0
M  V30 63 H -1.317132 -1.832760 0.906690 0
M  V30 END ATOM
M  V30 BEGIN BOND
M  V30 1 1 1 2
M  V30 2 1 2 3
M  V30 3 1 3 4
M  V30 4 1 4 5
M  V30 5 1 5 6
M  V30 6 1 6 7
M  V30 7 1 7 8
M  V30 8 1 8 9
M  V30 9 1 5 10
M  V30 10 1 10 11
M  V30 11 1 11 12
M  V30 12 1 12 13
M  V30 13 1 13 14
M  V30 14 1 13 15
M  V30 15 2 15 16
M  V30 16 1 15 17
M  V30 17 1 17 18
M  V30 18 1 18 19
M  V30 19 1 19 20
M  V30 20 1 18 21
M  V30 21 1 21 22
M  V30 22 1 22 23 CFG=3
M  V30 23 1 22 24
M  V30 24 1 24 5
M  V30 25 1 22 12
M  V30 26 1 1 25
M  V30 27 1 1 26
M  V30 28 1 1 27
M  V30 29 1 2 28
M  V30 30 1 2 29
M  V30 31 1 3 30
M  V30 32 1 3 31
M  V30 33 1 4 32
M  V30 34 1 4 33
M  V30 35 1 6 34
M  V30 36 1 6 35
M  V30 37 1 7 36
M  V30 38 1 7 37
M  V30 39 1 8 38
M  V30 40 1 8 39
M  V30 41 1 9 40
M  V30 42 1 9 41
M  V30 43 1 9 42
M  V30 44 1 10 43
M  V30 45 1 10 44
M  V30 46 1 11 45
M  V30 47 1 11 46
M  V30 48 1 12 47 CFG=1
M  V30 49 1 13 48 CFG=3
M  V30 50 1 14 49
M  V30 51 1 14 50
M  V30 52 1 14 51
M  V30 53 1 17 52
M  V30 54 1 18 53 CFG=3
M  V30 55 1 19 54
M  V30 56 1 19 55
M  V30 57 1 20 56
M  V30 58 1 21 57
M  V30 59 1 21 58
M  V30 60 1 23 59
M  V30 61 1 23 60
M  V30 62 1 23 61
M  V30 63 1 24 62
M  V30 64 1 24 63
M  V30 END BOND
M  V30 END CTAB
M  END
>  <Dataset>  (229) 
ChEMBL_Kinases

>  <Ligand_Instance>  (229) 
nan

>  <PDB_ID>  (229) 
nan

>  <Standardized_SMILES>  (229) 
CCCCC1(CCCC)CC[C@H]2[C@H](C)C(=O)N[C@H](CO)C[C@]2(C)C1

>  <Name>  (229) 
nan

>  <Pocket>  (229) 
nan

>  <ATP_Site>  (229) 
nan

>  <Peripheral>  (229) 
nan

>  <Num_H_Atoms_ProtBoundConf>  (229) 
nan

>  <Num_Resolved_Atoms>  (229) 
nan

>  <Num_Not_Resolved_Atoms>  (229) 
nan

$$$$
CHEMBL3731142
     RDKit          3D

  0  0  0  0  0  0  0  0  0  0999 V3000
M  V30 BEGIN CTAB
M  V30 COUNTS 59 64 0 0 0
M  V30 BEGIN ATOM
M  V30 1 Br 1.871762 -7.434227 3.440944 0
M  V30 2 C 2.358456 -5.966557 2.337430 0
M  V30 3 C 1.967332 -5.922266 1.025867 0
M  V30 4 C 2.352697 -4.830562 0.278540 0
M  V30 5 C 3.113806 -3.758516 0.750878 0
M  V30 6 C 3.432028 -2.667056 -0.212829 0
M  V30 7 N 2.388984 -1.684017 -0.151604 0
M  V30 8 C 2.303383 -1.132064 1.157645 0
M  V30 9 C 1.342634 -0.007734 1.239262 0
M  V30 10 N 0.606923 0.223582 0.011865 0
M  V30 11 C -0.682485 0.808103 0.142363 0
M  V30 12 N -0.618488 2.091314 -0.253100 0
M  V30 13 C -1.638296 2.964741 -0.223825 0
M  V30 14 C -1.592023 4.357681 -0.648454 0
M  V30 15 C -0.385763 4.850401 -1.144056 0
M  V30 16 C -0.315949 6.157257 -1.551233 0
M  V30 17 N -1.366632 6.971361 -1.487631 0
M  V30 18 C -2.522151 6.468077 -1.003698 0
M  V30 19 C -2.699338 5.185936 -0.572721 0
M  V30 20 N -2.796426 2.471427 0.245747 0
M  V30 21 C -2.887446 1.180130 0.650140 0
M  V30 22 S -4.223005 0.256744 1.293155 0
M  V30 23 C -3.337501 -1.277456 1.491467 0
M  V30 24 C -2.046776 -0.979103 1.042336 0
M  V30 25 C -1.871298 0.309224 0.620536 0
M  V30 26 C -1.225567 -2.209932 1.135459 0
M  V30 27 C -1.940958 -3.420866 0.626217 0
M  V30 28 C -3.361770 -3.579573 0.970677 0
M  V30 29 C -3.826956 -2.572968 2.014231 0
M  V30 30 C 1.059503 -0.076439 -1.337330 0
M  V30 31 C 2.440470 -0.691773 -1.185647 0
M  V30 32 C 3.496364 -3.824016 2.073788 0
M  V30 33 C 3.115629 -4.919979 2.842665 0
M  V30 34 H 1.378138 -6.706497 0.579066 0
M  V30 35 H 2.031057 -4.818897 -0.752667 0
M  V30 36 H 3.598962 -3.079332 -1.210600 0
M  V30 37 H 4.368117 -2.156173 0.109938 0
M  V30 38 H 3.355684 -0.831240 1.442495 0
M  V30 39 H 1.956045 -1.912450 1.875250 0
M  V30 40 H 0.660959 -0.056985 2.114516 0
M  V30 41 H 1.958984 0.929770 1.374426 0
M  V30 42 H 0.469642 4.189304 -1.196792 0
M  V30 43 H 0.641214 6.479244 -1.923841 0
M  V30 44 H -3.414374 7.108401 -0.934322 0
M  V30 45 H -3.632097 4.796239 -0.187501 0
M  V30 46 H -0.325215 -2.113442 0.463596 0
M  V30 47 H -0.822518 -2.400833 2.147822 0
M  V30 48 H -1.820697 -3.498747 -0.492026 0
M  V30 49 H -1.393278 -4.315917 1.005175 0
M  V30 50 H -3.985104 -3.341835 0.061465 0
M  V30 51 H -3.632678 -4.608235 1.283024 0
M  V30 52 H -4.911653 -2.562436 2.044395 0
M  V30 53 H -3.344847 -2.852362 2.983059 0
M  V30 54 H 1.151410 0.912639 -1.853600 0
M  V30 55 H 0.370588 -0.671324 -1.930459 0
M  V30 56 H 2.874260 -1.016525 -2.126375 0
M  V30 57 H 3.113395 0.119082 -0.799270 0
M  V30 58 H 4.085241 -2.995181 2.434325 0
M  V30 59 H 3.426492 -4.952078 3.879363 0
M  V30 END ATOM
M  V30 BEGIN BOND
M  V30 1 1 1 2
M  V30 2 2 2 3
M  V30 3 1 3 4
M  V30 4 2 4 5
M  V30 5 1 5 6
M  V30 6 1 6 7
M  V30 7 1 7 8
M  V30 8 1 8 9
M  V30 9 1 9 10
M  V30 10 1 10 11
M  V30 11 2 11 12
M  V30 12 1 12 13
M  V30 13 1 13 14
M  V30 14 2 14 15
M  V30 15 1 15 16
M  V30 16 2 16 17
M  V30 17 1 17 18
M  V30 18 2 18 19
M  V30 19 2 13 20
M  V30 20 1 20 21
M  V30 21 1 21 22
M  V30 22 1 22 23
M  V30 23 2 23 24
M  V30 24 1 24 25
M  V30 25 1 24 26
M  V30 26 1 26 27
M  V30 27 1 27 28
M  V30 28 1 28 29
M  V30 29 1 10 30
M  V30 30 1 30 31
M  V30 31 1 5 32
M  V30 32 2 32 33
M  V30 33 1 33 2
M  V30 34 1 31 7
M  V30 35 1 25 11
M  V30 36 1 19 14
M  V30 37 2 25 21
M  V30 38 1 29 23
M  V30 39 1 3 34
M  V30 40 1 4 35
M  V30 41 1 6 36
M  V30 42 1 6 37
M  V30 43 1 8 38
M  V30 44 1 8 39
M  V30 45 1 9 40
M  V30 46 1 9 41
M  V30 47 1 15 42
M  V30 48 1 16 43
M  V30 49 1 18 44
M  V30 50 1 19 45
M  V30 51 1 26 46
M  V30 52 1 26 47
M  V30 53 1 27 48
M  V30 54 1 27 49
M  V30 55 1 28 50
M  V30 56 1 28 51
M  V30 57 1 29 52
M  V30 58 1 29 53
M  V30 59 1 30 54
M  V30 60 1 30 55
M  V30 61 1 31 56
M  V30 62 1 31 57
M  V30 63 1 32 58
M  V30 64 1 33 59
M  V30 END BOND
M  V30 END CTAB
M  END
>  <Dataset>  (230) 
ChEMBL_Kinases

>  <Ligand_Instance>  (230) 
nan

>  <PDB_ID>  (230) 
nan

>  <Standardized_SMILES>  (230) 
Brc1ccc(CN2CCN(c3nc(-c4ccncc4)nc4sc5c(c34)CCCC5)CC2)cc1

>  <Name>  (230) 
nan

>  <Pocket>  (230) 
nan

>  <ATP_Site>  (230) 
nan

>  <Peripheral>  (230) 
nan

>  <Num_H_Atoms_ProtBoundConf>  (230) 
nan

>  <Num_Resolved_Atoms>  (230) 
nan

>  <Num_Not_Resolved_Atoms>  (230) 
nan

$$$$
CHEMBL3731393
     RDKit          3D

  0  0  0  0  0  0  0  0  0  0999 V3000
M  V30 BEGIN CTAB
M  V30 COUNTS 57 62 0 0 0
M  V30 BEGIN ATOM
M  V30 1 N 2.553598 -0.358930 -3.174613 0
M  V30 2 C 1.737555 -0.764813 -1.972123 0 CFG=1
M  V30 3 C 0.617678 0.166544 -1.942337 0
M  V30 4 O -0.296004 0.139152 -0.896103 0
M  V30 5 C 0.093461 0.352815 0.448598 0
M  V30 6 N 1.383361 0.554532 0.668029 0
M  V30 7 C 2.025252 0.771801 1.789596 0
M  V30 8 C 3.446098 0.996350 1.991943 0
M  V30 9 C 3.973270 1.197069 3.249351 0
M  V30 10 C 5.322749 1.407744 3.434516 0
M  V30 11 N 6.161235 1.423335 2.396033 0
M  V30 12 C 5.713880 1.235008 1.148917 0
M  V30 13 C 4.380285 1.028275 0.980581 0
M  V30 14 N 1.230824 0.787765 2.867457 0
M  V30 15 C -0.087892 0.594501 2.746303 0
M  V30 16 S -1.438143 0.580872 3.962278 0
M  V30 17 C -2.771724 0.275790 2.787247 0
M  V30 18 C -2.100025 0.204932 1.558928 0
M  V30 19 C -0.744317 0.365324 1.537506 0
M  V30 20 C -3.112076 -0.036499 0.503514 0
M  V30 21 C -4.148750 -1.013009 0.978369 0
M  V30 22 C -5.029227 -0.365885 2.032499 0
M  V30 23 C -4.152908 0.161221 3.154916 0
M  V30 24 C 1.556465 -2.212497 -2.153731 0
M  V30 25 C 0.774935 -2.985909 -1.183921 0
M  V30 26 C 1.462366 -3.647726 -0.146631 0
M  V30 27 S 0.197031 -4.481780 0.838159 0
M  V30 28 C -1.162719 -3.903616 -0.184224 0
M  V30 29 C -2.519534 -4.168277 -0.050403 0
M  V30 30 C -3.398157 -3.637434 -0.968633 0
M  V30 31 C -2.826678 -2.873281 -1.957362 0
M  V30 32 C -1.489981 -2.613332 -2.087262 0
M  V30 33 C -0.589879 -3.133516 -1.181911 0
M  V30 34 H 1.926854 -0.391773 -4.015259 0
M  V30 35 H 2.956832 0.588877 -3.012681 0
M  V30 36 H 2.445867 -0.502887 -1.138194 0
M  V30 37 H 0.011232 0.200766 -2.884395 0
M  V30 38 H 1.064166 1.214323 -1.914938 0
M  V30 39 H 3.325501 1.191731 4.120749 0
M  V30 40 H 5.760312 1.567061 4.398231 0
M  V30 41 H 6.417237 1.253453 0.330963 0
M  V30 42 H 4.035439 0.879996 -0.033116 0
M  V30 43 H -3.627781 0.928018 0.308236 0
M  V30 44 H -2.673878 -0.422645 -0.429692 0
M  V30 45 H -3.701666 -1.950926 1.368686 0
M  V30 46 H -4.784736 -1.279765 0.118106 0
M  V30 47 H -5.768897 -1.108480 2.387154 0
M  V30 48 H -5.557613 0.474348 1.537708 0
M  V30 49 H -4.553825 1.141490 3.482099 0
M  V30 50 H -4.272594 -0.535037 4.010300 0
M  V30 51 H 2.603006 -2.654675 -2.225426 0
M  V30 52 H 1.183918 -2.422974 -3.221999 0
M  V30 53 H 2.514932 -3.682160 0.062547 0
M  V30 54 H -2.826571 -4.776332 0.763483 0
M  V30 55 H -4.447702 -3.829398 -0.884894 0
M  V30 56 H -3.531124 -2.451494 -2.689084 0
M  V30 57 H -1.198926 -1.991797 -2.922979 0
M  V30 END ATOM
M  V30 BEGIN BOND
M  V30 1 1 1 2
M  V30 2 1 2 3
M  V30 3 1 3 4
M  V30 4 1 4 5
M  V30 5 2 5 6
M  V30 6 1 6 7
M  V30 7 1 7 8
M  V30 8 2 8 9
M  V30 9 1 9 10
M  V30 10 2 10 11
M  V30 11 1 11 12
M  V30 12 2 12 13
M  V30 13 2 7 14
M  V30 14 1 14 15
M  V30 15 1 15 16
M  V30 16 1 16 17
M  V30 17 2 17 18
M  V30 18 1 18 19
M  V30 19 1 18 20
M  V30 20 1 20 21
M  V30 21 1 21 22
M  V30 22 1 22 23
M  V30 23 1 2 24
M  V30 24 1 24 25
M  V30 25 2 25 26
M  V30 26 1 26 27
M  V30 27 1 27 28
M  V30 28 2 28 29
M  V30 29 1 29 30
M  V30 30 2 30 31
M  V30 31 1 31 32
M  V30 32 2 32 33
M  V30 33 1 19 5
M  V30 34 1 33 25
M  V30 35 1 13 8
M  V30 36 2 19 15
M  V30 37 1 33 28
M  V30 38 1 23 17
M  V30 39 1 1 34
M  V30 40 1 1 35
M  V30 41 1 2 36 CFG=1
M  V30 42 1 3 37
M  V30 43 1 3 38
M  V30 44 1 9 39
M  V30 45 1 10 40
M  V30 46 1 12 41
M  V30 47 1 13 42
M  V30 48 1 20 43
M  V30 49 1 20 44
M  V30 50 1 21 45
M  V30 51 1 21 46
M  V30 52 1 22 47
M  V30 53 1 22 48
M  V30 54 1 23 49
M  V30 55 1 23 50
M  V30 56 1 24 51
M  V30 57 1 24 52
M  V30 58 1 26 53
M  V30 59 1 29 54
M  V30 60 1 30 55
M  V30 61 1 31 56
M  V30 62 1 32 57
M  V30 END BOND
M  V30 END CTAB
M  END
>  <Dataset>  (231) 
ChEMBL_Kinases

>  <Ligand_Instance>  (231) 
nan

>  <PDB_ID>  (231) 
nan

>  <Standardized_SMILES>  (231) 
N[C@@H](COc1nc(-c2ccncc2)nc2sc3c(c12)CCCC3)Cc1csc2ccccc12

>  <Name>  (231) 
nan

>  <Pocket>  (231) 
nan

>  <ATP_Site>  (231) 
nan

>  <Peripheral>  (231) 
nan

>  <Num_H_Atoms_ProtBoundConf>  (231) 
nan

>  <Num_Resolved_Atoms>  (231) 
nan

>  <Num_Not_Resolved_Atoms>  (231) 
nan

$$$$
CHEMBL3731387
     RDKit          3D

  0  0  0  0  0  0  0  0  0  0999 V3000
M  V30 BEGIN CTAB
M  V30 COUNTS 44 46 0 0 0
M  V30 BEGIN ATOM
M  V30 1 C -0.430037 -4.544994 1.662807 0
M  V30 2 C -1.295525 -3.363092 1.282703 0
M  V30 3 C -0.822753 -2.668735 0.066789 0
M  V30 4 C -1.242379 -3.300157 -1.123130 0
M  V30 5 C -2.023614 -4.516830 -1.400202 0
M  V30 6 S -0.651561 -2.350023 -2.443559 0
M  V30 7 C 0.173125 -1.086123 -1.401897 0
M  V30 8 N 0.886792 0.031115 -1.714372 0
M  V30 9 C 1.403142 0.805167 -0.767067 0
M  V30 10 C 2.145825 1.971918 -1.183725 0
M  V30 11 C 2.323172 2.297808 -2.508961 0
M  V30 12 C 3.039958 3.422292 -2.858652 0
M  V30 13 N 3.574200 4.214996 -1.932310 0
M  V30 14 C 3.438037 3.953587 -0.622568 0
M  V30 15 C 2.722085 2.830063 -0.274253 0
M  V30 16 N 1.147045 0.368585 0.443085 0
M  V30 17 C 0.467838 -0.698252 0.823359 0
M  V30 18 N 0.538725 -0.904096 2.215933 0
M  V30 19 C 0.997323 -0.217528 3.371752 0
M  V30 20 C 0.101587 0.869363 3.829244 0 CFG=1
M  V30 21 C -0.077386 1.930235 2.793849 0
M  V30 22 N -1.187414 0.257634 4.146461 0
M  V30 23 C -0.091366 -1.529435 -0.109107 0
M  V30 24 H -0.868738 -5.521574 1.444514 0
M  V30 25 H 0.553891 -4.384202 1.165221 0
M  V30 26 H -0.211728 -4.522949 2.757846 0
M  V30 27 H -2.344389 -3.816111 1.060506 0
M  V30 28 H -1.513153 -2.782622 2.161383 0
M  V30 29 H -2.196381 -5.137040 -0.519737 0
M  V30 30 H -1.651681 -5.048052 -2.285156 0
M  V30 31 H -3.047671 -4.147969 -1.701721 0
M  V30 32 H 1.863130 1.613650 -3.230942 0
M  V30 33 H 3.102964 3.560462 -3.922401 0
M  V30 34 H 3.892243 4.629767 0.103679 0
M  V30 35 H 2.621781 2.633136 0.769075 0
M  V30 36 H 0.205160 -1.813617 2.485729 0
M  V30 37 H 2.059360 0.141949 3.217673 0
M  V30 38 H 1.112062 -0.940372 4.217563 0
M  V30 39 H 0.484972 1.284723 4.796090 0
M  V30 40 H 0.869169 2.294974 2.363978 0
M  V30 41 H -0.739606 1.609693 1.980576 0
M  V30 42 H -0.511559 2.817698 3.337406 0
M  V30 43 H -1.852146 0.467684 3.353032 0
M  V30 44 H -1.566614 0.616455 5.027095 0
M  V30 END ATOM
M  V30 BEGIN BOND
M  V30 1 1 1 2
M  V30 2 1 2 3
M  V30 3 2 3 4
M  V30 4 1 4 5
M  V30 5 1 4 6
M  V30 6 1 6 7
M  V30 7 2 7 8
M  V30 8 1 8 9
M  V30 9 1 9 10
M  V30 10 2 10 11
M  V30 11 1 11 12
M  V30 12 2 12 13
M  V30 13 1 13 14
M  V30 14 2 14 15
M  V30 15 2 9 16
M  V30 16 1 16 17
M  V30 17 1 17 18
M  V30 18 1 18 19
M  V30 19 1 19 20
M  V30 20 1 20 21
M  V30 21 1 20 22
M  V30 22 2 17 23
M  V30 23 1 23 3
M  V30 24 1 23 7
M  V30 25 1 15 10
M  V30 26 1 1 24
M  V30 27 1 1 25
M  V30 28 1 1 26
M  V30 29 1 2 27
M  V30 30 1 2 28
M  V30 31 1 5 29
M  V30 32 1 5 30
M  V30 33 1 5 31
M  V30 34 1 11 32
M  V30 35 1 12 33
M  V30 36 1 14 34
M  V30 37 1 15 35
M  V30 38 1 18 36
M  V30 39 1 19 37
M  V30 40 1 19 38
M  V30 41 1 20 39 CFG=1
M  V30 42 1 21 40
M  V30 43 1 21 41
M  V30 44 1 21 42
M  V30 45 1 22 43
M  V30 46 1 22 44
M  V30 END BOND
M  V30 END CTAB
M  END
>  <Dataset>  (232) 
ChEMBL_Kinases

>  <Ligand_Instance>  (232) 
nan

>  <PDB_ID>  (232) 
nan

>  <Standardized_SMILES>  (232) 
CCc1c(C)sc2nc(-c3ccncc3)nc(NC[C@@H](C)N)c12

>  <Name>  (232) 
nan

>  <Pocket>  (232) 
nan

>  <ATP_Site>  (232) 
nan

>  <Peripheral>  (232) 
nan

>  <Num_H_Atoms_ProtBoundConf>  (232) 
nan

>  <Num_Resolved_Atoms>  (232) 
nan

>  <Num_Not_Resolved_Atoms>  (232) 
nan

$$$$
CHEMBL3731386
     RDKit          3D

  0  0  0  0  0  0  0  0  0  0999 V3000
M  V30 BEGIN CTAB
M  V30 COUNTS 56 60 0 0 0
M  V30 BEGIN ATOM
M  V30 1 N 2.621163 -5.737958 0.239185 0
M  V30 2 C 2.360785 -4.678049 -0.744588 0 CFG=2
M  V30 3 C 1.846714 -3.506660 0.007556 0
M  V30 4 N 1.539545 -2.363249 -0.830209 0
M  V30 5 C 1.055024 -1.202766 -0.166090 0
M  V30 6 N 0.885320 -1.150692 1.179452 0
M  V30 7 C 0.412211 0.038263 1.670790 0
M  V30 8 C 0.199137 0.182583 3.123185 0
M  V30 9 C 0.501433 -0.883192 3.941218 0
M  V30 10 C 0.302938 -0.736342 5.279751 0
M  V30 11 N -0.172611 0.401755 5.820239 0
M  V30 12 C -0.479343 1.465673 5.049481 0
M  V30 13 C -0.288493 1.347432 3.683490 0
M  V30 14 N 0.125426 1.100094 0.908249 0
M  V30 15 C 0.284780 1.075754 -0.427098 0
M  V30 16 C 0.015833 2.121700 -1.254999 0
M  V30 17 C -0.481502 3.445241 -0.888760 0
M  V30 18 C -0.914815 4.547893 -0.570033 0
M  V30 19 C -1.417025 5.836816 -0.171940 0
M  V30 20 C -2.404432 5.786626 0.821204 0
M  V30 21 C -2.922392 7.012602 1.245284 0
M  V30 22 C -2.417520 8.162308 0.650983 0
M  V30 23 C -1.444986 8.196590 -0.325681 0
M  V30 24 N -0.963259 6.978113 -0.714408 0
M  V30 25 C 0.244974 1.917507 -2.615663 0
M  V30 26 S 0.874509 0.127271 -2.651517 0
M  V30 27 C 0.744224 -0.061831 -0.960897 0
M  V30 28 C 1.473680 -5.196217 -1.825846 0
M  V30 29 C 0.152102 -5.676868 -1.358731 0
M  V30 30 C 0.077373 -7.027677 -0.996604 0
M  V30 31 C -1.095678 -7.638962 -0.537955 0
M  V30 32 C -2.239185 -6.837728 -0.445506 0
M  V30 33 C -2.163087 -5.505099 -0.803451 0
M  V30 34 C -1.004236 -4.918264 -1.252079 0
M  V30 35 H 3.175636 -6.519153 -0.180882 0
M  V30 36 H 1.693063 -6.094651 0.616003 0
M  V30 37 H 3.347129 -4.459207 -1.206558 0
M  V30 38 H 0.959559 -3.833150 0.594135 0
M  V30 39 H 2.648549 -3.216287 0.739163 0
M  V30 40 H 1.665229 -2.385275 -1.863210 0
M  V30 41 H 0.881269 -1.811597 3.577627 0
M  V30 42 H 0.525864 -1.546386 5.966551 0
M  V30 43 H -0.867032 2.430010 5.356158 0
M  V30 44 H -0.515066 2.170557 2.993000 0
M  V30 45 H -2.758875 4.859793 1.247759 0
M  V30 46 H -3.676281 7.017319 1.999679 0
M  V30 47 H -2.885982 9.071978 1.050978 0
M  V30 48 H -1.106397 9.132827 -0.736414 0
M  V30 49 H 0.120129 2.564586 -3.489478 0
M  V30 50 H 2.007391 -6.032829 -2.336222 0
M  V30 51 H 1.383329 -4.389780 -2.583696 0
M  V30 52 H 0.954082 -7.662343 -1.062371 0
M  V30 53 H -1.087770 -8.687444 -0.274020 0
M  V30 54 H -3.167597 -7.269822 -0.096631 0
M  V30 55 H -3.059959 -4.893992 -0.727782 0
M  V30 56 H -0.921373 -3.873685 -1.538959 0
M  V30 END ATOM
M  V30 BEGIN BOND
M  V30 1 1 1 2
M  V30 2 1 2 3
M  V30 3 1 3 4
M  V30 4 1 4 5
M  V30 5 2 5 6
M  V30 6 1 6 7
M  V30 7 1 7 8
M  V30 8 2 8 9
M  V30 9 1 9 10
M  V30 10 2 10 11
M  V30 11 1 11 12
M  V30 12 2 12 13
M  V30 13 2 7 14
M  V30 14 1 14 15
M  V30 15 1 15 16
M  V30 16 1 16 17
M  V30 17 3 17 18
M  V30 18 1 18 19
M  V30 19 2 19 20
M  V30 20 1 20 21
M  V30 21 2 21 22
M  V30 22 1 22 23
M  V30 23 2 23 24
M  V30 24 2 16 25
M  V30 25 1 25 26
M  V30 26 1 26 27
M  V30 27 1 2 28
M  V30 28 1 28 29
M  V30 29 2 29 30
M  V30 30 1 30 31
M  V30 31 2 31 32
M  V30 32 1 32 33
M  V30 33 2 33 34
M  V30 34 1 27 5
M  V30 35 1 34 29
M  V30 36 1 13 8
M  V30 37 2 27 15
M  V30 38 1 24 19
M  V30 39 1 1 35
M  V30 40 1 1 36
M  V30 41 1 2 37 CFG=3
M  V30 42 1 3 38
M  V30 43 1 3 39
M  V30 44 1 4 40
M  V30 45 1 9 41
M  V30 46 1 10 42
M  V30 47 1 12 43
M  V30 48 1 13 44
M  V30 49 1 20 45
M  V30 50 1 21 46
M  V30 51 1 22 47
M  V30 52 1 23 48
M  V30 53 1 25 49
M  V30 54 1 28 50
M  V30 55 1 28 51
M  V30 56 1 30 52
M  V30 57 1 31 53
M  V30 58 1 32 54
M  V30 59 1 33 55
M  V30 60 1 34 56
M  V30 END BOND
M  V30 END CTAB
M  END
>  <Dataset>  (233) 
ChEMBL_Kinases

>  <Ligand_Instance>  (233) 
nan

>  <PDB_ID>  (233) 
nan

>  <Standardized_SMILES>  (233) 
N[C@H](CNc1nc(-c2ccncc2)nc2c(C#Cc3ccccn3)csc12)Cc1ccccc1

>  <Name>  (233) 
nan

>  <Pocket>  (233) 
nan

>  <ATP_Site>  (233) 
nan

>  <Peripheral>  (233) 
nan

>  <Num_H_Atoms_ProtBoundConf>  (233) 
nan

>  <Num_Resolved_Atoms>  (233) 
nan

>  <Num_Not_Resolved_Atoms>  (233) 
nan

$$$$
CHEMBL3731369
     RDKit          3D

  0  0  0  0  0  0  0  0  0  0999 V3000
M  V30 BEGIN CTAB
M  V30 COUNTS 48 51 0 0 0
M  V30 BEGIN ATOM
M  V30 1 C -3.389286 -5.463983 0.598213 0
M  V30 2 C -2.154587 -4.658115 0.422562 0
M  V30 3 C -0.998234 -5.385507 0.355096 0
M  V30 4 Br -0.702643 -7.344943 0.461002 0
M  V30 5 S 0.378601 -4.127614 0.109171 0
M  V30 6 C -0.672284 -2.757695 0.115865 0
M  V30 7 C -0.605568 -1.315265 -0.008230 0
M  V30 8 N 0.746164 -1.188965 -0.233265 0
M  V30 9 C 2.084889 -1.055386 -0.456799 0
M  V30 10 C 2.946201 -0.264584 0.498665 0 CFG=1
M  V30 11 N 4.290437 -0.348835 -0.022668 0
M  V30 12 C 2.520759 1.168544 0.600143 0
M  V30 13 C 3.414416 1.897040 1.533519 0
M  V30 14 C 4.501506 2.564748 0.995373 0
M  V30 15 C 5.352550 3.233132 1.886089 0
M  V30 16 C 5.191902 3.281756 3.282805 0
M  V30 17 C 4.060542 2.569150 3.674134 0
M  V30 18 C 3.178753 1.889908 2.885499 0
M  V30 19 N -1.733970 -0.684734 0.060397 0
M  V30 20 C -2.952944 -1.149772 0.226539 0
M  V30 21 C -4.141637 -0.330242 0.227894 0
M  V30 22 C -5.340997 -1.042126 0.396842 0
M  V30 23 C -6.454957 -0.230597 0.355972 0
M  V30 24 N -6.500659 1.089604 0.181060 0
M  V30 25 C -5.337561 1.801591 0.014206 0
M  V30 26 C -4.183773 1.025787 0.047899 0
M  V30 27 N -3.020603 -2.488980 0.343290 0
M  V30 28 C -1.943462 -3.272789 0.293773 0
M  V30 29 H -4.257804 -4.776813 0.850517 0
M  V30 30 H -3.241025 -6.258847 1.325197 0
M  V30 31 H -3.723270 -5.930560 -0.360786 0
M  V30 32 H 0.631752 -0.119040 -0.286722 0
M  V30 33 H 2.639340 -2.069529 -0.530921 0
M  V30 34 H 2.346416 -0.647750 -1.489840 0
M  V30 35 H 2.969345 -0.654164 1.525673 0
M  V30 36 H 4.585049 0.454557 -0.594945 0
M  V30 37 H 4.351945 -1.196475 -0.666173 0
M  V30 38 H 2.572155 1.670387 -0.391982 0
M  V30 39 H 1.457092 1.248291 0.984804 0
M  V30 40 H 4.802315 2.671044 -0.026869 0
M  V30 41 H 6.230134 3.776382 1.523266 0
M  V30 42 H 5.886033 3.811776 3.895721 0
M  V30 43 H 3.865664 2.564102 4.757533 0
M  V30 44 H 2.351842 1.387299 3.320945 0
M  V30 45 H -5.398932 -2.104468 0.539509 0
M  V30 46 H -7.434616 -0.673352 0.474033 0
M  V30 47 H -5.234220 2.842933 -0.135323 0
M  V30 48 H -3.188743 1.425885 -0.063960 0
M  V30 END ATOM
M  V30 BEGIN BOND
M  V30 1 1 1 2
M  V30 2 2 2 3
M  V30 3 1 3 4
M  V30 4 1 3 5
M  V30 5 1 5 6
M  V30 6 2 6 7
M  V30 7 1 7 8
M  V30 8 1 8 9
M  V30 9 1 9 10
M  V30 10 1 10 11
M  V30 11 1 10 12
M  V30 12 1 12 13
M  V30 13 2 13 14
M  V30 14 1 14 15
M  V30 15 2 15 16
M  V30 16 1 16 17
M  V30 17 2 17 18
M  V30 18 1 7 19
M  V30 19 2 19 20
M  V30 20 1 20 21
M  V30 21 2 21 22
M  V30 22 1 22 23
M  V30 23 2 23 24
M  V30 24 1 24 25
M  V30 25 2 25 26
M  V30 26 1 20 27
M  V30 27 2 27 28
M  V30 28 1 28 2
M  V30 29 1 28 6
M  V30 30 1 18 13
M  V30 31 1 26 21
M  V30 32 1 1 29
M  V30 33 1 1 30
M  V30 34 1 1 31
M  V30 35 1 8 32
M  V30 36 1 9 33
M  V30 37 1 9 34
M  V30 38 1 10 35 CFG=1
M  V30 39 1 11 36
M  V30 40 1 11 37
M  V30 41 1 12 38
M  V30 42 1 12 39
M  V30 43 1 14 40
M  V30 44 1 15 41
M  V30 45 1 16 42
M  V30 46 1 17 43
M  V30 47 1 18 44
M  V30 48 1 22 45
M  V30 49 1 23 46
M  V30 50 1 25 47
M  V30 51 1 26 48
M  V30 END BOND
M  V30 END CTAB
M  END
>  <Dataset>  (234) 
ChEMBL_Kinases

>  <Ligand_Instance>  (234) 
nan

>  <PDB_ID>  (234) 
nan

>  <Standardized_SMILES>  (234) 
Cc1c(Br)sc2c(NC[C@@H](N)Cc3ccccc3)nc(-c3ccncc3)nc12

>  <Name>  (234) 
nan

>  <Pocket>  (234) 
nan

>  <ATP_Site>  (234) 
nan

>  <Peripheral>  (234) 
nan

>  <Num_H_Atoms_ProtBoundConf>  (234) 
nan

>  <Num_Resolved_Atoms>  (234) 
nan

>  <Num_Not_Resolved_Atoms>  (234) 
nan

$$$$
CHEMBL3731352
     RDKit          3D

  0  0  0  0  0  0  0  0  0  0999 V3000
M  V30 BEGIN CTAB
M  V30 COUNTS 48 51 0 0 0
M  V30 BEGIN ATOM
M  V30 1 C 3.167098 -3.636468 2.673087 0
M  V30 2 C 2.291271 -4.829403 2.272992 0 CFG=1
M  V30 3 O 1.852752 -5.404787 3.459821 0
M  V30 4 C 1.144041 -4.375536 1.422063 0
M  V30 5 N 1.557057 -3.765140 0.166016 0
M  V30 6 C 0.388353 -3.362114 -0.580676 0
M  V30 7 C -0.066244 -2.084183 -0.341384 0
M  V30 8 C -1.178770 -1.664836 -1.035243 0
M  V30 9 C -1.654067 -0.308576 -0.775433 0
M  V30 10 N -1.001664 0.487848 0.123827 0
M  V30 11 C -1.433270 1.728329 0.364003 0
M  V30 12 N -0.883976 2.676741 1.252410 0
M  V30 13 C 0.271505 2.102915 1.907425 0 CFG=2
M  V30 14 C 0.808879 3.167390 2.840957 0
M  V30 15 C 2.260318 2.763065 2.976477 0
M  V30 16 N 2.616518 2.065434 1.778669 0
M  V30 17 C 1.425636 1.880916 0.979172 0
M  V30 18 C -2.562225 2.100775 -0.364927 0
M  V30 19 S -3.527251 3.700766 -0.382338 0
M  V30 20 C -4.806745 3.104936 -1.689417 0
M  V30 21 C -4.350412 1.808485 -1.936294 0
M  V30 22 C -3.267759 1.322095 -1.298379 0
M  V30 23 N -2.732164 0.100368 -1.446357 0
M  V30 24 C -1.805634 -2.500719 -1.932751 0
M  V30 25 C -1.307433 -3.775515 -2.135606 0
M  V30 26 N -0.215133 -4.205262 -1.462886 0
M  V30 27 H 4.152579 -4.013574 3.047760 0
M  V30 28 H 3.381385 -3.076517 1.727320 0
M  V30 29 H 2.633895 -3.015378 3.405737 0
M  V30 30 H 2.864326 -5.580673 1.723157 0
M  V30 31 H 0.875870 -5.486909 3.536486 0
M  V30 32 H 0.520979 -5.242694 1.174940 0
M  V30 33 H 0.469379 -3.667415 1.971954 0
M  V30 34 H 2.587374 -3.678459 -0.068041 0
M  V30 35 H 0.420590 -1.428742 0.358612 0
M  V30 36 H -1.301876 3.622635 1.364395 0
M  V30 37 H 0.035449 1.154572 2.434263 0
M  V30 38 H 0.290997 3.195865 3.811422 0
M  V30 39 H 0.694402 4.137407 2.310537 0
M  V30 40 H 2.333494 2.146883 3.897236 0
M  V30 41 H 2.925066 3.650966 3.155421 0
M  V30 42 H 3.082391 1.174754 2.034996 0
M  V30 43 H 1.430789 0.820189 0.614658 0
M  V30 44 H 1.357114 2.614774 0.150177 0
M  V30 45 H -5.580149 3.703390 -2.026535 0
M  V30 46 H -4.954613 1.296988 -2.662283 0
M  V30 47 H -2.671040 -2.140039 -2.456191 0
M  V30 48 H -1.795058 -4.452761 -2.846524 0
M  V30 END ATOM
M  V30 BEGIN BOND
M  V30 1 1 1 2
M  V30 2 1 2 3
M  V30 3 1 2 4
M  V30 4 1 4 5
M  V30 5 1 5 6
M  V30 6 2 6 7
M  V30 7 1 7 8
M  V30 8 1 8 9
M  V30 9 2 9 10
M  V30 10 1 10 11
M  V30 11 1 11 12
M  V30 12 1 12 13
M  V30 13 1 13 14
M  V30 14 1 14 15
M  V30 15 1 15 16
M  V30 16 1 16 17
M  V30 17 2 11 18
M  V30 18 1 18 19
M  V30 19 1 19 20
M  V30 20 2 20 21
M  V30 21 1 21 22
M  V30 22 2 22 23
M  V30 23 2 8 24
M  V30 24 1 24 25
M  V30 25 2 25 26
M  V30 26 1 26 6
M  V30 27 1 23 9
M  V30 28 1 17 13
M  V30 29 1 22 18
M  V30 30 1 1 27
M  V30 31 1 1 28
M  V30 32 1 1 29
M  V30 33 1 2 30 CFG=3
M  V30 34 1 3 31
M  V30 35 1 4 32
M  V30 36 1 4 33
M  V30 37 1 5 34
M  V30 38 1 7 35
M  V30 39 1 12 36
M  V30 40 1 13 37 CFG=1
M  V30 41 1 14 38
M  V30 42 1 14 39
M  V30 43 1 15 40
M  V30 44 1 15 41
M  V30 45 1 16 42
M  V30 46 1 17 43
M  V30 47 1 17 44
M  V30 48 1 20 45
M  V30 49 1 21 46
M  V30 50 1 24 47
M  V30 51 1 25 48
M  V30 END BOND
M  V30 END CTAB
M  END
>  <Dataset>  (235) 
ChEMBL_Kinases

>  <Ligand_Instance>  (235) 
nan

>  <PDB_ID>  (235) 
nan

>  <Standardized_SMILES>  (235) 
C[C@@H](O)CNc1cc(-c2nc(N[C@@H]3CCNC3)c3sccc3n2)ccn1

>  <Name>  (235) 
nan

>  <Pocket>  (235) 
nan

>  <ATP_Site>  (235) 
nan

>  <Peripheral>  (235) 
nan

>  <Num_H_Atoms_ProtBoundConf>  (235) 
nan

>  <Num_Resolved_Atoms>  (235) 
nan

>  <Num_Not_Resolved_Atoms>  (235) 
nan

$$$$
CHEMBL3731348
     RDKit          3D

  0  0  0  0  0  0  0  0  0  0999 V3000
M  V30 BEGIN CTAB
M  V30 COUNTS 60 65 0 0 0
M  V30 BEGIN ATOM
M  V30 1 N 1.297275 -1.604025 0.967926 0
M  V30 2 C 0.215809 -2.485230 1.329829 0 CFG=1
M  V30 3 C -0.639117 -1.900100 2.397151 0
M  V30 4 O -1.274666 -0.714952 2.138383 0
M  V30 5 C -0.831747 0.528924 1.831903 0
M  V30 6 N 0.458333 0.817960 1.727681 0
M  V30 7 C 0.971380 1.997622 1.435469 0
M  V30 8 C 2.377826 2.358899 1.312420 0
M  V30 9 C 3.405399 1.457021 1.501130 0
M  V30 10 C 4.738344 1.744584 1.398202 0
M  V30 11 N 5.092172 3.015091 1.086007 0
M  V30 12 C 4.151136 3.936496 0.890463 0
M  V30 13 C 2.811368 3.646084 0.994219 0
M  V30 14 N 0.087346 2.987846 1.226915 0
M  V30 15 C -1.227202 2.783838 1.311798 0
M  V30 16 S -2.650695 3.844230 1.102008 0
M  V30 17 C -3.887774 2.571455 1.436543 0
M  V30 18 C -3.139679 1.461125 1.677059 0
M  V30 19 C -1.770112 1.530904 1.622164 0
M  V30 20 C -4.094085 0.361356 1.963339 0
M  V30 21 C -4.991483 0.846611 3.092760 0
M  V30 22 C -5.954918 1.813517 2.459503 0
M  V30 23 C -5.326161 2.699640 1.447136 0
M  V30 24 C -0.580174 -2.934862 0.122387 0
M  V30 25 C 0.305100 -3.661949 -0.822661 0
M  V30 26 C 0.419025 -5.044979 -0.647906 0
M  V30 27 C 1.193038 -5.891591 -1.426538 0
M  V30 28 C 1.897624 -5.291172 -2.450376 0
M  V30 29 C 2.672104 -6.129008 -3.231183 0
M  V30 30 C 3.392250 -5.569657 -4.264712 0
M  V30 31 C 3.298063 -4.206414 -4.459527 0
M  V30 32 C 2.531081 -3.368650 -3.688204 0
M  V30 33 C 1.812193 -3.933421 -2.655091 0
M  V30 34 C 1.036442 -3.108951 -1.869337 0
M  V30 35 H 1.873485 -2.087777 0.215546 0
M  V30 36 H 1.961674 -1.615825 1.799026 0
M  V30 37 H 0.702059 -3.398745 1.767518 0
M  V30 38 H -1.450069 -2.670283 2.592219 0
M  V30 39 H -0.050273 -1.911659 3.343656 0
M  V30 40 H 3.173412 0.447537 1.748087 0
M  V30 41 H 5.530674 1.029678 1.548241 0
M  V30 42 H 4.397303 4.956351 0.640690 0
M  V30 43 H 2.062102 4.409444 0.831385 0
M  V30 44 H -3.604822 -0.588390 2.207168 0
M  V30 45 H -4.690933 0.190804 1.050410 0
M  V30 46 H -4.349677 1.389989 3.835062 0
M  V30 47 H -5.507567 -0.021862 3.509449 0
M  V30 48 H -6.463117 2.366710 3.279210 0
M  V30 49 H -6.725542 1.171914 1.947959 0
M  V30 50 H -5.726905 2.492903 0.434312 0
M  V30 51 H -5.650399 3.753041 1.667245 0
M  V30 52 H -1.058126 -2.089885 -0.397709 0
M  V30 53 H -1.393696 -3.617680 0.436009 0
M  V30 54 H -0.134205 -5.520607 0.157046 0
M  V30 55 H 1.221190 -6.944614 -1.220085 0
M  V30 56 H 2.719768 -7.205729 -3.043798 0
M  V30 57 H 3.991826 -6.237036 -4.864990 0
M  V30 58 H 3.895497 -3.851217 -5.291835 0
M  V30 59 H 2.494894 -2.291100 -3.890322 0
M  V30 60 H 0.942626 -2.059167 -1.993489 0
M  V30 END ATOM
M  V30 BEGIN BOND
M  V30 1 1 1 2
M  V30 2 1 2 3
M  V30 3 1 3 4
M  V30 4 1 4 5
M  V30 5 2 5 6
M  V30 6 1 6 7
M  V30 7 1 7 8
M  V30 8 2 8 9
M  V30 9 1 9 10
M  V30 10 2 10 11
M  V30 11 1 11 12
M  V30 12 2 12 13
M  V30 13 2 7 14
M  V30 14 1 14 15
M  V30 15 1 15 16
M  V30 16 1 16 17
M  V30 17 2 17 18
M  V30 18 1 18 19
M  V30 19 1 18 20
M  V30 20 1 20 21
M  V30 21 1 21 22
M  V30 22 1 22 23
M  V30 23 1 2 24
M  V30 24 1 24 25
M  V30 25 2 25 26
M  V30 26 1 26 27
M  V30 27 2 27 28
M  V30 28 1 28 29
M  V30 29 2 29 30
M  V30 30 1 30 31
M  V30 31 2 31 32
M  V30 32 1 32 33
M  V30 33 2 33 34
M  V30 34 1 19 5
M  V30 35 1 34 25
M  V30 36 1 13 8
M  V30 37 2 19 15
M  V30 38 1 33 28
M  V30 39 1 23 17
M  V30 40 1 1 35
M  V30 41 1 1 36
M  V30 42 1 2 37 CFG=1
M  V30 43 1 3 38
M  V30 44 1 3 39
M  V30 45 1 9 40
M  V30 46 1 10 41
M  V30 47 1 12 42
M  V30 48 1 13 43
M  V30 49 1 20 44
M  V30 50 1 20 45
M  V30 51 1 21 46
M  V30 52 1 21 47
M  V30 53 1 22 48
M  V30 54 1 22 49
M  V30 55 1 23 50
M  V30 56 1 23 51
M  V30 57 1 24 52
M  V30 58 1 24 53
M  V30 59 1 26 54
M  V30 60 1 27 55
M  V30 61 1 29 56
M  V30 62 1 30 57
M  V30 63 1 31 58
M  V30 64 1 32 59
M  V30 65 1 34 60
M  V30 END BOND
M  V30 END CTAB
M  END
>  <Dataset>  (236) 
ChEMBL_Kinases

>  <Ligand_Instance>  (236) 
nan

>  <PDB_ID>  (236) 
nan

>  <Standardized_SMILES>  (236) 
N[C@@H](COc1nc(-c2ccncc2)nc2sc3c(c12)CCCC3)Cc1ccc2ccccc2c1

>  <Name>  (236) 
nan

>  <Pocket>  (236) 
nan

>  <ATP_Site>  (236) 
nan

>  <Peripheral>  (236) 
nan

>  <Num_H_Atoms_ProtBoundConf>  (236) 
nan

>  <Num_Resolved_Atoms>  (236) 
nan

>  <Num_Not_Resolved_Atoms>  (236) 
nan

$$$$
CHEMBL3731347
     RDKit          3D

  0  0  0  0  0  0  0  0  0  0999 V3000
M  V30 BEGIN CTAB
M  V30 COUNTS 67 71 0 0 0
M  V30 BEGIN ATOM
M  V30 1 C 7.159299 0.409971 2.438949 0
M  V30 2 C 6.112911 0.464182 1.321540 0
M  V30 3 C 6.106182 0.535732 -0.025834 0
M  V30 4 C 4.903443 0.554956 -0.611563 0
M  V30 5 C 3.780165 0.511691 0.024736 0
M  V30 6 C 2.329576 0.500731 -0.369640 0
M  V30 7 C 1.988347 0.639548 -1.626674 0
M  V30 8 C 2.488395 0.811853 -2.996926 0
M  V30 9 C 1.370164 0.928590 -4.043887 0
M  V30 10 C 3.288410 -0.391995 -3.484809 0
M  V30 11 C 3.293074 2.043996 -3.126251 0
M  V30 12 S 0.156615 0.528925 -1.557272 0
M  V30 13 C 0.055370 0.302737 0.196433 0
M  V30 14 C -1.057556 0.126528 1.034757 0
M  V30 15 N -2.252089 0.150656 0.249723 0
M  V30 16 C -3.577363 0.123354 -0.212648 0
M  V30 17 C -4.450259 -1.047383 0.089379 0 CFG=1
M  V30 18 N -5.739967 -0.790841 -0.521399 0
M  V30 19 C -3.950076 -2.371475 -0.402172 0
M  V30 20 C -4.941108 -3.427244 -0.015019 0
M  V30 21 C -6.029778 -3.925133 -0.741297 0
M  V30 22 C -6.817876 -4.899621 -0.156610 0
M  V30 23 C -6.558683 -5.380698 1.107107 0
M  V30 24 C -5.507557 -4.922353 1.853410 0
M  V30 25 C -4.727674 -3.954677 1.261270 0
M  V30 26 N -0.800789 -0.032236 2.354567 0
M  V30 27 C 0.468272 -0.009452 2.757960 0
M  V30 28 C 0.655191 -0.190337 4.185136 0
M  V30 29 C 1.875733 -0.161473 4.808981 0
M  V30 30 C 2.066144 -0.330952 6.171663 0
M  V30 31 N 0.972527 -0.533680 6.899879 0
M  V30 32 C -0.235330 -0.573980 6.370353 0
M  V30 33 C -0.459135 -0.406934 5.009207 0
M  V30 34 N 1.422548 0.160534 1.888887 0
M  V30 35 C 1.344094 0.327184 0.570757 0
M  V30 36 S 4.329428 0.428518 1.662477 0
M  V30 37 H 6.683755 0.716240 3.391281 0
M  V30 38 H 7.968823 1.160671 2.221440 0
M  V30 39 H 7.519216 -0.614901 2.541208 0
M  V30 40 H 7.125475 0.563904 -0.372298 0
M  V30 41 H 5.015848 0.600741 -1.668785 0
M  V30 42 H 0.646333 1.675130 -3.656492 0
M  V30 43 H 0.913086 -0.048642 -4.281332 0
M  V30 44 H 1.866473 1.381303 -4.925625 0
M  V30 45 H 2.692660 -1.068659 -4.134361 0
M  V30 46 H 4.196830 -0.099728 -4.022065 0
M  V30 47 H 3.482224 -1.022788 -2.571341 0
M  V30 48 H 2.738838 2.804476 -3.713269 0
M  V30 49 H 4.234733 1.849221 -3.692357 0
M  V30 50 H 3.486800 2.539630 -2.148647 0
M  V30 51 H -2.809801 -0.005889 1.153227 0
M  V30 52 H -4.122968 1.071939 0.030803 0
M  V30 53 H -3.586581 0.169434 -1.361019 0
M  V30 54 H -4.667734 -1.076068 1.198817 0
M  V30 55 H -6.535897 -1.212219 0.001808 0
M  V30 56 H -5.934159 0.259683 -0.523673 0
M  V30 57 H -2.976195 -2.689156 -0.033382 0
M  V30 58 H -3.877468 -2.404912 -1.524999 0
M  V30 59 H -6.106846 -3.456137 -1.717572 0
M  V30 60 H -7.637280 -5.211187 -0.829849 0
M  V30 61 H -7.270124 -6.142406 1.422884 0
M  V30 62 H -5.384789 -5.359666 2.833598 0
M  V30 63 H -3.899500 -3.626902 1.906773 0
M  V30 64 H 2.694854 0.009035 4.130993 0
M  V30 65 H 3.101390 -0.270948 6.496937 0
M  V30 66 H -1.127378 -0.742107 6.972175 0
M  V30 67 H -1.480503 -0.448530 4.614726 0
M  V30 END ATOM
M  V30 BEGIN BOND
M  V30 1 1 1 2
M  V30 2 2 2 3
M  V30 3 1 3 4
M  V30 4 2 4 5
M  V30 5 1 5 6
M  V30 6 2 6 7
M  V30 7 1 7 8
M  V30 8 1 8 9
M  V30 9 1 8 10
M  V30 10 1 8 11
M  V30 11 1 7 12
M  V30 12 1 12 13
M  V30 13 2 13 14
M  V30 14 1 14 15
M  V30 15 1 15 16
M  V30 16 1 16 17
M  V30 17 1 17 18
M  V30 18 1 17 19
M  V30 19 1 19 20
M  V30 20 2 20 21
M  V30 21 1 21 22
M  V30 22 2 22 23
M  V30 23 1 23 24
M  V30 24 2 24 25
M  V30 25 1 14 26
M  V30 26 2 26 27
M  V30 27 1 27 28
M  V30 28 2 28 29
M  V30 29 1 29 30
M  V30 30 2 30 31
M  V30 31 1 31 32
M  V30 32 2 32 33
M  V30 33 1 27 34
M  V30 34 2 34 35
M  V30 35 1 5 36
M  V30 36 1 36 2
M  V30 37 1 35 6
M  V30 38 1 35 13
M  V30 39 1 25 20
M  V30 40 1 33 28
M  V30 41 1 1 37
M  V30 42 1 1 38
M  V30 43 1 1 39
M  V30 44 1 3 40
M  V30 45 1 4 41
M  V30 46 1 9 42
M  V30 47 1 9 43
M  V30 48 1 9 44
M  V30 49 1 10 45
M  V30 50 1 10 46
M  V30 51 1 10 47
M  V30 52 1 11 48
M  V30 53 1 11 49
M  V30 54 1 11 50
M  V30 55 1 15 51
M  V30 56 1 16 52
M  V30 57 1 16 53
M  V30 58 1 17 54 CFG=1
M  V30 59 1 18 55
M  V30 60 1 18 56
M  V30 61 1 19 57
M  V30 62 1 19 58
M  V30 63 1 21 59
M  V30 64 1 22 60
M  V30 65 1 23 61
M  V30 66 1 24 62
M  V30 67 1 25 63
M  V30 68 1 29 64
M  V30 69 1 30 65
M  V30 70 1 32 66
M  V30 71 1 33 67
M  V30 END BOND
M  V30 END CTAB
M  END
>  <Dataset>  (237) 
ChEMBL_Kinases

>  <Ligand_Instance>  (237) 
nan

>  <PDB_ID>  (237) 
nan

>  <Standardized_SMILES>  (237) 
Cc1ccc(-c2c(C(C)(C)C)sc3c(NC[C@@H](N)Cc4ccccc4)nc(-c4ccncc4)nc23)s1

>  <Name>  (237) 
nan

>  <Pocket>  (237) 
nan

>  <ATP_Site>  (237) 
nan

>  <Peripheral>  (237) 
nan

>  <Num_H_Atoms_ProtBoundConf>  (237) 
nan

>  <Num_Resolved_Atoms>  (237) 
nan

>  <Num_Not_Resolved_Atoms>  (237) 
nan

$$$$
CHEMBL3731344
     RDKit          3D

  0  0  0  0  0  0  0  0  0  0999 V3000
M  V30 BEGIN CTAB
M  V30 COUNTS 55 59 0 0 0
M  V30 BEGIN ATOM
M  V30 1 N -1.104187 -1.685349 0.079017 0
M  V30 2 C -2.302814 -1.407549 -0.672747 0 CFG=2
M  V30 3 C -2.375602 -0.004734 -1.198623 0
M  V30 4 N -1.279495 0.310177 -2.108078 0
M  V30 5 C 0.045255 0.563887 -1.662281 0
M  V30 6 N 0.195460 0.559047 -0.335080 0
M  V30 7 C 1.293977 0.800138 0.367576 0
M  V30 8 C 1.382595 0.778472 1.818835 0
M  V30 9 C 2.592069 1.047138 2.425629 0
M  V30 10 C 2.776875 1.050477 3.774317 0
M  V30 11 N 1.720307 0.776593 4.547781 0
M  V30 12 C 0.522148 0.508782 4.009632 0
M  V30 13 C 0.325432 0.503377 2.639227 0
M  V30 14 N 2.368926 1.079864 -0.379963 0
M  V30 15 C 2.291504 1.102974 -1.751984 0
M  V30 16 S 3.511944 1.433676 -2.929952 0
M  V30 17 C 2.406412 1.213618 -4.372370 0
M  V30 18 C 1.157762 0.894551 -3.792027 0
M  V30 19 C 1.151308 0.851011 -2.435084 0
M  V30 20 C 0.338325 0.724856 -5.001083 0
M  V30 21 C 0.952963 -0.307435 -5.968615 0
M  V30 22 C 2.166879 0.242943 -6.648918 0
M  V30 23 C 2.799840 1.361593 -5.818237 0
M  V30 24 C -3.497587 -1.883769 0.074242 0
M  V30 25 C -3.739498 -1.309931 1.389775 0
M  V30 26 C -3.347884 -2.043645 2.516011 0
M  V30 27 C -3.514468 -1.590125 3.823171 0
M  V30 28 C -4.095516 -0.351737 4.049971 0
M  V30 29 C -4.497326 0.405902 2.971856 0
M  V30 30 C -4.305199 -0.098517 1.706224 0
M  V30 31 F -4.735631 0.675927 0.684748 0
M  V30 32 H -0.642638 -2.553561 -0.250019 0
M  V30 33 H -1.357083 -1.777894 1.091240 0
M  V30 34 H -2.223289 -2.086162 -1.597593 0
M  V30 35 H -2.291068 0.713098 -0.302640 0
M  V30 36 H -3.378115 0.199642 -1.587227 0
M  V30 37 H -1.789016 0.270574 -2.975905 0
M  V30 38 H 3.453766 1.271074 1.779468 0
M  V30 39 H 3.720112 1.259473 4.274054 0
M  V30 40 H -0.316350 0.290164 4.666260 0
M  V30 41 H -0.654028 0.285223 2.187337 0
M  V30 42 H -0.629048 0.272127 -4.764349 0
M  V30 43 H 0.217640 1.689315 -5.550140 0
M  V30 44 H 1.227300 -1.222427 -5.407654 0
M  V30 45 H 0.199967 -0.593159 -6.719585 0
M  V30 46 H 2.928006 -0.560366 -6.714627 0
M  V30 47 H 1.943170 0.702530 -7.636790 0
M  V30 48 H 3.880672 1.302065 -5.923979 0
M  V30 49 H 2.368449 2.331950 -6.132553 0
M  V30 50 H -4.423903 -1.766478 -0.537823 0
M  V30 51 H -3.390635 -3.004659 0.163720 0
M  V30 52 H -2.885459 -3.021430 2.454170 0
M  V30 53 H -3.204293 -2.174414 4.671886 0
M  V30 54 H -4.207482 -0.035067 5.074024 0
M  V30 55 H -4.952307 1.375052 3.124798 0
M  V30 END ATOM
M  V30 BEGIN BOND
M  V30 1 1 1 2
M  V30 2 1 2 3
M  V30 3 1 3 4
M  V30 4 1 4 5
M  V30 5 2 5 6
M  V30 6 1 6 7
M  V30 7 1 7 8
M  V30 8 2 8 9
M  V30 9 1 9 10
M  V30 10 2 10 11
M  V30 11 1 11 12
M  V30 12 2 12 13
M  V30 13 2 7 14
M  V30 14 1 14 15
M  V30 15 1 15 16
M  V30 16 1 16 17
M  V30 17 2 17 18
M  V30 18 1 18 19
M  V30 19 1 18 20
M  V30 20 1 20 21
M  V30 21 1 21 22
M  V30 22 1 22 23
M  V30 23 1 2 24
M  V30 24 1 24 25
M  V30 25 2 25 26
M  V30 26 1 26 27
M  V30 27 2 27 28
M  V30 28 1 28 29
M  V30 29 2 29 30
M  V30 30 1 30 31
M  V30 31 1 19 5
M  V30 32 1 30 25
M  V30 33 1 13 8
M  V30 34 2 19 15
M  V30 35 1 23 17
M  V30 36 1 1 32
M  V30 37 1 1 33
M  V30 38 1 2 34 CFG=3
M  V30 39 1 3 35
M  V30 40 1 3 36
M  V30 41 1 4 37
M  V30 42 1 9 38
M  V30 43 1 10 39
M  V30 44 1 12 40
M  V30 45 1 13 41
M  V30 46 1 20 42
M  V30 47 1 20 43
M  V30 48 1 21 44
M  V30 49 1 21 45
M  V30 50 1 22 46
M  V30 51 1 22 47
M  V30 52 1 23 48
M  V30 53 1 23 49
M  V30 54 1 24 50
M  V30 55 1 24 51
M  V30 56 1 26 52
M  V30 57 1 27 53
M  V30 58 1 28 54
M  V30 59 1 29 55
M  V30 END BOND
M  V30 END CTAB
M  END
>  <Dataset>  (238) 
ChEMBL_Kinases

>  <Ligand_Instance>  (238) 
nan

>  <PDB_ID>  (238) 
nan

>  <Standardized_SMILES>  (238) 
N[C@H](CNc1nc(-c2ccncc2)nc2sc3c(c12)CCCC3)Cc1ccccc1F

>  <Name>  (238) 
nan

>  <Pocket>  (238) 
nan

>  <ATP_Site>  (238) 
nan

>  <Peripheral>  (238) 
nan

>  <Num_H_Atoms_ProtBoundConf>  (238) 
nan

>  <Num_Resolved_Atoms>  (238) 
nan

>  <Num_Not_Resolved_Atoms>  (238) 
nan

$$$$
CHEMBL3731343
     RDKit          3D

  0  0  0  0  0  0  0  0  0  0999 V3000
M  V30 BEGIN CTAB
M  V30 COUNTS 71 75 0 0 0
M  V30 BEGIN ATOM
M  V30 1 C 3.783769 -2.946625 -0.513635 0
M  V30 2 O 3.092208 -1.736609 -0.344808 0
M  V30 3 C 3.299463 -0.586112 -1.097739 0
M  V30 4 C 4.249281 -0.588841 -2.099537 0
M  V30 5 C 4.415721 0.580982 -2.818450 0
M  V30 6 C 3.676416 1.727139 -2.569757 0
M  V30 7 C 3.938434 2.930476 -3.407459 0
M  V30 8 C 3.645670 2.625123 -4.863719 0
M  V30 9 C 5.372990 3.348746 -3.315671 0
M  V30 10 C 2.741813 1.708154 -1.573912 0
M  V30 11 C 2.534911 0.555122 -0.820096 0
M  V30 12 C 1.553519 0.472565 0.253863 0
M  V30 13 C 2.057893 0.832807 1.525969 0
M  V30 14 C 3.302883 1.263823 2.027351 0
M  V30 15 S 0.541017 0.610269 2.644894 0
M  V30 16 C -0.506636 0.098048 1.358587 0
M  V30 17 C -1.848919 -0.273681 1.342499 0
M  V30 18 N -2.505345 -0.235785 2.599006 0
M  V30 19 C -3.900967 -0.619531 2.599083 0
M  V30 20 C -4.526973 -0.554338 3.961602 0 CFG=1
M  V30 21 N -5.922413 -0.938705 3.946818 0
M  V30 22 C -3.815702 -1.338673 5.007492 0
M  V30 23 C -3.717476 -2.784819 4.731960 0
M  V30 24 C -4.704647 -3.632123 5.167104 0
M  V30 25 C -4.662390 -4.992951 4.937515 0
M  V30 26 C -3.619494 -5.581317 4.253788 0
M  V30 27 C -2.603914 -4.737079 3.802013 0
M  V30 28 C -2.670560 -3.362738 4.047616 0
M  V30 29 N -2.459756 -0.639752 0.201885 0
M  V30 30 C -1.692806 -0.626285 -0.933449 0
M  V30 31 C -2.259302 -1.006849 -2.233771 0
M  V30 32 C -3.586650 -1.371017 -2.241865 0
M  V30 33 C -4.153623 -1.734344 -3.445183 0
M  V30 34 N -3.470785 -1.747064 -4.596225 0
M  V30 35 C -2.194287 -1.391636 -4.558405 0
M  V30 36 C -1.530596 -1.009014 -3.396051 0
M  V30 37 N -0.397309 -0.268716 -0.924258 0
M  V30 38 C 0.238228 0.101763 0.202330 0
M  V30 39 H 3.376947 -3.518406 -1.364670 0
M  V30 40 H 4.880668 -2.832279 -0.568000 0
M  V30 41 H 3.590966 -3.531556 0.429922 0
M  V30 42 H 4.818038 -1.485868 -2.283619 0
M  V30 43 H 5.184053 0.512666 -3.598624 0
M  V30 44 H 3.273951 3.758360 -3.086095 0
M  V30 45 H 2.696391 2.064469 -4.988367 0
M  V30 46 H 4.457260 1.989693 -5.252097 0
M  V30 47 H 3.555573 3.530720 -5.470984 0
M  V30 48 H 5.589514 3.984130 -4.222648 0
M  V30 49 H 6.024870 2.438217 -3.453812 0
M  V30 50 H 5.633687 3.886100 -2.401875 0
M  V30 51 H 2.149430 2.588645 -1.357036 0
M  V30 52 H 3.855767 1.839571 1.294514 0
M  V30 53 H 3.950751 0.444845 2.398337 0
M  V30 54 H 3.161574 1.958102 2.906575 0
M  V30 55 H -2.060563 0.039886 3.479791 0
M  V30 56 H -4.416498 0.078889 1.916759 0
M  V30 57 H -4.002332 -1.636814 2.137238 0
M  V30 58 H -4.495412 0.510361 4.285216 0
M  V30 59 H -6.154638 -1.600294 3.178223 0
M  V30 60 H -6.292152 -1.196538 4.862808 0
M  V30 61 H -2.784876 -0.943612 5.111926 0
M  V30 62 H -4.314367 -1.122990 5.976410 0
M  V30 63 H -5.570669 -3.325230 5.707674 0
M  V30 64 H -5.443865 -5.682723 5.279456 0
M  V30 65 H -3.596801 -6.639426 4.081113 0
M  V30 66 H -1.768110 -5.160317 3.261540 0
M  V30 67 H -1.867350 -2.735551 3.684458 0
M  V30 68 H -4.214359 -1.386398 -1.337762 0
M  V30 69 H -5.198106 -2.018971 -3.441437 0
M  V30 70 H -1.571410 -1.374967 -5.448093 0
M  V30 71 H -0.504328 -0.712563 -3.304628 0
M  V30 END ATOM
M  V30 BEGIN BOND
M  V30 1 1 1 2
M  V30 2 1 2 3
M  V30 3 2 3 4
M  V30 4 1 4 5
M  V30 5 2 5 6
M  V30 6 1 6 7
M  V30 7 1 7 8
M  V30 8 1 7 9
M  V30 9 1 6 10
M  V30 10 2 10 11
M  V30 11 1 11 12
M  V30 12 2 12 13
M  V30 13 1 13 14
M  V30 14 1 13 15
M  V30 15 1 15 16
M  V30 16 2 16 17
M  V30 17 1 17 18
M  V30 18 1 18 19
M  V30 19 1 19 20
M  V30 20 1 20 21
M  V30 21 1 20 22
M  V30 22 1 22 23
M  V30 23 2 23 24
M  V30 24 1 24 25
M  V30 25 2 25 26
M  V30 26 1 26 27
M  V30 27 2 27 28
M  V30 28 1 17 29
M  V30 29 2 29 30
M  V30 30 1 30 31
M  V30 31 2 31 32
M  V30 32 1 32 33
M  V30 33 2 33 34
M  V30 34 1 34 35
M  V30 35 2 35 36
M  V30 36 1 30 37
M  V30 37 2 37 38
M  V30 38 1 11 3
M  V30 39 1 38 12
M  V30 40 1 38 16
M  V30 41 1 28 23
M  V30 42 1 36 31
M  V30 43 1 1 39
M  V30 44 1 1 40
M  V30 45 1 1 41
M  V30 46 1 4 42
M  V30 47 1 5 43
M  V30 48 1 7 44
M  V30 49 1 8 45
M  V30 50 1 8 46
M  V30 51 1 8 47
M  V30 52 1 9 48
M  V30 53 1 9 49
M  V30 54 1 9 50
M  V30 55 1 10 51
M  V30 56 1 14 52
M  V30 57 1 14 53
M  V30 58 1 14 54
M  V30 59 1 18 55
M  V30 60 1 19 56
M  V30 61 1 19 57
M  V30 62 1 20 58 CFG=1
M  V30 63 1 21 59
M  V30 64 1 21 60
M  V30 65 1 22 61
M  V30 66 1 22 62
M  V30 67 1 24 63
M  V30 68 1 25 64
M  V30 69 1 26 65
M  V30 70 1 27 66
M  V30 71 1 28 67
M  V30 72 1 32 68
M  V30 73 1 33 69
M  V30 74 1 35 70
M  V30 75 1 36 71
M  V30 END BOND
M  V30 END CTAB
M  END
>  <Dataset>  (239) 
ChEMBL_Kinases

>  <Ligand_Instance>  (239) 
nan

>  <PDB_ID>  (239) 
nan

>  <Standardized_SMILES>  (239) 
COc1ccc(C(C)C)cc1-c1c(C)sc2c(NC[C@@H](N)Cc3ccccc3)nc(-c3ccncc3)nc12

>  <Name>  (239) 
nan

>  <Pocket>  (239) 
nan

>  <ATP_Site>  (239) 
nan

>  <Peripheral>  (239) 
nan

>  <Num_H_Atoms_ProtBoundConf>  (239) 
nan

>  <Num_Resolved_Atoms>  (239) 
nan

>  <Num_Not_Resolved_Atoms>  (239) 
nan

$$$$
CHEMBL574209
     RDKit          3D

  0  0  0  0  0  0  0  0  0  0999 V3000
M  V30 BEGIN CTAB
M  V30 COUNTS 46 49 0 0 0
M  V30 BEGIN ATOM
M  V30 1 C 3.758298 4.737574 -1.296697 0
M  V30 2 O 3.233083 4.252111 -0.119899 0
M  V30 3 C 2.442190 3.133799 0.008287 0
M  V30 4 C 2.078059 2.342778 -1.044630 0
M  V30 5 C 1.304883 1.240562 -0.982336 0
M  V30 6 O 0.873507 0.419278 -1.844160 0
M  V30 7 C 0.574843 -0.291924 -2.942773 0
M  V30 8 C 0.781873 0.790542 0.251871 0
M  V30 9 C 1.142982 1.582296 1.316951 0
M  V30 10 C 1.953194 2.728285 1.225255 0
M  V30 11 C 0.634405 1.243566 2.666670 0
M  V30 12 N 0.274493 1.059360 3.877716 0
M  V30 13 N -0.529587 0.034255 4.206987 0
M  V30 14 C -0.840415 -0.716227 3.010761 0
M  V30 15 N -1.607574 -1.578634 3.801025 0
M  V30 16 C -2.220219 -2.742661 3.232217 0
M  V30 17 C -1.470570 -3.434140 2.172489 0
M  V30 18 C -1.540498 -3.296206 0.839037 0
M  V30 19 C -2.794204 -2.488176 0.527086 0
M  V30 20 C -0.881620 -3.753578 -0.256608 0
M  V30 21 C 0.127149 -4.603468 0.272908 0
M  V30 22 C 0.448714 -4.952420 1.619703 0
M  V30 23 C -0.426578 -4.299912 2.504282 0
M  V30 24 Cl -0.051632 -4.706503 4.182964 0
M  V30 25 C -0.097220 0.123188 2.256132 0
M  V30 26 C -0.099869 -0.295007 0.824418 0
M  V30 27 H 4.664221 5.370973 -1.157749 0
M  V30 28 H 3.025036 5.372308 -1.857018 0
M  V30 29 H 4.024283 3.857668 -1.944454 0
M  V30 30 H 2.429252 2.630564 -2.035898 0
M  V30 31 H -0.556506 -0.168615 -3.093603 0
M  V30 32 H 1.139885 0.046288 -3.832171 0
M  V30 33 H 0.825385 -1.389487 -2.869602 0
M  V30 34 H 2.249362 3.364826 2.075190 0
M  V30 35 H 0.720318 1.854864 4.481662 0
M  V30 36 H -1.972843 -1.724482 4.759120 0
M  V30 37 H -2.439488 -3.552542 3.982127 0
M  V30 38 H -3.261800 -2.477819 2.832525 0
M  V30 39 H -2.764476 -1.479349 0.893724 0
M  V30 40 H -2.988723 -2.546115 -0.542102 0
M  V30 41 H -3.671108 -3.057110 0.993060 0
M  V30 42 H -0.996510 -3.597019 -1.285673 0
M  V30 43 H 0.767026 -5.080574 -0.476098 0
M  V30 44 H 1.248191 -5.620189 1.788656 0
M  V30 45 H 0.427454 -1.227814 0.588306 0
M  V30 46 H -1.048346 -0.151583 0.278243 0
M  V30 END ATOM
M  V30 BEGIN BOND
M  V30 1 1 1 2
M  V30 2 1 2 3
M  V30 3 2 3 4
M  V30 4 1 4 5
M  V30 5 1 5 6
M  V30 6 1 6 7
M  V30 7 2 5 8
M  V30 8 1 8 9
M  V30 9 2 9 10
M  V30 10 1 9 11
M  V30 11 1 11 12
M  V30 12 1 12 13
M  V30 13 2 13 14
M  V30 14 1 14 15
M  V30 15 1 15 16
M  V30 16 1 16 17
M  V30 17 2 17 18
M  V30 18 1 18 19
M  V30 19 1 18 20
M  V30 20 2 20 21
M  V30 21 1 21 22
M  V30 22 2 22 23
M  V30 23 1 23 24
M  V30 24 1 14 25
M  V30 25 1 25 26
M  V30 26 1 10 3
M  V30 27 2 25 11
M  V30 28 1 26 8
M  V30 29 1 23 17
M  V30 30 1 1 27
M  V30 31 1 1 28
M  V30 32 1 1 29
M  V30 33 1 4 30
M  V30 34 1 7 31
M  V30 35 1 7 32
M  V30 36 1 7 33
M  V30 37 1 10 34
M  V30 38 1 12 35
M  V30 39 1 15 36
M  V30 40 1 16 37
M  V30 41 1 16 38
M  V30 42 1 19 39
M  V30 43 1 19 40
M  V30 44 1 19 41
M  V30 45 1 20 42
M  V30 46 1 21 43
M  V30 47 1 22 44
M  V30 48 1 26 45
M  V30 49 1 26 46
M  V30 END BOND
M  V30 END CTAB
M  END
>  <Dataset>  (240) 
ChEMBL_Kinases

>  <Ligand_Instance>  (240) 
nan

>  <PDB_ID>  (240) 
nan

>  <Standardized_SMILES>  (240) 
COc1cc(OC)c2c(c1)-c1[nH]nc(NCc3c(C)cccc3Cl)c1C2

>  <Name>  (240) 
nan

>  <Pocket>  (240) 
nan

>  <ATP_Site>  (240) 
nan

>  <Peripheral>  (240) 
nan

>  <Num_H_Atoms_ProtBoundConf>  (240) 
nan

>  <Num_Resolved_Atoms>  (240) 
nan

>  <Num_Not_Resolved_Atoms>  (240) 
nan

$$$$
CHEMBL3731340
     RDKit          3D

  0  0  0  0  0  0  0  0  0  0999 V3000
M  V30 BEGIN CTAB
M  V30 COUNTS 34 35 0 0 0
M  V30 BEGIN ATOM
M  V30 1 N 2.351048 -2.784326 5.983174 0
M  V30 2 C 2.128831 -2.906747 4.860648 0
M  V30 3 C 1.841429 -3.038907 3.463741 0
M  V30 4 C 2.817093 -3.549353 2.656022 0
M  V30 5 C 2.589774 -3.696847 1.302551 0
M  V30 6 C 1.383518 -3.345452 0.682712 0
M  V30 7 N 1.177954 -3.513075 -0.702922 0
M  V30 8 C -0.015628 -3.170040 -1.398613 0
M  V30 9 C -0.402752 -1.765848 -1.416026 0
M  V30 10 O -1.496181 -1.639885 -2.071152 0
M  V30 11 N 0.168990 -0.578822 -0.876366 0
M  V30 12 N -0.489465 0.648380 -1.087215 0
M  V30 13 C -0.756477 1.442096 -0.079182 0
M  V30 14 C -1.423368 2.734283 -0.110780 0
M  V30 15 C -1.635613 3.464446 1.057082 0
M  V30 16 C -2.276564 4.680238 0.930101 0
M  V30 17 N -2.693980 5.174853 -0.250225 0
M  V30 18 C -2.488002 4.463431 -1.394017 0
M  V30 19 C -1.848037 3.230036 -1.339150 0
M  V30 20 C 0.463047 -2.842307 1.569568 0
M  V30 21 C 0.642975 -2.677885 2.916773 0
M  V30 22 H 3.770625 -3.839231 3.075960 0
M  V30 23 H 3.401386 -4.110949 0.691484 0
M  V30 24 H 1.964634 -3.919996 -1.254501 0
M  V30 25 H -0.045306 -3.622835 -2.419720 0
M  V30 26 H -0.852578 -3.709512 -0.860923 0
M  V30 27 H 1.054884 -0.801420 -0.370065 0
M  V30 28 H -0.423024 1.056429 0.898564 0
M  V30 29 H -1.284014 3.026230 1.971532 0
M  V30 30 H -2.409578 5.196235 1.877703 0
M  V30 31 H -2.861282 4.945742 -2.301811 0
M  V30 32 H -1.718613 2.721542 -2.284949 0
M  V30 33 H -0.503628 -2.541317 1.185020 0
M  V30 34 H -0.133703 -2.272670 3.553225 0
M  V30 END ATOM
M  V30 BEGIN BOND
M  V30 1 3 1 2
M  V30 2 1 2 3
M  V30 3 2 3 4
M  V30 4 1 4 5
M  V30 5 2 5 6
M  V30 6 1 6 7
M  V30 7 1 7 8
M  V30 8 1 8 9
M  V30 9 2 9 10
M  V30 10 1 9 11
M  V30 11 1 11 12
M  V30 12 2 12 13
M  V30 13 1 13 14
M  V30 14 2 14 15
M  V30 15 1 15 16
M  V30 16 2 16 17
M  V30 17 1 17 18
M  V30 18 2 18 19
M  V30 19 1 6 20
M  V30 20 2 20 21
M  V30 21 1 21 3
M  V30 22 1 19 14
M  V30 23 1 4 22
M  V30 24 1 5 23
M  V30 25 1 7 24
M  V30 26 1 8 25
M  V30 27 1 8 26
M  V30 28 1 11 27
M  V30 29 1 13 28
M  V30 30 1 15 29
M  V30 31 1 16 30
M  V30 32 1 18 31
M  V30 33 1 19 32
M  V30 34 1 20 33
M  V30 35 1 21 34
M  V30 END BOND
M  V30 END CTAB
M  END
>  <Dataset>  (241) 
ChEMBL_Kinases

>  <Ligand_Instance>  (241) 
nan

>  <PDB_ID>  (241) 
nan

>  <Standardized_SMILES>  (241) 
N#Cc1ccc(NCC(=O)N/N=C/c2ccncc2)cc1

>  <Name>  (241) 
nan

>  <Pocket>  (241) 
nan

>  <ATP_Site>  (241) 
nan

>  <Peripheral>  (241) 
nan

>  <Num_H_Atoms_ProtBoundConf>  (241) 
nan

>  <Num_Resolved_Atoms>  (241) 
nan

>  <Num_Not_Resolved_Atoms>  (241) 
nan

$$$$
CHEMBL3731245
     RDKit          3D

  0  0  0  0  0  0  0  0  0  0999 V3000
M  V30 BEGIN CTAB
M  V30 COUNTS 48 52 0 0 0
M  V30 BEGIN ATOM
M  V30 1 F -5.943902 -2.926187 3.163058 0
M  V30 2 C -5.253059 -1.899751 2.605002 0
M  V30 3 C -3.883053 -1.900953 2.722027 0
M  V30 4 C -3.162500 -0.864773 2.160629 0
M  V30 5 C -3.716629 0.185763 1.482314 0
M  V30 6 N -2.965836 1.244494 0.907465 0
M  V30 7 C -1.547793 1.280847 0.937441 0
M  V30 8 C -1.016856 2.404656 1.611962 0
M  V30 9 S 0.854307 2.132642 1.456336 0
M  V30 10 C 0.738473 0.681374 0.587522 0
M  V30 11 C 1.686423 -0.166279 0.075108 0
M  V30 12 N 3.039607 0.140889 0.280309 0
M  V30 13 C 3.623248 1.223043 1.002889 0 CFG=2
M  V30 14 C 5.145845 1.226344 0.804377 0
M  V30 15 C 5.723132 1.449019 2.185383 0
M  V30 16 N 4.847856 0.591173 2.965482 0
M  V30 17 C 3.540352 1.042083 2.503606 0
M  V30 18 N 1.323510 -1.292037 -0.610021 0
M  V30 19 C -0.019325 -1.505518 -0.743010 0
M  V30 20 C -0.471621 -2.709961 -1.476147 0
M  V30 21 C -1.823894 -2.977340 -1.641704 0
M  V30 22 C -2.148164 -4.121865 -2.338188 0
M  V30 23 N -1.217564 -4.942579 -2.835027 0
M  V30 24 C 0.102431 -4.692419 -2.680012 0
M  V30 25 C 0.479273 -3.561402 -1.991622 0
M  V30 26 F 1.823753 -3.334342 -1.850594 0
M  V30 27 N -0.955510 -0.685236 -0.246743 0
M  V30 28 C -0.593289 0.440752 0.438203 0
M  V30 29 C -5.086987 0.151143 1.386827 0
M  V30 30 C -5.858680 -0.857205 1.927202 0
M  V30 31 H -3.372373 -2.713602 3.253642 0
M  V30 32 H -2.093930 -0.924230 2.289056 0
M  V30 33 H -3.483651 2.024619 0.445019 0
M  V30 34 H -1.504159 3.263871 2.124240 0
M  V30 35 H 3.718566 -0.540803 -0.174360 0
M  V30 36 H 3.282142 2.213199 0.685845 0
M  V30 37 H 5.442931 0.199713 0.488458 0
M  V30 38 H 5.456835 2.012999 0.091246 0
M  V30 39 H 6.743200 1.076874 2.286863 0
M  V30 40 H 5.574010 2.484544 2.525104 0
M  V30 41 H 5.018670 -0.411541 2.845904 0
M  V30 42 H 2.751627 0.286572 2.785672 0
M  V30 43 H 3.370136 1.991401 3.050494 0
M  V30 44 H -2.517848 -2.264003 -1.209613 0
M  V30 45 H -3.209311 -4.295662 -2.446197 0
M  V30 46 H 0.855361 -5.348887 -3.077400 0
M  V30 47 H -5.620705 0.935822 0.870072 0
M  V30 48 H -6.931023 -0.914470 1.870609 0
M  V30 END ATOM
M  V30 BEGIN BOND
M  V30 1 1 1 2
M  V30 2 2 2 3
M  V30 3 1 3 4
M  V30 4 2 4 5
M  V30 5 1 5 6
M  V30 6 1 6 7
M  V30 7 2 7 8
M  V30 8 1 8 9
M  V30 9 1 9 10
M  V30 10 2 10 11
M  V30 11 1 11 12
M  V30 12 1 12 13
M  V30 13 1 13 14
M  V30 14 1 14 15
M  V30 15 1 15 16
M  V30 16 1 16 17
M  V30 17 1 11 18
M  V30 18 2 18 19
M  V30 19 1 19 20
M  V30 20 2 20 21
M  V30 21 1 21 22
M  V30 22 2 22 23
M  V30 23 1 23 24
M  V30 24 2 24 25
M  V30 25 1 25 26
M  V30 26 1 19 27
M  V30 27 2 27 28
M  V30 28 1 5 29
M  V30 29 2 29 30
M  V30 30 1 30 2
M  V30 31 1 28 7
M  V30 32 1 28 10
M  V30 33 1 17 13
M  V30 34 1 25 20
M  V30 35 1 3 31
M  V30 36 1 4 32
M  V30 37 1 6 33
M  V30 38 1 8 34
M  V30 39 1 12 35
M  V30 40 1 13 36 CFG=1
M  V30 41 1 14 37
M  V30 42 1 14 38
M  V30 43 1 15 39
M  V30 44 1 15 40
M  V30 45 1 16 41
M  V30 46 1 17 42
M  V30 47 1 17 43
M  V30 48 1 21 44
M  V30 49 1 22 45
M  V30 50 1 24 46
M  V30 51 1 29 47
M  V30 52 1 30 48
M  V30 END BOND
M  V30 END CTAB
M  END
>  <Dataset>  (242) 
ChEMBL_Kinases

>  <Ligand_Instance>  (242) 
nan

>  <PDB_ID>  (242) 
nan

>  <Standardized_SMILES>  (242) 
Fc1ccc(Nc2csc3c(N[C@@H]4CCNC4)nc(-c4ccncc4F)nc23)cc1

>  <Name>  (242) 
nan

>  <Pocket>  (242) 
nan

>  <ATP_Site>  (242) 
nan

>  <Peripheral>  (242) 
nan

>  <Num_H_Atoms_ProtBoundConf>  (242) 
nan

>  <Num_Resolved_Atoms>  (242) 
nan

>  <Num_Not_Resolved_Atoms>  (242) 
nan

$$$$
CHEMBL3731304
     RDKit          3D

  0  0  0  0  0  0  0  0  0  0999 V3000
M  V30 BEGIN CTAB
M  V30 COUNTS 60 64 0 0 0
M  V30 BEGIN ATOM
M  V30 1 N 1.869069 -4.409938 1.781546 0
M  V30 2 C 1.170817 -3.251777 1.156140 0 CFG=2
M  V30 3 C 0.768295 -2.414921 2.351062 0
M  V30 4 O 0.117876 -1.229577 2.083445 0
M  V30 5 C 0.599433 -0.137412 1.384059 0
M  V30 6 N 1.829146 -0.177919 0.897874 0
M  V30 7 C 2.444039 0.788999 0.203321 0
M  V30 8 C 3.799946 0.737111 -0.329320 0
M  V30 9 C 4.536030 -0.430085 -0.097268 0
M  V30 10 C 5.820542 -0.454552 -0.612939 0
M  V30 11 N 6.401084 0.544500 -1.308102 0
M  V30 12 C 5.658868 1.662091 -1.514943 0
M  V30 13 C 4.360099 1.782547 -1.037361 0
M  V30 14 N 1.716952 1.892297 -0.002854 0
M  V30 15 C 0.446780 2.015804 0.461971 0
M  V30 16 S -0.770901 3.327946 0.361316 0
M  V30 17 C -2.062854 2.387478 1.321519 0
M  V30 18 C -1.445513 1.219555 1.602488 0
M  V30 19 C -0.161478 0.993896 1.178972 0
M  V30 20 C -2.422083 0.406383 2.375523 0
M  V30 21 C -3.001146 1.227983 3.504758 0
M  V30 22 C -3.834235 2.349739 2.963024 0
M  V30 23 C -3.371624 2.859660 1.643656 0
M  V30 24 C -0.006186 -3.856637 0.462026 0
M  V30 25 C -0.907295 -2.956380 -0.284194 0
M  V30 26 C -2.028092 -3.859214 -0.856243 0
M  V30 27 C -3.013060 -3.013509 -1.633385 0
M  V30 28 C -2.387166 -2.081968 -2.615077 0
M  V30 29 C -1.227111 -1.302270 -2.041074 0
M  V30 30 C -0.220296 -2.260597 -1.449164 0
M  V30 31 H 2.892788 -4.218757 1.842548 0
M  V30 32 H 1.701490 -5.282776 1.270551 0
M  V30 33 H 1.916905 -2.761965 0.528885 0
M  V30 34 H 1.714179 -2.207480 2.921774 0
M  V30 35 H 0.124656 -3.023748 3.018964 0
M  V30 36 H 4.148601 -1.283025 0.451758 0
M  V30 37 H 6.447259 -1.337115 -0.466180 0
M  V30 38 H 6.016194 2.544913 -2.065367 0
M  V30 39 H 3.743602 2.656400 -1.184202 0
M  V30 40 H -3.272188 0.123527 1.701737 0
M  V30 41 H -1.972181 -0.482349 2.830597 0
M  V30 42 H -2.191901 1.670119 4.132604 0
M  V30 43 H -3.656928 0.567236 4.105927 0
M  V30 44 H -3.885293 3.151902 3.752181 0
M  V30 45 H -4.887771 1.980538 2.877316 0
M  V30 46 H -4.098271 2.573165 0.856543 0
M  V30 47 H -3.433216 3.986464 1.706680 0
M  V30 48 H 0.325396 -4.660852 -0.226959 0
M  V30 49 H -0.605610 -4.367079 1.244707 0
M  V30 50 H -1.431750 -2.177560 0.292603 0
M  V30 51 H -1.630924 -4.711587 -1.408695 0
M  V30 52 H -2.562839 -4.246940 0.035501 0
M  V30 53 H -3.699966 -2.481885 -0.957667 0
M  V30 54 H -3.648483 -3.728769 -2.204647 0
M  V30 55 H -3.169777 -1.306504 -2.854924 0
M  V30 56 H -2.050188 -2.539637 -3.549559 0
M  V30 57 H -0.709890 -0.798626 -2.879326 0
M  V30 58 H -1.539639 -0.619284 -1.234107 0
M  V30 59 H 0.608821 -1.677397 -1.053829 0
M  V30 60 H 0.083665 -3.045128 -2.171322 0
M  V30 END ATOM
M  V30 BEGIN BOND
M  V30 1 1 1 2
M  V30 2 1 2 3
M  V30 3 1 3 4
M  V30 4 1 4 5
M  V30 5 2 5 6
M  V30 6 1 6 7
M  V30 7 1 7 8
M  V30 8 2 8 9
M  V30 9 1 9 10
M  V30 10 2 10 11
M  V30 11 1 11 12
M  V30 12 2 12 13
M  V30 13 2 7 14
M  V30 14 1 14 15
M  V30 15 1 15 16
M  V30 16 1 16 17
M  V30 17 2 17 18
M  V30 18 1 18 19
M  V30 19 1 18 20
M  V30 20 1 20 21
M  V30 21 1 21 22
M  V30 22 1 22 23
M  V30 23 1 2 24
M  V30 24 1 24 25
M  V30 25 1 25 26
M  V30 26 1 26 27
M  V30 27 1 27 28
M  V30 28 1 28 29
M  V30 29 1 29 30
M  V30 30 1 19 5
M  V30 31 1 30 25
M  V30 32 1 13 8
M  V30 33 2 19 15
M  V30 34 1 23 17
M  V30 35 1 1 31
M  V30 36 1 1 32
M  V30 37 1 2 33 CFG=3
M  V30 38 1 3 34
M  V30 39 1 3 35
M  V30 40 1 9 36
M  V30 41 1 10 37
M  V30 42 1 12 38
M  V30 43 1 13 39
M  V30 44 1 20 40
M  V30 45 1 20 41
M  V30 46 1 21 42
M  V30 47 1 21 43
M  V30 48 1 22 44
M  V30 49 1 22 45
M  V30 50 1 23 46
M  V30 51 1 23 47
M  V30 52 1 24 48
M  V30 53 1 24 49
M  V30 54 1 25 50
M  V30 55 1 26 51
M  V30 56 1 26 52
M  V30 57 1 27 53
M  V30 58 1 27 54
M  V30 59 1 28 55
M  V30 60 1 28 56
M  V30 61 1 29 57
M  V30 62 1 29 58
M  V30 63 1 30 59
M  V30 64 1 30 60
M  V30 END BOND
M  V30 END CTAB
M  END
>  <Dataset>  (243) 
ChEMBL_Kinases

>  <Ligand_Instance>  (243) 
nan

>  <PDB_ID>  (243) 
nan

>  <Standardized_SMILES>  (243) 
N[C@H](COc1nc(-c2ccncc2)nc2sc3c(c12)CCCC3)CC1CCCCC1

>  <Name>  (243) 
nan

>  <Pocket>  (243) 
nan

>  <ATP_Site>  (243) 
nan

>  <Peripheral>  (243) 
nan

>  <Num_H_Atoms_ProtBoundConf>  (243) 
nan

>  <Num_Resolved_Atoms>  (243) 
nan

>  <Num_Not_Resolved_Atoms>  (243) 
nan

$$$$
CHEMBL3731302
     RDKit          3D

  0  0  0  0  0  0  0  0  0  0999 V3000
M  V30 BEGIN CTAB
M  V30 COUNTS 59 63 0 0 0
M  V30 BEGIN ATOM
M  V30 1 C 0.756562 0.098760 5.050109 0
M  V30 2 C 2.173726 -0.020732 4.585221 0
M  V30 3 N 3.266785 0.525678 5.149140 0
M  V30 4 N 4.316800 0.170115 4.419155 0
M  V30 5 C 3.936077 -0.610248 3.370483 0
M  V30 6 C 4.905837 -1.145296 2.397940 0
M  V30 7 C 2.559846 -0.738698 3.468614 0
M  V30 8 C 1.772394 -1.511015 2.515640 0
M  V30 9 N 1.266461 -0.950071 1.422438 0
M  V30 10 C 0.532123 -1.532030 0.470430 0
M  V30 11 N 0.108066 -0.657960 -0.591036 0
M  V30 12 C 0.478540 0.723332 -0.611516 0
M  V30 13 C -0.050657 1.564115 0.496965 0 CFG=1
M  V30 14 N 0.439201 2.914108 0.282857 0
M  V30 15 C -1.547536 1.649930 0.554537 0
M  V30 16 C -2.167721 2.211905 -0.637429 0
M  V30 17 C -2.608078 1.547414 -1.763981 0
M  V30 18 C -3.185957 2.168710 -2.850794 0
M  V30 19 C -3.346736 3.542332 -2.838226 0
M  V30 20 C -2.921104 4.248980 -1.732424 0
M  V30 21 C -2.344028 3.597232 -0.655384 0
M  V30 22 C 0.246854 -2.870309 0.604583 0
M  V30 23 C -0.487845 -3.626895 -0.264255 0
M  V30 24 C -0.660671 -4.985189 0.076980 0
M  V30 25 S 0.246058 -5.133198 1.645406 0
M  V30 26 C 0.781091 -3.434855 1.747626 0
M  V30 27 N 1.498917 -2.808711 2.652823 0
M  V30 28 C -1.320713 -6.127874 -0.476783 0
M  V30 29 C -1.671517 -5.918880 -1.910677 0
M  V30 30 C -0.804952 -4.776449 -2.400250 0
M  V30 31 C -1.227259 -3.559726 -1.535954 0
M  V30 32 H 0.803212 0.407822 6.132816 0
M  V30 33 H 0.287132 -0.915689 5.048740 0
M  V30 34 H 0.177451 0.824733 4.464968 0
M  V30 35 H 5.254248 0.527287 4.741811 0
M  V30 36 H 4.380299 -1.661890 1.564328 0
M  V30 37 H 5.603634 -1.829361 2.930240 0
M  V30 38 H 5.556950 -0.319795 1.990466 0
M  V30 39 H -0.473518 -0.804776 -1.427374 0
M  V30 40 H 0.381435 1.152252 -1.603925 0
M  V30 41 H 1.608424 0.713101 -0.438126 0
M  V30 42 H 0.395226 1.235174 1.448926 0
M  V30 43 H 1.420112 2.921493 -0.055537 0
M  V30 44 H 0.292662 3.516421 1.119091 0
M  V30 45 H -1.907272 0.602586 0.730059 0
M  V30 46 H -1.892187 2.218771 1.441181 0
M  V30 47 H -2.472698 0.475002 -1.751128 0
M  V30 48 H -3.503301 1.581511 -3.691262 0
M  V30 49 H -3.795083 4.063807 -3.671119 0
M  V30 50 H -3.061339 5.330847 -1.751941 0
M  V30 51 H -2.038441 4.211759 0.166614 0
M  V30 52 H -0.689781 -7.066792 -0.449908 0
M  V30 53 H -2.233314 -6.373650 0.103658 0
M  V30 54 H -2.732872 -5.540045 -1.949681 0
M  V30 55 H -1.580366 -6.809296 -2.532065 0
M  V30 56 H -0.927607 -4.571679 -3.461492 0
M  V30 57 H 0.245732 -5.062474 -2.159396 0
M  V30 58 H -2.326942 -3.674816 -1.382914 0
M  V30 59 H -1.043488 -2.721718 -2.189722 0
M  V30 END ATOM
M  V30 BEGIN BOND
M  V30 1 1 1 2
M  V30 2 2 2 3
M  V30 3 1 3 4
M  V30 4 1 4 5
M  V30 5 1 5 6
M  V30 6 2 5 7
M  V30 7 1 7 8
M  V30 8 2 8 9
M  V30 9 1 9 10
M  V30 10 1 10 11
M  V30 11 1 11 12
M  V30 12 1 12 13
M  V30 13 1 13 14
M  V30 14 1 13 15
M  V30 15 1 15 16
M  V30 16 2 16 17
M  V30 17 1 17 18
M  V30 18 2 18 19
M  V30 19 1 19 20
M  V30 20 2 20 21
M  V30 21 2 10 22
M  V30 22 1 22 23
M  V30 23 2 23 24
M  V30 24 1 24 25
M  V30 25 1 25 26
M  V30 26 2 26 27
M  V30 27 1 24 28
M  V30 28 1 28 29
M  V30 29 1 29 30
M  V30 30 1 30 31
M  V30 31 1 7 2
M  V30 32 1 27 8
M  V30 33 1 21 16
M  V30 34 1 26 22
M  V30 35 1 31 23
M  V30 36 1 1 32
M  V30 37 1 1 33
M  V30 38 1 1 34
M  V30 39 1 4 35
M  V30 40 1 6 36
M  V30 41 1 6 37
M  V30 42 1 6 38
M  V30 43 1 11 39
M  V30 44 1 12 40
M  V30 45 1 12 41
M  V30 46 1 13 42 CFG=1
M  V30 47 1 14 43
M  V30 48 1 14 44
M  V30 49 1 15 45
M  V30 50 1 15 46
M  V30 51 1 17 47
M  V30 52 1 18 48
M  V30 53 1 19 49
M  V30 54 1 20 50
M  V30 55 1 21 51
M  V30 56 1 28 52
M  V30 57 1 28 53
M  V30 58 1 29 54
M  V30 59 1 29 55
M  V30 60 1 30 56
M  V30 61 1 30 57
M  V30 62 1 31 58
M  V30 63 1 31 59
M  V30 END BOND
M  V30 END CTAB
M  END
>  <Dataset>  (244) 
ChEMBL_Kinases

>  <Ligand_Instance>  (244) 
nan

>  <PDB_ID>  (244) 
nan

>  <Standardized_SMILES>  (244) 
Cc1n[nH]c(C)c1-c1nc(NC[C@@H](N)Cc2ccccc2)c2c3c(sc2n1)CCCC3

>  <Name>  (244) 
nan

>  <Pocket>  (244) 
nan

>  <ATP_Site>  (244) 
nan

>  <Peripheral>  (244) 
nan

>  <Num_H_Atoms_ProtBoundConf>  (244) 
nan

>  <Num_Resolved_Atoms>  (244) 
nan

>  <Num_Not_Resolved_Atoms>  (244) 
nan

$$$$
CHEMBL3731292
     RDKit          3D

  0  0  0  0  0  0  0  0  0  0999 V3000
M  V30 BEGIN CTAB
M  V30 COUNTS 57 61 0 0 0
M  V30 BEGIN ATOM
M  V30 1 C 2.305409 -4.440284 -2.725752 0
M  V30 2 C 1.473479 -3.794670 -1.692331 0
M  V30 3 S 1.952839 -2.145703 -0.895393 0
M  V30 4 C 0.557843 -2.074271 0.145081 0
M  V30 5 C 0.068335 -1.167036 1.121882 0
M  V30 6 N 0.989702 -0.091944 1.208673 0
M  V30 7 C 1.896298 0.965952 1.294100 0
M  V30 8 C 1.346365 2.360960 0.996564 0 CFG=1
M  V30 9 N 0.272857 2.681318 1.925205 0
M  V30 10 C 2.452684 3.373806 1.142049 0
M  V30 11 C 2.023529 4.757739 0.877486 0
M  V30 12 C 2.086759 5.215659 -0.430414 0
M  V30 13 C 1.703102 6.497806 -0.747750 0
M  V30 14 C 1.240569 7.392194 0.194272 0
M  V30 15 C 1.169615 6.950296 1.516210 0
M  V30 16 C 1.559648 5.660968 1.810464 0
M  V30 17 N -1.079161 -1.422863 1.763876 0
M  V30 18 C -1.735707 -2.545935 1.455501 0
M  V30 19 C -2.979279 -2.762802 2.183034 0
M  V30 20 C -3.462689 -1.874422 3.112852 0
M  V30 21 C -4.659723 -2.154412 3.758776 0
M  V30 22 N -5.316039 -3.286341 3.459639 0
M  V30 23 C -4.855712 -4.168753 2.549986 0
M  V30 24 C -3.663295 -3.920105 1.886112 0
M  V30 25 N -1.258598 -3.366769 0.547395 0
M  V30 26 C -0.128086 -3.205092 -0.147769 0
M  V30 27 C 0.273266 -4.131599 -1.071759 0
M  V30 28 C -0.311980 -5.383274 -1.518297 0
M  V30 29 C -1.185964 -5.340368 -2.611595 0
M  V30 30 C -1.750846 -6.494516 -3.042136 0
M  V30 31 C -1.506625 -7.702755 -2.457236 0
M  V30 32 F -2.027988 -8.897238 -2.821969 0
M  V30 33 N -0.655836 -7.747731 -1.392554 0
M  V30 34 C -0.083933 -6.600163 -0.951778 0
M  V30 35 H 2.016880 -4.194420 -3.758720 0
M  V30 36 H 2.244002 -5.528995 -2.538301 0
M  V30 37 H 3.382882 -4.129588 -2.638486 0
M  V30 38 H 0.455552 0.437881 1.968360 0
M  V30 39 H 2.625504 0.816512 0.405205 0
M  V30 40 H 2.510222 0.942171 2.219905 0
M  V30 41 H 0.955910 2.397066 -0.028666 0
M  V30 42 H -0.600058 2.133027 1.663334 0
M  V30 43 H 0.053769 3.706419 1.898347 0
M  V30 44 H 2.804439 3.357875 2.206235 0
M  V30 45 H 3.308494 3.170104 0.489508 0
M  V30 46 H 2.439428 4.592925 -1.264321 0
M  V30 47 H 1.737470 6.892899 -1.756079 0
M  V30 48 H 0.919600 8.411454 0.035951 0
M  V30 49 H 0.812514 7.618529 2.288407 0
M  V30 50 H 1.503685 5.331626 2.843576 0
M  V30 51 H -2.903982 -0.973406 3.326761 0
M  V30 52 H -4.987460 -1.428836 4.471551 0
M  V30 53 H -5.413168 -5.069164 2.336527 0
M  V30 54 H -3.288905 -4.623371 1.156678 0
M  V30 55 H -1.395981 -4.397577 -3.093619 0
M  V30 56 H -2.429027 -6.488801 -3.885319 0
M  V30 57 H 0.599406 -6.625729 -0.098170 0
M  V30 END ATOM
M  V30 BEGIN BOND
M  V30 1 1 1 2
M  V30 2 1 2 3
M  V30 3 1 3 4
M  V30 4 2 4 5
M  V30 5 1 5 6
M  V30 6 1 6 7
M  V30 7 1 7 8
M  V30 8 1 8 9
M  V30 9 1 8 10
M  V30 10 1 10 11
M  V30 11 2 11 12
M  V30 12 1 12 13
M  V30 13 2 13 14
M  V30 14 1 14 15
M  V30 15 2 15 16
M  V30 16 1 5 17
M  V30 17 2 17 18
M  V30 18 1 18 19
M  V30 19 2 19 20
M  V30 20 1 20 21
M  V30 21 2 21 22
M  V30 22 1 22 23
M  V30 23 2 23 24
M  V30 24 1 18 25
M  V30 25 2 25 26
M  V30 26 1 26 27
M  V30 27 1 27 28
M  V30 28 2 28 29
M  V30 29 1 29 30
M  V30 30 2 30 31
M  V30 31 1 31 32
M  V30 32 1 31 33
M  V30 33 2 33 34
M  V30 34 2 27 2
M  V30 35 1 34 28
M  V30 36 1 26 4
M  V30 37 1 16 11
M  V30 38 1 24 19
M  V30 39 1 1 35
M  V30 40 1 1 36
M  V30 41 1 1 37
M  V30 42 1 6 38
M  V30 43 1 7 39
M  V30 44 1 7 40
M  V30 45 1 8 41 CFG=3
M  V30 46 1 9 42
M  V30 47 1 9 43
M  V30 48 1 10 44
M  V30 49 1 10 45
M  V30 50 1 12 46
M  V30 51 1 13 47
M  V30 52 1 14 48
M  V30 53 1 15 49
M  V30 54 1 16 50
M  V30 55 1 20 51
M  V30 56 1 21 52
M  V30 57 1 23 53
M  V30 58 1 24 54
M  V30 59 1 29 55
M  V30 60 1 30 56
M  V30 61 1 34 57
M  V30 END BOND
M  V30 END CTAB
M  END
>  <Dataset>  (245) 
ChEMBL_Kinases

>  <Ligand_Instance>  (245) 
nan

>  <PDB_ID>  (245) 
nan

>  <Standardized_SMILES>  (245) 
Cc1sc2c(NC[C@@H](N)Cc3ccccc3)nc(-c3ccncc3)nc2c1-c1ccc(F)nc1

>  <Name>  (245) 
nan

>  <Pocket>  (245) 
nan

>  <ATP_Site>  (245) 
nan

>  <Peripheral>  (245) 
nan

>  <Num_H_Atoms_ProtBoundConf>  (245) 
nan

>  <Num_Resolved_Atoms>  (245) 
nan

>  <Num_Not_Resolved_Atoms>  (245) 
nan

$$$$
CHEMBL3731282
     RDKit          3D

  0  0  0  0  0  0  0  0  0  0999 V3000
M  V30 BEGIN CTAB
M  V30 COUNTS 51 55 0 0 0
M  V30 BEGIN ATOM
M  V30 1 O -3.131522 -3.289328 0.242980 0
M  V30 2 C -2.508239 -4.160153 0.939367 0
M  V30 3 N -1.491673 -3.842370 1.883148 0
M  V30 4 C -1.244927 -2.438660 1.965670 0
M  V30 5 C -0.293378 -1.882320 1.134960 0
M  V30 6 C -0.021294 -0.534859 1.178557 0
M  V30 7 C 0.982000 0.116158 0.317918 0
M  V30 8 N 1.185779 1.440427 0.425068 0
M  V30 9 C 2.101222 2.005625 -0.367023 0
M  V30 10 N 2.464060 3.364170 -0.412634 0
M  V30 11 C 1.691831 4.125792 0.548461 0 CFG=2
M  V30 12 C 2.112166 5.577736 0.466598 0
M  V30 13 C 2.877551 5.819919 1.734588 0
M  V30 14 N 2.176763 4.963811 2.681161 0
M  V30 15 C 1.947391 3.708239 1.968432 0
M  V30 16 C 2.754101 1.168979 -1.225167 0
M  V30 17 S 4.096297 1.524241 -2.498476 0
M  V30 18 C 4.251797 -0.276460 -3.081654 0
M  V30 19 C 3.287260 -0.966571 -2.269468 0
M  V30 20 C 2.567614 -0.260795 -1.374761 0
M  V30 21 N 1.627235 -0.691521 -0.525644 0
M  V30 22 C -0.680042 0.306306 2.043747 0
M  V30 23 C -1.635415 -0.302199 2.865985 0
M  V30 24 N -1.908536 -1.622462 2.829873 0
M  V30 25 C -3.038009 -5.467963 0.573717 0 CFG=2
M  V30 26 C -4.503020 -5.651034 0.897263 0
M  V30 27 C -4.624614 -7.133277 0.524862 0
M  V30 28 C -3.243431 -7.624034 0.891087 0
M  V30 29 O -2.467432 -6.544348 1.241977 0
M  V30 30 H -1.080814 -4.669041 2.370106 0
M  V30 31 H 0.285059 -2.451660 0.415291 0
M  V30 32 H 3.185060 3.753091 -1.049785 0
M  V30 33 H 0.614974 4.018555 0.255488 0
M  V30 34 H 1.219994 6.239006 0.440404 0
M  V30 35 H 2.761900 5.735822 -0.417005 0
M  V30 36 H 3.919687 5.455119 1.687514 0
M  V30 37 H 2.800559 6.867072 2.097042 0
M  V30 38 H 2.837902 4.801255 3.475702 0
M  V30 39 H 1.078078 3.166946 2.409289 0
M  V30 40 H 2.868466 3.118082 2.050330 0
M  V30 41 H 4.884913 -0.729752 -3.829132 0
M  V30 42 H 3.193982 -2.021779 -2.424727 0
M  V30 43 H -0.507734 1.382426 2.124057 0
M  V30 44 H -2.156881 0.363134 3.550742 0
M  V30 45 H -2.936879 -5.649352 -0.513001 0
M  V30 46 H -5.179477 -5.012582 0.317430 0
M  V30 47 H -4.634492 -5.612470 1.994020 0
M  V30 48 H -4.695113 -7.161336 -0.588411 0
M  V30 49 H -5.444468 -7.642310 1.034442 0
M  V30 50 H -3.354835 -8.370849 1.700887 0
M  V30 51 H -2.743711 -8.139135 0.023386 0
M  V30 END ATOM
M  V30 BEGIN BOND
M  V30 1 2 1 2
M  V30 2 1 2 3
M  V30 3 1 3 4
M  V30 4 2 4 5
M  V30 5 1 5 6
M  V30 6 1 6 7
M  V30 7 2 7 8
M  V30 8 1 8 9
M  V30 9 1 9 10
M  V30 10 1 10 11
M  V30 11 1 11 12
M  V30 12 1 12 13
M  V30 13 1 13 14
M  V30 14 1 14 15
M  V30 15 2 9 16
M  V30 16 1 16 17
M  V30 17 1 17 18
M  V30 18 2 18 19
M  V30 19 1 19 20
M  V30 20 2 20 21
M  V30 21 2 6 22
M  V30 22 1 22 23
M  V30 23 2 23 24
M  V30 24 1 2 25
M  V30 25 1 25 26
M  V30 26 1 26 27
M  V30 27 1 27 28
M  V30 28 1 28 29
M  V30 29 1 24 4
M  V30 30 1 29 25
M  V30 31 1 21 7
M  V30 32 1 15 11
M  V30 33 1 20 16
M  V30 34 1 3 30
M  V30 35 1 5 31
M  V30 36 1 10 32
M  V30 37 1 11 33 CFG=3
M  V30 38 1 12 34
M  V30 39 1 12 35
M  V30 40 1 13 36
M  V30 41 1 13 37
M  V30 42 1 14 38
M  V30 43 1 15 39
M  V30 44 1 15 40
M  V30 45 1 18 41
M  V30 46 1 19 42
M  V30 47 1 22 43
M  V30 48 1 23 44
M  V30 49 1 25 45 CFG=3
M  V30 50 1 26 46
M  V30 51 1 26 47
M  V30 52 1 27 48
M  V30 53 1 27 49
M  V30 54 1 28 50
M  V30 55 1 28 51
M  V30 END BOND
M  V30 END CTAB
M  END
>  <Dataset>  (246) 
ChEMBL_Kinases

>  <Ligand_Instance>  (246) 
nan

>  <PDB_ID>  (246) 
nan

>  <Standardized_SMILES>  (246) 
O=C(Nc1cc(-c2nc(N[C@@H]3CCNC3)c3sccc3n2)ccn1)[C@@H]1CCCO1

>  <Name>  (246) 
nan

>  <Pocket>  (246) 
nan

>  <ATP_Site>  (246) 
nan

>  <Peripheral>  (246) 
nan

>  <Num_H_Atoms_ProtBoundConf>  (246) 
nan

>  <Num_Resolved_Atoms>  (246) 
nan

>  <Num_Not_Resolved_Atoms>  (246) 
nan

$$$$
CHEMBL574208
     RDKit          3D

  0  0  0  0  0  0  0  0  0  0999 V3000
M  V30 BEGIN CTAB
M  V30 COUNTS 43 46 0 0 0
M  V30 BEGIN ATOM
M  V30 1 C -0.108946 -5.674748 -1.209335 0
M  V30 2 O 0.943618 -5.022953 -1.815992 0
M  V30 3 C 1.558030 -3.873015 -1.575423 0
M  V30 4 C 0.898222 -3.289347 -0.425019 0
M  V30 5 C 1.198150 -2.063054 0.196569 0
M  V30 6 C 2.258676 -1.350304 -0.389816 0
M  V30 7 C 2.949669 -1.814383 -1.474612 0
M  V30 8 C 2.508443 -3.001442 -1.912500 0
M  V30 9 O 3.109562 -3.657201 -3.035419 0
M  V30 10 C 4.218536 -3.030122 -3.663113 0
M  V30 11 C 2.339604 -0.081285 0.319935 0
M  V30 12 N 2.853624 1.098362 0.464479 0
M  V30 13 N 2.371097 1.912910 1.368605 0
M  V30 14 C 1.348947 1.233059 1.982948 0
M  V30 15 N 0.325319 1.213219 2.918632 0
M  V30 16 C -0.708128 1.207451 3.870684 0
M  V30 17 C -1.870482 2.115546 3.612875 0
M  V30 18 C -2.992479 1.684725 2.879875 0
M  V30 19 C -3.996135 2.625706 2.701555 0
M  V30 20 C -3.855005 3.878916 3.224162 0
M  V30 21 C -2.772014 4.318371 3.938973 0
M  V30 22 C -1.732303 3.397717 4.144299 0
M  V30 23 C 1.319113 -0.044924 1.329167 0
M  V30 24 C 0.635197 -1.374274 1.364217 0
M  V30 25 H -0.623253 -6.400816 -1.895756 0
M  V30 26 H -0.935273 -4.909766 -1.024173 0
M  V30 27 H 0.208873 -6.196666 -0.293866 0
M  V30 28 H 0.063262 -3.737317 0.145708 0
M  V30 29 H 3.759517 -1.293820 -1.933661 0
M  V30 30 H 4.611327 -3.656522 -4.478473 0
M  V30 31 H 5.012293 -2.974641 -2.841276 0
M  V30 32 H 3.978247 -1.997674 -3.890894 0
M  V30 33 H 3.643130 1.526543 -0.049723 0
M  V30 34 H 0.550322 2.231028 3.257545 0
M  V30 35 H -0.400974 1.178162 4.936841 0
M  V30 36 H -1.191444 0.149096 3.719626 0
M  V30 37 H -3.040268 0.673462 2.505696 0
M  V30 38 H -4.890228 2.364286 2.146228 0
M  V30 39 H -4.658715 4.574407 3.057610 0
M  V30 40 H -2.626520 5.295171 4.367300 0
M  V30 41 H -0.863143 3.674935 4.690480 0
M  V30 42 H -0.453301 -1.327557 1.392722 0
M  V30 43 H 1.030802 -1.960620 2.261109 0
M  V30 END ATOM
M  V30 BEGIN BOND
M  V30 1 1 1 2
M  V30 2 1 2 3
M  V30 3 2 3 4
M  V30 4 1 4 5
M  V30 5 2 5 6
M  V30 6 1 6 7
M  V30 7 2 7 8
M  V30 8 1 8 9
M  V30 9 1 9 10
M  V30 10 1 6 11
M  V30 11 1 11 12
M  V30 12 1 12 13
M  V30 13 2 13 14
M  V30 14 1 14 15
M  V30 15 1 15 16
M  V30 16 1 16 17
M  V30 17 2 17 18
M  V30 18 1 18 19
M  V30 19 2 19 20
M  V30 20 1 20 21
M  V30 21 2 21 22
M  V30 22 1 14 23
M  V30 23 1 23 24
M  V30 24 1 8 3
M  V30 25 2 23 11
M  V30 26 1 24 5
M  V30 27 1 22 17
M  V30 28 1 1 25
M  V30 29 1 1 26
M  V30 30 1 1 27
M  V30 31 1 4 28
M  V30 32 1 7 29
M  V30 33 1 10 30
M  V30 34 1 10 31
M  V30 35 1 10 32
M  V30 36 1 12 33
M  V30 37 1 15 34
M  V30 38 1 16 35
M  V30 39 1 16 36
M  V30 40 1 18 37
M  V30 41 1 19 38
M  V30 42 1 20 39
M  V30 43 1 21 40
M  V30 44 1 22 41
M  V30 45 1 24 42
M  V30 46 1 24 43
M  V30 END BOND
M  V30 END CTAB
M  END
>  <Dataset>  (247) 
ChEMBL_Kinases

>  <Ligand_Instance>  (247) 
nan

>  <PDB_ID>  (247) 
nan

>  <Standardized_SMILES>  (247) 
COc1cc2c(cc1OC)-c1[nH]nc(NCc3ccccc3)c1C2

>  <Name>  (247) 
nan

>  <Pocket>  (247) 
nan

>  <ATP_Site>  (247) 
nan

>  <Peripheral>  (247) 
nan

>  <Num_H_Atoms_ProtBoundConf>  (247) 
nan

>  <Num_Resolved_Atoms>  (247) 
nan

>  <Num_Not_Resolved_Atoms>  (247) 
nan

$$$$
CHEMBL522223
     RDKit          3D

  0  0  0  0  0  0  0  0  0  0999 V3000
M  V30 BEGIN CTAB
M  V30 COUNTS 37 40 0 0 0
M  V30 BEGIN ATOM
M  V30 1 N 2.431265 -4.740572 5.977252 0
M  V30 2 C 2.059531 -4.385992 4.922850 0
M  V30 3 C 1.600589 -3.972542 3.627440 0
M  V30 4 C 2.045085 -4.726207 2.547018 0
M  V30 5 C 1.585800 -4.299826 1.294704 0
M  V30 6 C 0.756304 -3.217305 1.128373 0
M  V30 7 C 0.387691 -2.925554 -0.251691 0
M  V30 8 C -0.046860 -3.690210 -1.313430 0
M  V30 9 N -0.231980 -2.873961 -2.381468 0
M  V30 10 C 0.079997 -1.622690 -1.998350 0
M  V30 11 C 0.058551 -0.444860 -2.712698 0
M  V30 12 C 0.422246 0.749216 -2.127626 0
M  V30 13 C 0.805274 0.703016 -0.799507 0
M  V30 14 N 1.226645 1.719540 0.123029 0
M  V30 15 C 0.109584 2.181836 0.924546 0
M  V30 16 C -0.968510 2.800902 0.082166 0
M  V30 17 C -2.208023 3.331902 0.756953 0
M  V30 18 C -1.213742 4.266583 0.156630 0
M  V30 19 N 0.814469 -0.474734 -0.128842 0
M  V30 20 N 0.462859 -1.633383 -0.693165 0
M  V30 21 C 0.344594 -2.504279 2.231932 0
M  V30 22 C 0.766726 -2.879723 3.495450 0
M  V30 23 H 2.701552 -5.586954 2.642754 0
M  V30 24 H 1.944025 -4.900440 0.460474 0
M  V30 25 H -0.177991 -4.755023 -1.179581 0
M  V30 26 H -0.231243 -0.350607 -3.749121 0
M  V30 27 H 0.474743 1.744224 -2.505001 0
M  V30 28 H 2.226867 1.811633 -0.074709 0
M  V30 29 H 0.421397 2.858385 1.760298 0
M  V30 30 H -0.359457 1.302120 1.460320 0
M  V30 31 H -1.179833 2.321206 -0.895748 0
M  V30 32 H -3.193229 3.258131 0.224056 0
M  V30 33 H -2.301411 3.213435 1.856580 0
M  V30 34 H -0.664798 4.879421 0.924637 0
M  V30 35 H -1.464532 4.842509 -0.755368 0
M  V30 36 H -0.319312 -1.648226 2.052231 0
M  V30 37 H 0.432776 -2.307396 4.359586 0
M  V30 END ATOM
M  V30 BEGIN BOND
M  V30 1 3 1 2
M  V30 2 1 2 3
M  V30 3 2 3 4
M  V30 4 1 4 5
M  V30 5 2 5 6
M  V30 6 1 6 7
M  V30 7 2 7 8
M  V30 8 1 8 9
M  V30 9 2 9 10
M  V30 10 1 10 11
M  V30 11 2 11 12
M  V30 12 1 12 13
M  V30 13 1 13 14
M  V30 14 1 14 15
M  V30 15 1 15 16
M  V30 16 1 16 17
M  V30 17 1 17 18
M  V30 18 2 13 19
M  V30 19 1 19 20
M  V30 20 1 6 21
M  V30 21 2 21 22
M  V30 22 1 22 3
M  V30 23 1 20 7
M  V30 24 1 20 10
M  V30 25 1 18 16
M  V30 26 1 4 23
M  V30 27 1 5 24
M  V30 28 1 8 25
M  V30 29 1 11 26
M  V30 30 1 12 27
M  V30 31 1 14 28
M  V30 32 1 15 29
M  V30 33 1 15 30
M  V30 34 1 16 31
M  V30 35 1 17 32
M  V30 36 1 17 33
M  V30 37 1 18 34
M  V30 38 1 18 35
M  V30 39 1 21 36
M  V30 40 1 22 37
M  V30 END BOND
M  V30 END CTAB
M  END
>  <Dataset>  (248) 
ChEMBL_Kinases

>  <Ligand_Instance>  (248) 
nan

>  <PDB_ID>  (248) 
nan

>  <Standardized_SMILES>  (248) 
N#Cc1ccc(-c2cnc3ccc(NCC4CC4)nn23)cc1

>  <Name>  (248) 
nan

>  <Pocket>  (248) 
nan

>  <ATP_Site>  (248) 
nan

>  <Peripheral>  (248) 
nan

>  <Num_H_Atoms_ProtBoundConf>  (248) 
nan

>  <Num_Resolved_Atoms>  (248) 
nan

>  <Num_Not_Resolved_Atoms>  (248) 
nan

$$$$
CHEMBL3731261
     RDKit          3D

  0  0  0  0  0  0  0  0  0  0999 V3000
M  V30 BEGIN CTAB
M  V30 COUNTS 54 58 0 0 0
M  V30 BEGIN ATOM
M  V30 1 N 2.037296 -3.056729 2.975184 0
M  V30 2 C 1.353047 -3.297136 1.716189 0 CFG=2
M  V30 3 C -0.108080 -3.407980 2.045590 0
M  V30 4 N -0.668631 -2.247607 2.660809 0
M  V30 5 C -0.655300 -1.015964 1.960267 0
M  V30 6 N -0.115293 -0.932997 0.706251 0
M  V30 7 C -0.164901 0.309776 0.135651 0
M  V30 8 C 0.395905 0.466284 -1.204931 0
M  V30 9 C 0.385373 1.685912 -1.850501 0
M  V30 10 C 0.941316 1.705005 -3.104763 0
M  V30 11 N 1.474317 0.639268 -3.712510 0
M  V30 12 C 1.477945 -0.549596 -3.068360 0
M  V30 13 C 0.932129 -0.665724 -1.783510 0
M  V30 14 N -0.695262 1.389051 0.730631 0
M  V30 15 C -1.233355 1.337354 1.963229 0
M  V30 16 C -1.795162 2.376089 2.650822 0
M  V30 17 C -1.927621 3.757698 2.189872 0
M  V30 18 C -0.832095 4.359886 1.592735 0
M  V30 19 C -0.935052 5.660233 1.148984 0
M  V30 20 C -2.125888 6.373972 1.293995 0
M  V30 21 N -3.144066 5.734942 1.878195 0
M  V30 22 C -3.101568 4.467183 2.330658 0
M  V30 23 C -2.289758 2.113406 3.902041 0
M  V30 24 S -1.934437 0.258972 4.123981 0
M  V30 25 C -1.195108 0.103832 2.554185 0
M  V30 26 C 1.837412 -4.586595 1.085597 0
M  V30 27 C 1.163758 -4.875025 -0.203599 0
M  V30 28 C -0.003583 -5.630621 -0.258483 0
M  V30 29 C -0.686370 -5.938365 -1.417203 0
M  V30 30 C -0.197976 -5.477169 -2.613219 0
M  V30 31 C 0.954885 -4.725690 -2.604364 0
M  V30 32 C 1.605518 -4.440765 -1.429679 0
M  V30 33 H 3.041929 -2.818918 2.852452 0
M  V30 34 H 1.818678 -3.730676 3.713440 0
M  V30 35 H 1.625094 -2.510869 1.014583 0
M  V30 36 H -0.688533 -3.714711 1.142562 0
M  V30 37 H -0.201413 -4.261283 2.746883 0
M  V30 38 H -1.083441 -2.301780 3.613134 0
M  V30 39 H -0.044320 2.563515 -1.370708 0
M  V30 40 H 0.965340 2.630930 -3.666492 0
M  V30 41 H 1.904708 -1.432097 -3.538940 0
M  V30 42 H 0.958829 -1.619873 -1.319652 0
M  V30 43 H 0.108047 3.870217 1.451048 0
M  V30 44 H -0.070702 6.142283 0.675276 0
M  V30 45 H -2.201233 7.403012 0.940694 0
M  V30 46 H -3.968038 3.995092 2.801373 0
M  V30 47 H -2.766458 2.701391 4.646568 0
M  V30 48 H 2.914746 -4.380799 0.820588 0
M  V30 49 H 1.779933 -5.443080 1.792820 0
M  V30 50 H -0.458294 -6.038309 0.646895 0
M  V30 51 H -1.588239 -6.527562 -1.413119 0
M  V30 52 H -0.736950 -5.721776 -3.513739 0
M  V30 53 H 1.317989 -4.374071 -3.567220 0
M  V30 54 H 2.513893 -3.844986 -1.453490 0
M  V30 END ATOM
M  V30 BEGIN BOND
M  V30 1 1 1 2
M  V30 2 1 2 3
M  V30 3 1 3 4
M  V30 4 1 4 5
M  V30 5 2 5 6
M  V30 6 1 6 7
M  V30 7 1 7 8
M  V30 8 2 8 9
M  V30 9 1 9 10
M  V30 10 2 10 11
M  V30 11 1 11 12
M  V30 12 2 12 13
M  V30 13 2 7 14
M  V30 14 1 14 15
M  V30 15 1 15 16
M  V30 16 1 16 17
M  V30 17 2 17 18
M  V30 18 1 18 19
M  V30 19 2 19 20
M  V30 20 1 20 21
M  V30 21 2 21 22
M  V30 22 2 16 23
M  V30 23 1 23 24
M  V30 24 1 24 25
M  V30 25 1 2 26
M  V30 26 1 26 27
M  V30 27 2 27 28
M  V30 28 1 28 29
M  V30 29 2 29 30
M  V30 30 1 30 31
M  V30 31 2 31 32
M  V30 32 1 25 5
M  V30 33 1 32 27
M  V30 34 1 13 8
M  V30 35 2 25 15
M  V30 36 1 22 17
M  V30 37 1 1 33
M  V30 38 1 1 34
M  V30 39 1 2 35 CFG=3
M  V30 40 1 3 36
M  V30 41 1 3 37
M  V30 42 1 4 38
M  V30 43 1 9 39
M  V30 44 1 10 40
M  V30 45 1 12 41
M  V30 46 1 13 42
M  V30 47 1 18 43
M  V30 48 1 19 44
M  V30 49 1 20 45
M  V30 50 1 22 46
M  V30 51 1 23 47
M  V30 52 1 26 48
M  V30 53 1 26 49
M  V30 54 1 28 50
M  V30 55 1 29 51
M  V30 56 1 30 52
M  V30 57 1 31 53
M  V30 58 1 32 54
M  V30 END BOND
M  V30 END CTAB
M  END
>  <Dataset>  (249) 
ChEMBL_Kinases

>  <Ligand_Instance>  (249) 
nan

>  <PDB_ID>  (249) 
nan

>  <Standardized_SMILES>  (249) 
N[C@H](CNc1nc(-c2ccncc2)nc2c(-c3cccnc3)csc12)Cc1ccccc1

>  <Name>  (249) 
nan

>  <Pocket>  (249) 
nan

>  <ATP_Site>  (249) 
nan

>  <Peripheral>  (249) 
nan

>  <Num_H_Atoms_ProtBoundConf>  (249) 
nan

>  <Num_Resolved_Atoms>  (249) 
nan

>  <Num_Not_Resolved_Atoms>  (249) 
nan

$$$$
CHEMBL574199
     RDKit          3D

  0  0  0  0  0  0  0  0  0  0999 V3000
M  V30 BEGIN CTAB
M  V30 COUNTS 48 51 0 0 0
M  V30 BEGIN ATOM
M  V30 1 C -0.495283 -5.656496 3.564434 0
M  V30 2 C -0.726517 -4.528136 2.628365 0
M  V30 3 C 0.248900 -3.957112 1.799286 0
M  V30 4 C -0.030355 -2.887962 0.931917 0
M  V30 5 O 1.115102 -2.570557 0.277929 0
M  V30 6 C 1.836188 -1.417822 0.274467 0
M  V30 7 C 2.681314 -1.500597 1.395432 0
M  V30 8 C 3.585113 -0.478322 1.721534 0
M  V30 9 N 3.657386 0.636490 0.936010 0
M  V30 10 C 2.854256 0.731474 -0.142274 0
M  V30 11 N 2.815197 1.827366 -1.054241 0
M  V30 12 C 1.912815 2.912333 -0.753001 0
M  V30 13 C 1.788855 4.018331 -1.576898 0
M  V30 14 C 0.919632 5.043043 -1.265868 0
M  V30 15 C 0.146640 5.001122 -0.127023 0
M  V30 16 F -0.742122 5.960382 0.271314 0
M  V30 17 C 0.247332 3.912470 0.714340 0
M  V30 18 C 1.124994 2.899957 0.380178 0
M  V30 19 C 1.965107 -0.266522 -0.469482 0
M  V30 20 C -1.335622 -2.461615 0.972727 0
M  V30 21 C -1.606717 -1.360558 0.060319 0
M  V30 22 C -2.311094 -0.231018 0.499163 0
M  V30 23 C -2.609186 0.832374 -0.351317 0
M  V30 24 C -2.199511 0.785563 -1.686659 0
M  V30 25 C -1.509442 -0.347520 -2.069630 0
M  V30 26 N -1.221856 -1.385001 -1.228548 0
M  V30 27 N -2.257425 -3.019873 1.773542 0
M  V30 28 C -2.014495 -4.036213 2.606294 0
M  V30 29 C -3.137892 -4.544608 3.427740 0
M  V30 30 H 0.523047 -6.041252 3.474349 0
M  V30 31 H -0.682280 -5.363532 4.635290 0
M  V30 32 H -1.173150 -6.518724 3.373354 0
M  V30 33 H 1.198154 -4.482670 1.961697 0
M  V30 34 H 2.810283 -2.277514 2.167235 0
M  V30 35 H 4.276560 -0.427717 2.545498 0
M  V30 36 H 3.377299 1.927909 -1.926935 0
M  V30 37 H 2.381820 4.058767 -2.458262 0
M  V30 38 H 0.808779 5.916437 -1.898459 0
M  V30 39 H -0.330466 3.815871 1.624692 0
M  V30 40 H 1.204292 2.059141 1.028107 0
M  V30 41 H 1.283705 -0.310289 -1.299825 0
M  V30 42 H -2.655094 -0.141490 1.531632 0
M  V30 43 H -3.142831 1.707058 -0.051062 0
M  V30 44 H -2.372578 1.547130 -2.435659 0
M  V30 45 H -1.118211 -0.544933 -3.073059 0
M  V30 46 H -2.864491 -5.411345 4.045496 0
M  V30 47 H -3.554353 -3.702276 4.014410 0
M  V30 48 H -3.927771 -4.888758 2.726174 0
M  V30 END ATOM
M  V30 BEGIN BOND
M  V30 1 1 1 2
M  V30 2 2 2 3
M  V30 3 1 3 4
M  V30 4 1 4 5
M  V30 5 1 5 6
M  V30 6 2 6 7
M  V30 7 1 7 8
M  V30 8 2 8 9
M  V30 9 1 9 10
M  V30 10 1 10 11
M  V30 11 1 11 12
M  V30 12 2 12 13
M  V30 13 1 13 14
M  V30 14 2 14 15
M  V30 15 1 15 16
M  V30 16 1 15 17
M  V30 17 2 17 18
M  V30 18 2 10 19
M  V30 19 2 4 20
M  V30 20 1 20 21
M  V30 21 2 21 22
M  V30 22 1 22 23
M  V30 23 2 23 24
M  V30 24 1 24 25
M  V30 25 2 25 26
M  V30 26 1 20 27
M  V30 27 2 27 28
M  V30 28 1 28 29
M  V30 29 1 28 2
M  V30 30 1 19 6
M  V30 31 1 26 21
M  V30 32 1 18 12
M  V30 33 1 1 30
M  V30 34 1 1 31
M  V30 35 1 1 32
M  V30 36 1 3 33
M  V30 37 1 7 34
M  V30 38 1 8 35
M  V30 39 1 11 36
M  V30 40 1 13 37
M  V30 41 1 14 38
M  V30 42 1 17 39
M  V30 43 1 18 40
M  V30 44 1 19 41
M  V30 45 1 22 42
M  V30 46 1 23 43
M  V30 47 1 24 44
M  V30 48 1 25 45
M  V30 49 1 29 46
M  V30 50 1 29 47
M  V30 51 1 29 48
M  V30 END BOND
M  V30 END CTAB
M  END
>  <Dataset>  (250) 
ChEMBL_Kinases

>  <Ligand_Instance>  (250) 
nan

>  <PDB_ID>  (250) 
nan

>  <Standardized_SMILES>  (250) 
Cc1cc(Oc2ccnc(Nc3ccc(F)cc3)c2)c(-c2ccccn2)nc1C

>  <Name>  (250) 
nan

>  <Pocket>  (250) 
nan

>  <ATP_Site>  (250) 
nan

>  <Peripheral>  (250) 
nan

>  <Num_H_Atoms_ProtBoundConf>  (250) 
nan

>  <Num_Resolved_Atoms>  (250) 
nan

>  <Num_Not_Resolved_Atoms>  (250) 
nan

$$$$
CHEMBL3703188
     RDKit          3D

  0  0  0  0  0  0  0  0  0  0999 V3000
M  V30 BEGIN CTAB
M  V30 COUNTS 87 92 0 0 0
M  V30 BEGIN ATOM
M  V30 1 C 0.386818 -4.035077 5.479998 0
M  V30 2 C 0.287167 -2.877928 6.444638 0
M  V30 3 C 1.361126 -1.895134 6.279090 0
M  V30 4 C 2.415852 -1.882079 7.198599 0
M  V30 5 C 3.451336 -0.977497 7.090755 0
M  V30 6 C 3.526246 -0.041208 6.095256 0
M  V30 7 C 2.493177 -0.041160 5.179056 0
M  V30 8 C 2.537487 0.955303 4.044764 0
M  V30 9 C 2.994824 0.278566 2.788122 0
M  V30 10 C 1.440967 -0.948968 5.277444 0
M  V30 11 N 0.374308 -0.910758 4.335864 0
M  V30 12 C -0.938627 -0.310847 4.212433 0
M  V30 13 O -1.446120 0.408444 5.084911 0
M  V30 14 C -1.570115 -0.661921 2.944612 0
M  V30 15 C -1.590393 -1.827550 2.191190 0
M  V30 16 N -2.318894 -1.625894 1.079507 0
M  V30 17 C -2.589928 -2.596902 0.026358 0
M  V30 18 C -2.748287 -0.373384 1.122012 0
M  V30 19 C -2.311749 0.290475 2.274370 0
M  V30 20 C -2.664095 1.724908 2.585450 0
M  V30 21 C -4.172220 1.780860 2.595248 0
M  V30 22 C -4.782158 2.191963 1.297091 0
M  V30 23 C -4.406841 1.282505 0.185101 0
M  V30 24 C -5.087274 1.677368 -0.965110 0
M  V30 25 N -4.932870 1.032403 -2.135037 0
M  V30 26 C -4.116314 -0.029026 -2.267444 0
M  V30 27 N -3.704299 -0.886763 -3.333057 0
M  V30 28 C -2.378157 -0.595853 -3.828321 0
M  V30 29 C -1.584532 0.422407 -3.297386 0
M  V30 30 C -0.314566 0.729628 -3.716157 0
M  V30 31 C 0.247701 0.003021 -4.730069 0
M  V30 32 N 1.562262 0.299147 -5.173210 0
M  V30 33 C 2.354096 -0.452527 -6.158489 0
M  V30 34 C 3.402749 -1.210905 -5.367066 0
M  V30 35 N 3.909021 -0.340328 -4.321960 0
M  V30 36 C 5.244783 -0.643153 -3.901815 0
M  V30 37 C 3.811467 1.056342 -4.709552 0
M  V30 38 C 2.324516 1.433136 -4.697001 0
M  V30 39 C -0.506147 -1.007116 -5.276637 0
M  V30 40 C -1.780029 -1.320879 -4.861774 0
M  V30 41 O -2.535915 -2.341472 -5.418050 0
M  V30 42 C -1.945821 -3.094925 -6.476303 0
M  V30 43 N -3.426444 -0.456020 -1.166006 0
M  V30 44 C -3.573939 0.191793 0.032295 0
M  V30 45 H -0.592531 -4.593972 5.597879 0
M  V30 46 H 1.210736 -4.718090 5.761753 0
M  V30 47 H 0.468113 -3.673825 4.446174 0
M  V30 48 H 0.351495 -3.339805 7.462229 0
M  V30 49 H -0.726585 -2.444951 6.276928 0
M  V30 50 H 2.432240 -2.593179 8.018766 0
M  V30 51 H 4.280967 -0.971750 7.816771 0
M  V30 52 H 4.335949 0.666104 6.011823 0
M  V30 53 H 3.214448 1.772160 4.349685 0
M  V30 54 H 1.492585 1.341938 3.840038 0
M  V30 55 H 3.554392 0.932463 2.088590 0
M  V30 56 H 3.575430 -0.618071 3.083158 0
M  V30 57 H 2.108964 -0.085117 2.238088 0
M  V30 58 H 0.819239 -1.514505 3.610975 0
M  V30 59 H -1.074864 -2.724336 2.511555 0
M  V30 60 H -2.241063 -3.603571 0.397069 0
M  V30 61 H -3.670620 -2.664504 -0.154515 0
M  V30 62 H -1.998576 -2.405291 -0.899528 0
M  V30 63 H -2.295850 2.293890 1.687984 0
M  V30 64 H -2.181004 2.027285 3.515284 0
M  V30 65 H -4.433782 2.594943 3.330868 0
M  V30 66 H -4.569217 0.810205 2.968329 0
M  V30 67 H -5.888422 2.225366 1.356790 0
M  V30 68 H -4.447793 3.249131 1.075518 0
M  V30 69 H -5.777706 2.501116 -1.042897 0
M  V30 70 H -4.181139 -1.666051 -3.801613 0
M  V30 71 H -2.030757 1.005965 -2.486386 0
M  V30 72 H 0.169828 1.546804 -3.205296 0
M  V30 73 H 1.760636 -1.136320 -6.763933 0
M  V30 74 H 2.900256 0.230254 -6.855980 0
M  V30 75 H 2.901152 -2.069187 -4.882257 0
M  V30 76 H 4.222394 -1.608110 -5.986788 0
M  V30 77 H 5.221253 -0.767223 -2.783534 0
M  V30 78 H 5.957361 0.199674 -4.079419 0
M  V30 79 H 5.668754 -1.572837 -4.308814 0
M  V30 80 H 4.345537 1.647986 -3.943766 0
M  V30 81 H 4.268761 1.267097 -5.683835 0
M  V30 82 H 2.255809 2.309405 -5.373009 0
M  V30 83 H 2.104721 1.711513 -3.664294 0
M  V30 84 H -0.105723 -1.619047 -6.092416 0
M  V30 85 H -1.752093 -2.439111 -7.364641 0
M  V30 86 H -0.976314 -3.495032 -6.145192 0
M  V30 87 H -2.655964 -3.895091 -6.777822 0
M  V30 END ATOM
M  V30 BEGIN BOND
M  V30 1 1 1 2
M  V30 2 1 2 3
M  V30 3 2 3 4
M  V30 4 1 4 5
M  V30 5 2 5 6
M  V30 6 1 6 7
M  V30 7 1 7 8
M  V30 8 1 8 9
M  V30 9 2 7 10
M  V30 10 1 10 11
M  V30 11 1 11 12
M  V30 12 2 12 13
M  V30 13 1 12 14
M  V30 14 2 14 15
M  V30 15 1 15 16
M  V30 16 1 16 17
M  V30 17 1 16 18
M  V30 18 2 18 19
M  V30 19 1 19 20
M  V30 20 1 20 21
M  V30 21 1 21 22
M  V30 22 1 22 23
M  V30 23 2 23 24
M  V30 24 1 24 25
M  V30 25 2 25 26
M  V30 26 1 26 27
M  V30 27 1 27 28
M  V30 28 2 28 29
M  V30 29 1 29 30
M  V30 30 2 30 31
M  V30 31 1 31 32
M  V30 32 1 32 33
M  V30 33 1 33 34
M  V30 34 1 34 35
M  V30 35 1 35 36
M  V30 36 1 35 37
M  V30 37 1 37 38
M  V30 38 1 31 39
M  V30 39 2 39 40
M  V30 40 1 40 41
M  V30 41 1 41 42
M  V30 42 1 26 43
M  V30 43 2 43 44
M  V30 44 1 10 3
M  V30 45 1 19 14
M  V30 46 1 44 23
M  V30 47 1 44 18
M  V30 48 1 40 28
M  V30 49 1 38 32
M  V30 50 1 1 45
M  V30 51 1 1 46
M  V30 52 1 1 47
M  V30 53 1 2 48
M  V30 54 1 2 49
M  V30 55 1 4 50
M  V30 56 1 5 51
M  V30 57 1 6 52
M  V30 58 1 8 53
M  V30 59 1 8 54
M  V30 60 1 9 55
M  V30 61 1 9 56
M  V30 62 1 9 57
M  V30 63 1 11 58
M  V30 64 1 15 59
M  V30 65 1 17 60
M  V30 66 1 17 61
M  V30 67 1 17 62
M  V30 68 1 20 63
M  V30 69 1 20 64
M  V30 70 1 21 65
M  V30 71 1 21 66
M  V30 72 1 22 67
M  V30 73 1 22 68
M  V30 74 1 24 69
M  V30 75 1 27 70
M  V30 76 1 29 71
M  V30 77 1 30 72
M  V30 78 1 33 73
M  V30 79 1 33 74
M  V30 80 1 34 75
M  V30 81 1 34 76
M  V30 82 1 36 77
M  V30 83 1 36 78
M  V30 84 1 36 79
M  V30 85 1 37 80
M  V30 86 1 37 81
M  V30 87 1 38 82
M  V30 88 1 38 83
M  V30 89 1 39 84
M  V30 90 1 42 85
M  V30 91 1 42 86
M  V30 92 1 42 87
M  V30 END BOND
M  V30 END CTAB
M  END
>  <Dataset>  (251) 
ChEMBL_Kinases

>  <Ligand_Instance>  (251) 
nan

>  <PDB_ID>  (251) 
nan

>  <Standardized_SMILES>  (251) 
CCc1cccc(CC)c1NC(=O)c1cn(C)c2c1CCCc1cnc(Nc3ccc(N4CCN(C)CC4)cc3OC)nc1-2

>  <Name>  (251) 
nan

>  <Pocket>  (251) 
nan

>  <ATP_Site>  (251) 
nan

>  <Peripheral>  (251) 
nan

>  <Num_H_Atoms_ProtBoundConf>  (251) 
nan

>  <Num_Resolved_Atoms>  (251) 
nan

>  <Num_Not_Resolved_Atoms>  (251) 
nan

$$$$
CHEMBL3731253
     RDKit          3D

  0  0  0  0  0  0  0  0  0  0999 V3000
M  V30 BEGIN CTAB
M  V30 COUNTS 40 43 0 0 0
M  V30 BEGIN ATOM
M  V30 1 O 3.467724 -3.153112 2.857771 0
M  V30 2 C 3.030294 -2.159513 2.170150 0
M  V30 3 N 3.755388 -1.030058 1.791165 0
M  V30 4 C 2.999472 -0.096322 1.033994 0
M  V30 5 N 3.604710 0.895787 0.478621 0
M  V30 6 C 2.822103 1.812795 -0.271662 0
M  V30 7 C 2.041922 1.396046 -1.329155 0
M  V30 8 C 1.246649 2.199801 -2.122722 0
M  V30 9 C 1.239119 3.560391 -1.815710 0
M  V30 10 C 1.997962 4.044829 -0.768608 0
M  V30 11 C 2.778161 3.166323 -0.011910 0
M  V30 12 C 3.595279 3.709781 1.129272 0
M  V30 13 F 4.904192 3.378832 0.832961 0
M  V30 14 F 3.185010 3.049789 2.261375 0
M  V30 15 F 3.446866 5.080247 1.221858 0
M  V30 16 S 1.282357 -0.588734 1.051908 0
M  V30 17 C 1.631989 -2.224758 1.748552 0
M  V30 18 C 0.774703 -3.225135 1.844001 0
M  V30 19 C -0.588257 -2.991755 1.318910 0
M  V30 20 C -0.775946 -2.385034 0.097363 0
M  V30 21 C -2.062091 -2.128292 -0.397818 0
M  V30 22 C -3.103451 -2.522470 0.416409 0
M  V30 23 C -2.949900 -3.140814 1.660554 0
M  V30 24 C -1.661391 -3.378701 2.117020 0
M  V30 25 C -4.324562 -3.396710 2.218645 0
M  V30 26 C -5.113369 -2.380690 1.409796 0
M  V30 27 O -4.454980 -2.366790 0.129329 0
M  V30 28 H 4.779051 -0.946206 2.084066 0
M  V30 29 H 2.062466 0.340195 -1.549231 0
M  V30 30 H 0.658449 1.840792 -2.932701 0
M  V30 31 H 0.628349 4.222343 -2.412639 0
M  V30 32 H 1.963847 5.104046 -0.560203 0
M  V30 33 H 1.087816 -4.179949 2.298467 0
M  V30 34 H 0.056063 -2.088621 -0.534342 0
M  V30 35 H -2.185220 -1.658516 -1.344759 0
M  V30 36 H -1.502964 -3.855205 3.074172 0
M  V30 37 H -4.647105 -4.426503 2.049719 0
M  V30 38 H -4.273756 -3.152200 3.296409 0
M  V30 39 H -6.130663 -2.767024 1.273073 0
M  V30 40 H -5.062806 -1.407329 1.891731 0
M  V30 END ATOM
M  V30 BEGIN BOND
M  V30 1 2 1 2
M  V30 2 1 2 3
M  V30 3 1 3 4
M  V30 4 2 4 5
M  V30 5 1 5 6
M  V30 6 2 6 7
M  V30 7 1 7 8
M  V30 8 2 8 9
M  V30 9 1 9 10
M  V30 10 2 10 11
M  V30 11 1 11 12
M  V30 12 1 12 13
M  V30 13 1 12 14
M  V30 14 1 12 15
M  V30 15 1 4 16
M  V30 16 1 16 17
M  V30 17 2 17 18
M  V30 18 1 18 19
M  V30 19 2 19 20
M  V30 20 1 20 21
M  V30 21 2 21 22
M  V30 22 1 22 23
M  V30 23 2 23 24
M  V30 24 1 23 25
M  V30 25 1 25 26
M  V30 26 1 26 27
M  V30 27 1 17 2
M  V30 28 1 24 19
M  V30 29 1 11 6
M  V30 30 1 27 22
M  V30 31 1 3 28
M  V30 32 1 7 29
M  V30 33 1 8 30
M  V30 34 1 9 31
M  V30 35 1 10 32
M  V30 36 1 18 33
M  V30 37 1 20 34
M  V30 38 1 21 35
M  V30 39 1 24 36
M  V30 40 1 25 37
M  V30 41 1 25 38
M  V30 42 1 26 39
M  V30 43 1 26 40
M  V30 END BOND
M  V30 END CTAB
M  END
>  <Dataset>  (252) 
ChEMBL_Kinases

>  <Ligand_Instance>  (252) 
nan

>  <PDB_ID>  (252) 
nan

>  <Standardized_SMILES>  (252) 
O=C1N/C(=N/c2ccccc2C(F)(F)F)S/C1=C\c1ccc2c(c1)CCO2

>  <Name>  (252) 
nan

>  <Pocket>  (252) 
nan

>  <ATP_Site>  (252) 
nan

>  <Peripheral>  (252) 
nan

>  <Num_H_Atoms_ProtBoundConf>  (252) 
nan

>  <Num_Resolved_Atoms>  (252) 
nan

>  <Num_Not_Resolved_Atoms>  (252) 
nan

$$$$
CHEMBL3731249
     RDKit          3D

  0  0  0  0  0  0  0  0  0  0999 V3000
M  V30 BEGIN CTAB
M  V30 COUNTS 55 59 0 0 0
M  V30 BEGIN ATOM
M  V30 1 N 4.129176 0.659773 -0.868610 0
M  V30 2 C 3.330216 -0.222095 -1.726729 0 CFG=2
M  V30 3 C 2.216791 -0.748702 -0.846121 0
M  V30 4 N 1.437569 0.413605 -0.385824 0
M  V30 5 C 0.450833 -0.155895 0.498169 0
M  V30 6 N 0.034459 1.212651 0.676991 0
M  V30 7 C -0.988089 1.522692 1.483232 0
M  V30 8 C -1.526526 2.908406 1.758696 0
M  V30 9 C -0.835376 3.897683 1.048457 0
M  V30 10 C -1.242176 5.205085 1.225231 0
M  V30 11 N -2.259573 5.457734 2.053978 0
M  V30 12 C -2.917169 4.506596 2.731876 0
M  V30 13 C -2.561780 3.185527 2.598564 0
M  V30 14 F -3.156505 2.120943 3.236525 0
M  V30 15 N -1.680019 0.606570 2.164754 0
M  V30 16 C -1.427152 -0.693721 2.112627 0
M  V30 17 C -1.762682 -1.920163 2.532741 0
M  V30 18 C -2.907369 -1.821952 3.472359 0
M  V30 19 C -3.431365 -2.985150 3.983359 0
M  V30 20 C -4.464256 -2.704014 4.814276 0
M  V30 21 C -5.415319 -3.442761 5.648885 0
M  V30 22 F -5.308818 -4.787362 5.364419 0
M  V30 23 F -6.699354 -2.965913 5.441559 0
M  V30 24 F -5.160000 -3.234010 6.998999 0
M  V30 25 N -4.581671 -1.367323 4.819360 0
M  V30 26 N -3.664372 -0.858621 4.029970 0
M  V30 27 C -1.104656 -3.105040 2.125754 0
M  V30 28 S 0.166877 -2.317639 0.982405 0
M  V30 29 C -0.393714 -0.620809 1.251080 0
M  V30 30 C 4.222116 -1.263284 -2.296916 0
M  V30 31 C 3.507421 -2.212361 -3.201289 0
M  V30 32 C 3.433379 -1.906395 -4.542942 0
M  V30 33 C 2.813920 -2.656579 -5.512090 0
M  V30 34 C 2.222373 -3.807569 -5.089005 0
M  V30 35 C 2.247262 -4.194012 -3.760511 0
M  V30 36 C 2.885251 -3.407847 -2.807103 0
M  V30 37 H 5.066905 0.243918 -0.679692 0
M  V30 38 H 3.666243 0.854227 0.044501 0
M  V30 39 H 2.876126 0.411972 -2.499714 0
M  V30 40 H 1.552649 -1.464726 -1.381273 0
M  V30 41 H 2.678773 -1.183404 0.063755 0
M  V30 42 H 1.783688 1.272166 -0.806462 0
M  V30 43 H -0.000398 3.770212 0.363373 0
M  V30 44 H -0.758700 6.025453 0.712711 0
M  V30 45 H -3.742624 4.712719 3.404512 0
M  V30 46 H -3.156396 -4.040004 3.828999 0
M  V30 47 H -5.192224 -0.634502 5.270440 0
M  V30 48 H -1.366503 -4.115852 2.454379 0
M  V30 49 H 4.992798 -0.752863 -2.906165 0
M  V30 50 H 4.751637 -1.837951 -1.509815 0
M  V30 51 H 3.912058 -0.976814 -4.881957 0
M  V30 52 H 2.797528 -2.347051 -6.557603 0
M  V30 53 H 1.694255 -4.493655 -5.768260 0
M  V30 54 H 1.821473 -5.064191 -3.313473 0
M  V30 55 H 2.958093 -3.618640 -1.748134 0
M  V30 END ATOM
M  V30 BEGIN BOND
M  V30 1 1 1 2
M  V30 2 1 2 3
M  V30 3 1 3 4
M  V30 4 1 4 5
M  V30 5 2 5 6
M  V30 6 1 6 7
M  V30 7 1 7 8
M  V30 8 2 8 9
M  V30 9 1 9 10
M  V30 10 2 10 11
M  V30 11 1 11 12
M  V30 12 2 12 13
M  V30 13 1 13 14
M  V30 14 2 7 15
M  V30 15 1 15 16
M  V30 16 1 16 17
M  V30 17 1 17 18
M  V30 18 1 18 19
M  V30 19 2 19 20
M  V30 20 1 20 21
M  V30 21 1 21 22
M  V30 22 1 21 23
M  V30 23 1 21 24
M  V30 24 1 20 25
M  V30 25 1 25 26
M  V30 26 2 17 27
M  V30 27 1 27 28
M  V30 28 1 28 29
M  V30 29 1 2 30
M  V30 30 1 30 31
M  V30 31 2 31 32
M  V30 32 1 32 33
M  V30 33 2 33 34
M  V30 34 1 34 35
M  V30 35 2 35 36
M  V30 36 1 29 5
M  V30 37 1 36 31
M  V30 38 1 13 8
M  V30 39 2 29 16
M  V30 40 2 26 18
M  V30 41 1 1 37
M  V30 42 1 1 38
M  V30 43 1 2 39 CFG=3
M  V30 44 1 3 40
M  V30 45 1 3 41
M  V30 46 1 4 42
M  V30 47 1 9 43
M  V30 48 1 10 44
M  V30 49 1 12 45
M  V30 50 1 19 46
M  V30 51 1 25 47
M  V30 52 1 27 48
M  V30 53 1 30 49
M  V30 54 1 30 50
M  V30 55 1 32 51
M  V30 56 1 33 52
M  V30 57 1 34 53
M  V30 58 1 35 54
M  V30 59 1 36 55
M  V30 END BOND
M  V30 END CTAB
M  END
>  <Dataset>  (253) 
ChEMBL_Kinases

>  <Ligand_Instance>  (253) 
nan

>  <PDB_ID>  (253) 
nan

>  <Standardized_SMILES>  (253) 
N[C@H](CNc1nc(-c2ccncc2F)nc2c(-c3cc(C(F)(F)F)[nH]n3)csc12)Cc1ccccc1

>  <Name>  (253) 
nan

>  <Pocket>  (253) 
nan

>  <ATP_Site>  (253) 
nan

>  <Peripheral>  (253) 
nan

>  <Num_H_Atoms_ProtBoundConf>  (253) 
nan

>  <Num_Resolved_Atoms>  (253) 
nan

>  <Num_Not_Resolved_Atoms>  (253) 
nan

$$$$
CHEMBL3731306
     RDKit          3D

  0  0  0  0  0  0  0  0  0  0999 V3000
M  V30 BEGIN CTAB
M  V30 COUNTS 58 63 0 0 0
M  V30 BEGIN ATOM
M  V30 1 Br 1.611067 -7.441792 3.380779 0
M  V30 2 C 2.148371 -5.985970 2.274176 0
M  V30 3 C 1.606110 -5.780331 1.021974 0
M  V30 4 C 1.974515 -4.734006 0.196923 0
M  V30 5 C 2.945018 -3.836006 0.648740 0
M  V30 6 C 3.318438 -2.723702 -0.263850 0
M  V30 7 N 2.453497 -1.613305 -0.003581 0
M  V30 8 C 2.512773 -1.094343 1.324017 0
M  V30 9 C 1.444889 -0.069119 1.507376 0
M  V30 10 N 0.711847 0.263575 0.297228 0
M  V30 11 C -0.602638 0.798673 0.298293 0
M  V30 12 N -0.568951 2.112907 0.015187 0
M  V30 13 C -1.613205 2.941106 -0.025409 0
M  V30 14 C -1.545381 4.364173 -0.337281 0
M  V30 15 C -0.290084 4.882527 -0.618486 0
M  V30 16 C -0.276290 6.234414 -0.910486 0
M  V30 17 N -1.366729 7.038959 -0.935657 0
M  V30 18 C -2.581340 6.501018 -0.655764 0
M  V30 19 C -2.670133 5.161077 -0.356237 0
M  V30 20 N -2.798444 2.370569 0.248967 0
M  V30 21 C -2.895023 1.062292 0.537985 0
M  V30 22 S -4.273074 0.072504 0.918464 0
M  V30 23 C -3.287018 -1.522107 1.122865 0
M  V30 24 C -2.014844 -1.089473 0.870430 0
M  V30 25 C -1.822536 0.233791 0.574170 0
M  V30 26 C -1.241602 -2.344376 0.988497 0
M  V30 27 C -1.820785 -3.284376 -0.057715 0
M  V30 28 C -3.055302 -3.900891 0.547491 0
M  V30 29 C -3.659435 -2.872462 1.464294 0
M  V30 30 C 1.155264 0.126354 -1.076884 0
M  V30 31 C 2.497540 -0.580738 -1.014529 0
M  V30 32 C 3.470739 -4.065810 1.905877 0
M  V30 33 N 3.077211 -5.100064 2.669484 0
M  V30 34 H 0.849794 -6.454011 0.633507 0
M  V30 35 H 1.505046 -4.625172 -0.787720 0
M  V30 36 H 4.383984 -2.436496 -0.074521 0
M  V30 37 H 3.159722 -3.057648 -1.296605 0
M  V30 38 H 3.536109 -0.707836 1.588407 0
M  V30 39 H 2.292686 -1.912288 2.050812 0
M  V30 40 H 0.764575 -0.279237 2.352850 0
M  V30 41 H 1.963936 0.890082 1.802667 0
M  V30 42 H 0.644212 4.343679 -0.629800 0
M  V30 43 H 0.636638 6.791773 -1.155405 0
M  V30 44 H -3.444117 7.137782 -0.675903 0
M  V30 45 H -3.644508 4.718269 -0.129384 0
M  V30 46 H -1.384801 -2.845499 1.966860 0
M  V30 47 H -0.154088 -2.241892 0.876171 0
M  V30 48 H -2.143658 -2.747084 -0.979543 0
M  V30 49 H -1.091009 -4.060712 -0.359646 0
M  V30 50 H -3.789154 -4.218157 -0.224851 0
M  V30 51 H -2.725990 -4.806560 1.140660 0
M  V30 52 H -4.775364 -2.972045 1.370081 0
M  V30 53 H -3.434676 -3.176941 2.508014 0
M  V30 54 H 0.434315 -0.416696 -1.712762 0
M  V30 55 H 1.293861 1.130106 -1.507422 0
M  V30 56 H 2.820949 -1.015472 -1.962049 0
M  V30 57 H 3.277203 0.138364 -0.679619 0
M  V30 58 H 4.224474 -3.339227 2.215126 0
M  V30 END ATOM
M  V30 BEGIN BOND
M  V30 1 1 1 2
M  V30 2 2 2 3
M  V30 3 1 3 4
M  V30 4 2 4 5
M  V30 5 1 5 6
M  V30 6 1 6 7
M  V30 7 1 7 8
M  V30 8 1 8 9
M  V30 9 1 9 10
M  V30 10 1 10 11
M  V30 11 2 11 12
M  V30 12 1 12 13
M  V30 13 1 13 14
M  V30 14 2 14 15
M  V30 15 1 15 16
M  V30 16 2 16 17
M  V30 17 1 17 18
M  V30 18 2 18 19
M  V30 19 2 13 20
M  V30 20 1 20 21
M  V30 21 1 21 22
M  V30 22 1 22 23
M  V30 23 2 23 24
M  V30 24 1 24 25
M  V30 25 1 24 26
M  V30 26 1 26 27
M  V30 27 1 27 28
M  V30 28 1 28 29
M  V30 29 1 10 30
M  V30 30 1 30 31
M  V30 31 1 5 32
M  V30 32 2 32 33
M  V30 33 1 33 2
M  V30 34 1 31 7
M  V30 35 1 25 11
M  V30 36 1 19 14
M  V30 37 2 25 21
M  V30 38 1 29 23
M  V30 39 1 3 34
M  V30 40 1 4 35
M  V30 41 1 6 36
M  V30 42 1 6 37
M  V30 43 1 8 38
M  V30 44 1 8 39
M  V30 45 1 9 40
M  V30 46 1 9 41
M  V30 47 1 15 42
M  V30 48 1 16 43
M  V30 49 1 18 44
M  V30 50 1 19 45
M  V30 51 1 26 46
M  V30 52 1 26 47
M  V30 53 1 27 48
M  V30 54 1 27 49
M  V30 55 1 28 50
M  V30 56 1 28 51
M  V30 57 1 29 52
M  V30 58 1 29 53
M  V30 59 1 30 54
M  V30 60 1 30 55
M  V30 61 1 31 56
M  V30 62 1 31 57
M  V30 63 1 32 58
M  V30 END BOND
M  V30 END CTAB
M  END
>  <Dataset>  (254) 
ChEMBL_Kinases

>  <Ligand_Instance>  (254) 
nan

>  <PDB_ID>  (254) 
nan

>  <Standardized_SMILES>  (254) 
Brc1ccc(CN2CCN(c3nc(-c4ccncc4)nc4sc5c(c34)CCCC5)CC2)cn1

>  <Name>  (254) 
nan

>  <Pocket>  (254) 
nan

>  <ATP_Site>  (254) 
nan

>  <Peripheral>  (254) 
nan

>  <Num_H_Atoms_ProtBoundConf>  (254) 
nan

>  <Num_Resolved_Atoms>  (254) 
nan

>  <Num_Not_Resolved_Atoms>  (254) 
nan

$$$$
CHEMBL3732541
     RDKit          3D

  0  0  0  0  0  0  0  0  0  0999 V3000
M  V30 BEGIN CTAB
M  V30 COUNTS 64 69 0 0 0
M  V30 BEGIN ATOM
M  V30 1 C 2.718963 0.194026 4.587852 0
M  V30 2 N 4.126587 0.423461 4.428631 0
M  V30 3 C 4.634932 -0.249010 3.242651 0
M  V30 4 C 4.997569 0.770761 2.169941 0
M  V30 5 N 3.941111 1.747411 2.020605 0
M  V30 6 C 3.134845 1.974845 0.872583 0
M  V30 7 C 3.210767 1.292157 -0.321777 0
M  V30 8 C 2.344318 1.612490 -1.379292 0
M  V30 9 C 1.381735 2.627880 -1.255489 0
M  V30 10 N 0.650615 2.698150 -2.474882 0
M  V30 11 C -0.531405 1.943195 -2.131778 0
M  V30 12 C -0.512121 0.595670 -1.888445 0
M  V30 13 C -1.620619 -0.152384 -1.564552 0
M  V30 14 C -1.564546 -1.605154 -1.283219 0
M  V30 15 N -2.724243 -2.207321 -0.966204 0
M  V30 16 C -2.644111 -3.512791 -0.688466 0
M  V30 17 N -3.657074 -4.397325 -0.323889 0
M  V30 18 C -4.983502 -3.901337 -0.214805 0 CFG=2
M  V30 19 C -5.533632 -3.328280 -1.519377 0
M  V30 20 C -6.777148 -2.645917 -0.999906 0
M  V30 21 N -6.554606 -2.351830 0.393067 0
M  V30 22 C -5.173928 -2.733259 0.708741 0
M  V30 23 C -1.367003 -4.084574 -0.765139 0
M  V30 24 S -0.823441 -5.851999 -0.455173 0
M  V30 25 C 1.012218 -5.520303 -0.820536 0
M  V30 26 C 1.022057 -4.125870 -1.134455 0
M  V30 27 C -0.134836 -3.448043 -1.102566 0
M  V30 28 N -0.341857 -2.148050 -1.357706 0
M  V30 29 C -2.835485 0.475219 -1.475272 0
M  V30 30 C -2.874719 1.836236 -1.718412 0
M  V30 31 N -1.742338 2.521003 -2.034117 0
M  V30 32 N 1.345267 3.267847 -0.073266 0
M  V30 33 C 2.173435 2.961339 0.936712 0
M  V30 34 C 3.757140 2.525349 3.225237 0
M  V30 35 C 4.423100 1.846633 4.378869 0
M  V30 36 H 2.372272 0.706302 5.514173 0
M  V30 37 H 2.114005 0.594434 3.757217 0
M  V30 38 H 2.548572 -0.898542 4.662363 0
M  V30 39 H 3.935018 -1.003524 2.846335 0
M  V30 40 H 5.581760 -0.744276 3.536657 0
M  V30 41 H 5.062602 0.187761 1.231872 0
M  V30 42 H 5.991081 1.208345 2.373429 0
M  V30 43 H 3.954992 0.515356 -0.398433 0
M  V30 44 H 2.546890 0.984589 -2.240781 0
M  V30 45 H 0.891314 3.163602 -3.375608 0
M  V30 46 H 0.403895 0.038162 -1.940756 0
M  V30 47 H -3.522434 -5.407692 -0.120408 0
M  V30 48 H -5.720086 -4.669350 0.106265 0
M  V30 49 H -4.868037 -2.565582 -1.964340 0
M  V30 50 H -5.789338 -4.163012 -2.220748 0
M  V30 51 H -7.608503 -3.403902 -1.120040 0
M  V30 52 H -7.069282 -1.773500 -1.589684 0
M  V30 53 H -7.196311 -2.968732 0.965069 0
M  V30 54 H -4.571799 -1.838109 0.454020 0
M  V30 55 H -5.086596 -2.991537 1.782751 0
M  V30 56 H 1.898329 -6.188212 -0.810531 0
M  V30 57 H 1.976255 -3.704611 -1.381688 0
M  V30 58 H -3.762921 -0.024656 -1.227757 0
M  V30 59 H -3.827442 2.334767 -1.649162 0
M  V30 60 H 1.973723 3.595926 1.790374 0
M  V30 61 H 4.166307 3.551101 3.134663 0
M  V30 62 H 2.648199 2.584958 3.424235 0
M  V30 63 H 4.166721 2.321084 5.345315 0
M  V30 64 H 5.523230 1.923244 4.232748 0
M  V30 END ATOM
M  V30 BEGIN BOND
M  V30 1 1 1 2
M  V30 2 1 2 3
M  V30 3 1 3 4
M  V30 4 1 4 5
M  V30 5 1 5 6
M  V30 6 2 6 7
M  V30 7 1 7 8
M  V30 8 2 8 9
M  V30 9 1 9 10
M  V30 10 1 10 11
M  V30 11 2 11 12
M  V30 12 1 12 13
M  V30 13 1 13 14
M  V30 14 2 14 15
M  V30 15 1 15 16
M  V30 16 1 16 17
M  V30 17 1 17 18
M  V30 18 1 18 19
M  V30 19 1 19 20
M  V30 20 1 20 21
M  V30 21 1 21 22
M  V30 22 2 16 23
M  V30 23 1 23 24
M  V30 24 1 24 25
M  V30 25 2 25 26
M  V30 26 1 26 27
M  V30 27 2 27 28
M  V30 28 2 13 29
M  V30 29 1 29 30
M  V30 30 2 30 31
M  V30 31 1 9 32
M  V30 32 2 32 33
M  V30 33 1 5 34
M  V30 34 1 34 35
M  V30 35 1 35 2
M  V30 36 1 33 6
M  V30 37 1 31 11
M  V30 38 1 28 14
M  V30 39 1 22 18
M  V30 40 1 27 23
M  V30 41 1 1 36
M  V30 42 1 1 37
M  V30 43 1 1 38
M  V30 44 1 3 39
M  V30 45 1 3 40
M  V30 46 1 4 41
M  V30 47 1 4 42
M  V30 48 1 7 43
M  V30 49 1 8 44
M  V30 50 1 10 45
M  V30 51 1 12 46
M  V30 52 1 17 47
M  V30 53 1 18 48 CFG=1
M  V30 54 1 19 49
M  V30 55 1 19 50
M  V30 56 1 20 51
M  V30 57 1 20 52
M  V30 58 1 21 53
M  V30 59 1 22 54
M  V30 60 1 22 55
M  V30 61 1 25 56
M  V30 62 1 26 57
M  V30 63 1 29 58
M  V30 64 1 30 59
M  V30 65 1 33 60
M  V30 66 1 34 61
M  V30 67 1 34 62
M  V30 68 1 35 63
M  V30 69 1 35 64
M  V30 END BOND
M  V30 END CTAB
M  END
>  <Dataset>  (255) 
ChEMBL_Kinases

>  <Ligand_Instance>  (255) 
nan

>  <PDB_ID>  (255) 
nan

>  <Standardized_SMILES>  (255) 
CN1CCN(c2ccc(Nc3cc(-c4nc(N[C@@H]5CCNC5)c5sccc5n4)ccn3)nc2)CC1

>  <Name>  (255) 
nan

>  <Pocket>  (255) 
nan

>  <ATP_Site>  (255) 
nan

>  <Peripheral>  (255) 
nan

>  <Num_H_Atoms_ProtBoundConf>  (255) 
nan

>  <Num_Resolved_Atoms>  (255) 
nan

>  <Num_Not_Resolved_Atoms>  (255) 
nan

$$$$
CHEMBL373252
     RDKit          3D

  0  0  0  0  0  0  0  0  0  0999 V3000
M  V30 BEGIN CTAB
M  V30 COUNTS 47 50 0 0 0
M  V30 BEGIN ATOM
M  V30 1 C 2.172184 -6.921840 2.679690 0
M  V30 2 O 2.098900 -7.092455 1.275130 0
M  V30 3 C 1.686572 -6.059339 0.451381 0
M  V30 4 C 1.273515 -4.762506 0.516849 0
M  V30 5 C 0.916149 -3.973026 -0.541989 0
M  V30 6 C 0.517180 -2.619460 -0.194323 0
M  V30 7 C -0.420417 -1.924135 -0.925288 0
M  V30 8 C -0.822137 -0.630112 -0.628210 0
M  V30 9 C -0.219269 -0.052520 0.469755 0
M  V30 10 C 0.726356 -0.687437 1.247036 0
M  V30 11 C 1.073010 -1.972502 0.887548 0
M  V30 12 N 1.166465 0.165450 2.311765 0
M  V30 13 C 0.463556 1.389013 2.193726 0
M  V30 14 O 0.649492 2.320992 2.988879 0
M  V30 15 C -0.401293 1.268074 1.055231 0
M  V30 16 C -1.162416 2.288161 0.696926 0
M  V30 17 C -1.347009 3.605590 1.285061 0
M  V30 18 N -1.574559 4.062180 2.526464 0
M  V30 19 C -1.656348 5.381823 2.604960 0
M  V30 20 C -1.903327 6.182452 3.842807 0
M  V30 21 C -1.473500 5.848119 1.340435 0
M  V30 22 C -1.277067 4.753824 0.489524 0
M  V30 23 C -1.043249 4.888391 -0.989188 0
M  V30 24 C 0.972047 -4.528242 -1.827472 0
M  V30 25 C 1.382038 -5.833876 -1.953010 0
M  V30 26 C 1.741586 -6.614864 -0.844191 0
M  V30 27 O 2.112656 -7.894449 -1.297014 0
M  V30 28 H 3.047075 -7.383441 3.150968 0
M  V30 29 H 1.280204 -7.396941 3.167903 0
M  V30 30 H 2.103102 -5.849047 2.969697 0
M  V30 31 H 1.296315 -4.511483 1.591135 0
M  V30 32 H -0.863977 -2.425347 -1.780257 0
M  V30 33 H -1.564036 -0.087262 -1.207222 0
M  V30 34 H 1.806655 -2.534783 1.449463 0
M  V30 35 H 1.874714 -0.120826 3.010610 0
M  V30 36 H -1.761656 2.093729 -0.211039 0
M  V30 37 H -1.695429 3.450628 3.361332 0
M  V30 38 H -1.912998 5.513926 4.740202 0
M  V30 39 H -2.776559 6.826745 3.766571 0
M  V30 40 H -1.002490 6.838639 3.993305 0
M  V30 41 H -1.486369 6.914221 1.084424 0
M  V30 42 H -1.928433 4.458628 -1.543836 0
M  V30 43 H -1.026964 5.958742 -1.254742 0
M  V30 44 H -0.126248 4.397954 -1.315856 0
M  V30 45 H 0.681225 -3.859827 -2.608112 0
M  V30 46 H 1.376013 -6.126425 -2.992901 0
M  V30 47 H 1.618828 -8.689407 -0.912532 0
M  V30 END ATOM
M  V30 BEGIN BOND
M  V30 1 1 1 2
M  V30 2 1 2 3
M  V30 3 2 3 4
M  V30 4 1 4 5
M  V30 5 1 5 6
M  V30 6 2 6 7
M  V30 7 1 7 8
M  V30 8 2 8 9
M  V30 9 1 9 10
M  V30 10 2 10 11
M  V30 11 1 10 12
M  V30 12 1 12 13
M  V30 13 2 13 14
M  V30 14 1 13 15
M  V30 15 2 15 16
M  V30 16 1 16 17
M  V30 17 1 17 18
M  V30 18 1 18 19
M  V30 19 1 19 20
M  V30 20 2 19 21
M  V30 21 1 21 22
M  V30 22 1 22 23
M  V30 23 2 5 24
M  V30 24 1 24 25
M  V30 25 2 25 26
M  V30 26 1 26 27
M  V30 27 1 26 3
M  V30 28 1 11 6
M  V30 29 2 22 17
M  V30 30 1 15 9
M  V30 31 1 1 28
M  V30 32 1 1 29
M  V30 33 1 1 30
M  V30 34 1 4 31
M  V30 35 1 7 32
M  V30 36 1 8 33
M  V30 37 1 11 34
M  V30 38 1 12 35
M  V30 39 1 16 36
M  V30 40 1 18 37
M  V30 41 1 20 38
M  V30 42 1 20 39
M  V30 43 1 20 40
M  V30 44 1 21 41
M  V30 45 1 23 42
M  V30 46 1 23 43
M  V30 47 1 23 44
M  V30 48 1 24 45
M  V30 49 1 25 46
M  V30 50 1 27 47
M  V30 END BOND
M  V30 END CTAB
M  END
>  <Dataset>  (256) 
ChEMBL_Kinases

>  <Ligand_Instance>  (256) 
nan

>  <PDB_ID>  (256) 
nan

>  <Standardized_SMILES>  (256) 
COc1cc(-c2ccc3c(c2)NC(=O)/C3=C\c2[nH]c(C)cc2C)ccc1O

>  <Name>  (256) 
nan

>  <Pocket>  (256) 
nan

>  <ATP_Site>  (256) 
nan

>  <Peripheral>  (256) 
nan

>  <Num_H_Atoms_ProtBoundConf>  (256) 
nan

>  <Num_Resolved_Atoms>  (256) 
nan

>  <Num_Not_Resolved_Atoms>  (256) 
nan

$$$$
CHEMBL3732519
     RDKit          3D

  0  0  0  0  0  0  0  0  0  0999 V3000
M  V30 BEGIN CTAB
M  V30 COUNTS 57 60 0 0 0
M  V30 BEGIN ATOM
M  V30 1 C 7.434230 -0.431768 2.275269 0
M  V30 2 C 6.814411 -1.391480 1.310523 0
M  V30 3 C 6.570114 -2.714361 2.000493 0
M  V30 4 O 7.667711 -1.617449 0.236440 0
M  V30 5 C 5.595155 -0.810033 0.774061 0
M  V30 6 C 4.555194 -0.326289 0.336021 0
M  V30 7 C 3.327010 0.219645 -0.166468 0
M  V30 8 C 3.423702 1.458757 -0.853437 0
M  V30 9 S 1.626705 1.813722 -1.337197 0
M  V30 10 C 1.017706 0.373137 -0.616620 0
M  V30 11 C -0.296931 -0.091752 -0.559861 0
M  V30 12 N -1.312379 0.691243 -1.169533 0
M  V30 13 C -2.673430 0.216548 -1.110674 0
M  V30 14 C -3.233302 0.103372 0.273436 0 CFG=1
M  V30 15 N -3.225024 1.410832 0.946353 0
M  V30 16 C -4.666351 -0.400920 0.267720 0
M  V30 17 C -5.576983 0.481465 -0.478795 0
M  V30 18 C -5.713091 0.188822 -1.833774 0
M  V30 19 C -6.523915 0.914288 -2.675067 0
M  V30 20 C -7.224656 1.966578 -2.156432 0
M  V30 21 C -7.109875 2.273231 -0.838397 0
M  V30 22 C -6.300965 1.552288 0.009110 0
M  V30 23 N -0.580983 -1.270147 0.063340 0
M  V30 24 C 0.491285 -1.893658 0.585326 0
M  V30 25 C 0.253754 -3.179534 1.276816 0
M  V30 26 C -1.049207 -3.625253 1.324433 0
M  V30 27 C -1.261400 -4.842766 1.981200 0
M  V30 28 N -0.233694 -5.534987 2.535319 0
M  V30 29 C 1.039406 -5.095490 2.486528 0
M  V30 30 C 1.283519 -3.898644 1.846502 0
M  V30 31 F 2.558359 -3.434140 1.783827 0
M  V30 32 N 1.755220 -1.450231 0.532737 0
M  V30 33 C 2.067857 -0.291499 -0.074828 0
M  V30 34 H 7.060285 -0.577464 3.306535 0
M  V30 35 H 8.540144 -0.620482 2.317939 0
M  V30 36 H 7.256359 0.622061 1.984824 0
M  V30 37 H 6.775941 -3.582080 1.362141 0
M  V30 38 H 5.551996 -2.807021 2.407806 0
M  V30 39 H 7.285039 -2.778708 2.853471 0
M  V30 40 H 7.732174 -2.570775 -0.001556 0
M  V30 41 H 4.305459 2.093043 -1.074203 0
M  V30 42 H -1.093031 1.571758 -1.641145 0
M  V30 43 H -2.789466 -0.780590 -1.586272 0
M  V30 44 H -3.330420 0.955189 -1.655368 0
M  V30 45 H -2.668666 -0.582174 0.897475 0
M  V30 46 H -3.307808 2.200210 0.251709 0
M  V30 47 H -2.264497 1.560871 1.375769 0
M  V30 48 H -4.997590 -0.486728 1.325339 0
M  V30 49 H -4.708686 -1.436345 -0.128313 0
M  V30 50 H -5.177192 -0.642531 -2.308279 0
M  V30 51 H -6.612371 0.662394 -3.736451 0
M  V30 52 H -7.861034 2.534401 -2.821233 0
M  V30 53 H -7.648390 3.101609 -0.382164 0
M  V30 54 H -6.146468 1.723535 1.075858 0
M  V30 55 H -1.918508 -3.124510 0.903802 0
M  V30 56 H -2.250642 -5.241622 2.051646 0
M  V30 57 H 1.830235 -5.671321 2.937390 0
M  V30 END ATOM
M  V30 BEGIN BOND
M  V30 1 1 1 2
M  V30 2 1 2 3
M  V30 3 1 2 4
M  V30 4 1 2 5
M  V30 5 3 5 6
M  V30 6 1 6 7
M  V30 7 2 7 8
M  V30 8 1 8 9
M  V30 9 1 9 10
M  V30 10 2 10 11
M  V30 11 1 11 12
M  V30 12 1 12 13
M  V30 13 1 13 14
M  V30 14 1 14 15
M  V30 15 1 14 16
M  V30 16 1 16 17
M  V30 17 2 17 18
M  V30 18 1 18 19
M  V30 19 2 19 20
M  V30 20 1 20 21
M  V30 21 2 21 22
M  V30 22 1 11 23
M  V30 23 2 23 24
M  V30 24 1 24 25
M  V30 25 2 25 26
M  V30 26 1 26 27
M  V30 27 2 27 28
M  V30 28 1 28 29
M  V30 29 2 29 30
M  V30 30 1 30 31
M  V30 31 1 24 32
M  V30 32 2 32 33
M  V30 33 1 33 7
M  V30 34 1 33 10
M  V30 35 1 22 17
M  V30 36 1 30 25
M  V30 37 1 1 34
M  V30 38 1 1 35
M  V30 39 1 1 36
M  V30 40 1 3 37
M  V30 41 1 3 38
M  V30 42 1 3 39
M  V30 43 1 4 40
M  V30 44 1 8 41
M  V30 45 1 12 42
M  V30 46 1 13 43
M  V30 47 1 13 44
M  V30 48 1 14 45 CFG=1
M  V30 49 1 15 46
M  V30 50 1 15 47
M  V30 51 1 16 48
M  V30 52 1 16 49
M  V30 53 1 18 50
M  V30 54 1 19 51
M  V30 55 1 20 52
M  V30 56 1 21 53
M  V30 57 1 22 54
M  V30 58 1 26 55
M  V30 59 1 27 56
M  V30 60 1 29 57
M  V30 END BOND
M  V30 END CTAB
M  END
>  <Dataset>  (257) 
ChEMBL_Kinases

>  <Ligand_Instance>  (257) 
nan

>  <PDB_ID>  (257) 
nan

>  <Standardized_SMILES>  (257) 
CC(C)(O)C#Cc1csc2c(NC[C@@H](N)Cc3ccccc3)nc(-c3ccncc3F)nc12

>  <Name>  (257) 
nan

>  <Pocket>  (257) 
nan

>  <ATP_Site>  (257) 
nan

>  <Peripheral>  (257) 
nan

>  <Num_H_Atoms_ProtBoundConf>  (257) 
nan

>  <Num_Resolved_Atoms>  (257) 
nan

>  <Num_Not_Resolved_Atoms>  (257) 
nan

$$$$
CHEMBL3732514
     RDKit          3D

  0  0  0  0  0  0  0  0  0  0999 V3000
M  V30 BEGIN CTAB
M  V30 COUNTS 42 45 0 0 0
M  V30 BEGIN ATOM
M  V30 1 C 0.041503 -3.495372 2.492635 0
M  V30 2 C 1.287026 -3.170804 1.746926 0
M  V30 3 C 2.305930 -4.136487 1.830272 0
M  V30 4 S 3.633837 -3.420030 0.858898 0
M  V30 5 C 2.817430 -1.953766 0.413047 0
M  V30 6 N 3.197453 -0.902529 -0.320631 0
M  V30 7 C 2.384382 0.145261 -0.532254 0
M  V30 8 C 2.822648 1.279821 -1.335410 0
M  V30 9 C 4.090371 1.261139 -1.877022 0
M  V30 10 C 4.512541 2.330439 -2.638005 0
M  V30 11 N 3.710825 3.384602 -2.858181 0
M  V30 12 C 2.462330 3.390809 -2.318195 0
M  V30 13 C 1.961594 2.344246 -1.535304 0
M  V30 14 N 1.181752 0.035784 0.050339 0
M  V30 15 C 0.757594 -0.997091 0.792652 0
M  V30 16 N -0.593199 -0.756792 1.193861 0
M  V30 17 C -1.556474 -1.554596 0.436972 0
M  V30 18 C -2.777347 -1.938725 1.198021 0
M  V30 19 C -3.088225 -1.119416 2.401973 0
M  V30 20 N -2.913140 0.280406 2.065739 0
M  V30 21 C -1.743508 0.783707 2.756838 0
M  V30 22 C -0.465416 0.231002 2.234082 0
M  V30 23 C 1.598329 -2.062723 1.003864 0
M  V30 24 H -0.683684 -4.043457 1.852841 0
M  V30 25 H 0.274707 -4.072968 3.419609 0
M  V30 26 H -0.479658 -2.589064 2.864932 0
M  V30 27 H 2.359439 -5.067155 2.315705 0
M  V30 28 H 4.737716 0.397646 -1.692591 0
M  V30 29 H 5.524041 2.235800 -3.027140 0
M  V30 30 H 1.853465 4.276498 -2.531345 0
M  V30 31 H 0.974268 2.381140 -1.125574 0
M  V30 32 H -1.818868 -1.005855 -0.525375 0
M  V30 33 H -1.073638 -2.480438 0.066657 0
M  V30 34 H -2.786702 -3.028523 1.427223 0
M  V30 35 H -3.648090 -1.813396 0.490998 0
M  V30 36 H -4.172713 -1.276354 2.627714 0
M  V30 37 H -2.511508 -1.402504 3.290073 0
M  V30 38 H -2.918058 0.452484 1.054343 0
M  V30 39 H -1.911364 0.600752 3.837129 0
M  V30 40 H -1.752224 1.882060 2.606556 0
M  V30 41 H 0.044030 -0.268035 3.096571 0
M  V30 42 H 0.225494 1.069940 1.922273 0
M  V30 END ATOM
M  V30 BEGIN BOND
M  V30 1 1 1 2
M  V30 2 2 2 3
M  V30 3 1 3 4
M  V30 4 1 4 5
M  V30 5 2 5 6
M  V30 6 1 6 7
M  V30 7 1 7 8
M  V30 8 2 8 9
M  V30 9 1 9 10
M  V30 10 2 10 11
M  V30 11 1 11 12
M  V30 12 2 12 13
M  V30 13 2 7 14
M  V30 14 1 14 15
M  V30 15 1 15 16
M  V30 16 1 16 17
M  V30 17 1 17 18
M  V30 18 1 18 19
M  V30 19 1 19 20
M  V30 20 1 20 21
M  V30 21 1 21 22
M  V30 22 2 15 23
M  V30 23 1 23 2
M  V30 24 1 23 5
M  V30 25 1 13 8
M  V30 26 1 22 16
M  V30 27 1 1 24
M  V30 28 1 1 25
M  V30 29 1 1 26
M  V30 30 1 3 27
M  V30 31 1 9 28
M  V30 32 1 10 29
M  V30 33 1 12 30
M  V30 34 1 13 31
M  V30 35 1 17 32
M  V30 36 1 17 33
M  V30 37 1 18 34
M  V30 38 1 18 35
M  V30 39 1 19 36
M  V30 40 1 19 37
M  V30 41 1 20 38
M  V30 42 1 21 39
M  V30 43 1 21 40
M  V30 44 1 22 41
M  V30 45 1 22 42
M  V30 END BOND
M  V30 END CTAB
M  END
>  <Dataset>  (258) 
ChEMBL_Kinases

>  <Ligand_Instance>  (258) 
nan

>  <PDB_ID>  (258) 
nan

>  <Standardized_SMILES>  (258) 
Cc1csc2nc(-c3ccncc3)nc(N3CCCNCC3)c12

>  <Name>  (258) 
nan

>  <Pocket>  (258) 
nan

>  <ATP_Site>  (258) 
nan

>  <Peripheral>  (258) 
nan

>  <Num_H_Atoms_ProtBoundConf>  (258) 
nan

>  <Num_Resolved_Atoms>  (258) 
nan

>  <Num_Not_Resolved_Atoms>  (258) 
nan

$$$$
CHEMBL3732491
     RDKit          3D

  0  0  0  0  0  0  0  0  0  0999 V3000
M  V30 BEGIN CTAB
M  V30 COUNTS 55 59 0 0 0
M  V30 BEGIN ATOM
M  V30 1 C 5.472230 -5.798587 1.680171 0
M  V30 2 N 5.114324 -4.940428 0.569634 0
M  V30 3 C 4.340111 -3.831664 0.757009 0
M  V30 4 C 4.139630 -3.160912 -0.461721 0
M  V30 5 C 3.371753 -1.949691 -0.669031 0
M  V30 6 C 4.005506 -0.972682 -1.450818 0
M  V30 7 S 2.747717 0.440938 -1.515237 0
M  V30 8 C 1.550566 -0.400043 -0.525649 0
M  V30 9 C 0.286877 -0.039005 -0.087195 0
M  V30 10 N -0.022020 1.307957 -0.532446 0
M  V30 11 C -0.529687 2.570006 -0.851823 0
M  V30 12 C -0.971216 3.470268 0.249532 0 CFG=1
M  V30 13 N -1.456198 4.735237 -0.330190 0
M  V30 14 C -1.955254 2.916763 1.223570 0
M  V30 15 C -3.248465 2.501994 0.658153 0
M  V30 16 C -3.789831 1.318314 0.241091 0
M  V30 17 C -4.987704 1.021841 -0.297466 0
M  V30 18 C -5.840558 2.122573 -0.461273 0
M  V30 19 C -5.391917 3.373319 -0.069889 0
M  V30 20 C -4.126687 3.578789 0.480374 0
M  V30 21 N -0.437251 -0.910424 0.683396 0
M  V30 22 C 0.150665 -2.084241 0.965027 0
M  V30 23 C -0.631160 -2.989766 1.789650 0
M  V30 24 C -0.032304 -4.196965 2.069504 0
M  V30 25 C -0.713986 -5.099463 2.841560 0
M  V30 26 N -1.914510 -4.783153 3.289657 0
M  V30 27 C -2.498534 -3.591589 3.009969 0
M  V30 28 C -1.881423 -2.612158 2.232500 0
M  V30 29 N 1.361617 -2.354223 0.506099 0
M  V30 30 C 2.133614 -1.570231 -0.246766 0
M  V30 31 C 4.839258 -3.942846 -1.360105 0
M  V30 32 N 5.387068 -4.963015 -0.717669 0
M  V30 33 H 6.490401 -6.207682 1.494990 0
M  V30 34 H 5.447323 -5.244826 2.642321 0
M  V30 35 H 4.782174 -6.657572 1.756884 0
M  V30 36 H 3.924488 -3.497441 1.703682 0
M  V30 37 H 4.931047 -0.879910 -1.944343 0
M  V30 38 H -0.963056 1.245328 -0.079419 0
M  V30 39 H 0.280517 3.151206 -1.457903 0
M  V30 40 H -1.330898 2.524017 -1.627026 0
M  V30 41 H -0.066618 3.773257 0.825802 0
M  V30 42 H -2.182361 4.567243 -1.073529 0
M  V30 43 H -0.684695 5.242961 -0.805753 0
M  V30 44 H -2.136822 3.730300 1.995564 0
M  V30 45 H -1.443639 2.060698 1.743427 0
M  V30 46 H -3.102287 0.475261 0.396084 0
M  V30 47 H -5.240744 0.017791 -0.565308 0
M  V30 48 H -6.817676 1.975190 -0.880372 0
M  V30 49 H -6.110105 4.196936 -0.226426 0
M  V30 50 H -3.962315 4.638715 0.723071 0
M  V30 51 H 0.941267 -4.472040 1.715505 0
M  V30 52 H -0.298559 -6.069509 3.097576 0
M  V30 53 H -3.479574 -3.393850 3.405227 0
M  V30 54 H -2.342957 -1.659511 2.004554 0
M  V30 55 H 4.837937 -3.624410 -2.406977 0
M  V30 END ATOM
M  V30 BEGIN BOND
M  V30 1 1 1 2
M  V30 2 1 2 3
M  V30 3 2 3 4
M  V30 4 1 4 5
M  V30 5 2 5 6
M  V30 6 1 6 7
M  V30 7 1 7 8
M  V30 8 2 8 9
M  V30 9 1 9 10
M  V30 10 1 10 11
M  V30 11 1 11 12
M  V30 12 1 12 13
M  V30 13 1 12 14
M  V30 14 1 14 15
M  V30 15 2 15 16
M  V30 16 1 16 17
M  V30 17 2 17 18
M  V30 18 1 18 19
M  V30 19 2 19 20
M  V30 20 1 9 21
M  V30 21 2 21 22
M  V30 22 1 22 23
M  V30 23 2 23 24
M  V30 24 1 24 25
M  V30 25 2 25 26
M  V30 26 1 26 27
M  V30 27 2 27 28
M  V30 28 1 22 29
M  V30 29 2 29 30
M  V30 30 1 4 31
M  V30 31 2 31 32
M  V30 32 1 32 2
M  V30 33 1 30 5
M  V30 34 1 30 8
M  V30 35 1 20 15
M  V30 36 1 28 23
M  V30 37 1 1 33
M  V30 38 1 1 34
M  V30 39 1 1 35
M  V30 40 1 3 36
M  V30 41 1 6 37
M  V30 42 1 10 38
M  V30 43 1 11 39
M  V30 44 1 11 40
M  V30 45 1 12 41 CFG=1
M  V30 46 1 13 42
M  V30 47 1 13 43
M  V30 48 1 14 44
M  V30 49 1 14 45
M  V30 50 1 16 46
M  V30 51 1 17 47
M  V30 52 1 18 48
M  V30 53 1 19 49
M  V30 54 1 20 50
M  V30 55 1 24 51
M  V30 56 1 25 52
M  V30 57 1 27 53
M  V30 58 1 28 54
M  V30 59 1 31 55
M  V30 END BOND
M  V30 END CTAB
M  END
>  <Dataset>  (259) 
ChEMBL_Kinases

>  <Ligand_Instance>  (259) 
nan

>  <PDB_ID>  (259) 
nan

>  <Standardized_SMILES>  (259) 
Cn1cc(-c2csc3c(NC[C@@H](N)Cc4ccccc4)nc(-c4ccncc4)nc23)cn1

>  <Name>  (259) 
nan

>  <Pocket>  (259) 
nan

>  <ATP_Site>  (259) 
nan

>  <Peripheral>  (259) 
nan

>  <Num_H_Atoms_ProtBoundConf>  (259) 
nan

>  <Num_Resolved_Atoms>  (259) 
nan

>  <Num_Not_Resolved_Atoms>  (259) 
nan

$$$$
CHEMBL3732486
     RDKit          3D

  0  0  0  0  0  0  0  0  0  0999 V3000
M  V30 BEGIN CTAB
M  V30 COUNTS 48 52 0 0 0
M  V30 BEGIN ATOM
M  V30 1 F 3.719625 -1.019082 -0.835885 0
M  V30 2 C 3.170389 -2.139074 -1.382795 0
M  V30 3 C 3.375246 -2.293427 -2.717439 0
M  V30 4 C 2.844648 -3.408509 -3.334783 0
M  V30 5 C 2.136930 -4.306027 -2.571981 0
M  V30 6 C 1.935059 -4.140448 -1.220545 0
M  V30 7 C 2.456529 -3.031340 -0.578300 0
M  V30 8 N 2.353812 -2.688828 0.804018 0
M  V30 9 C 1.756818 -1.502172 1.310700 0
M  V30 10 C 2.646951 -0.757192 2.023452 0
M  V30 11 S 1.574506 0.711742 2.548789 0
M  V30 12 C 0.126454 0.135884 1.761241 0
M  V30 13 C -1.165664 0.655302 1.664415 0
M  V30 14 N -1.505995 1.878716 2.270284 0
M  V30 15 C -1.001421 2.956700 3.044432 0 CFG=2
M  V30 16 C 0.121522 3.742265 2.402075 0
M  V30 17 C 1.103081 4.014479 3.493402 0
M  V30 18 N 0.752419 3.241011 4.641438 0
M  V30 19 C -0.500323 2.584824 4.421294 0
M  V30 20 N -2.092798 -0.041014 0.970320 0
M  V30 21 C -1.718648 -1.199770 0.409066 0
M  V30 22 C -2.749298 -1.922430 -0.332527 0
M  V30 23 C -4.001952 -1.395832 -0.412800 0
M  V30 24 C -4.959229 -2.119891 -1.132487 0
M  V30 25 N -4.665085 -3.301739 -1.732072 0
M  V30 26 C -3.426000 -3.796463 -1.637374 0
M  V30 27 C -2.432127 -3.119784 -0.934039 0
M  V30 28 F -1.215923 -3.683624 -0.886826 0
M  V30 29 N -0.475717 -1.694881 0.504767 0
M  V30 30 C 0.481261 -1.037403 1.185500 0
M  V30 31 H 3.933128 -1.584057 -3.313693 0
M  V30 32 H 2.975203 -3.586009 -4.398181 0
M  V30 33 H 1.685334 -5.209502 -2.974822 0
M  V30 34 H 1.389780 -4.805444 -0.561530 0
M  V30 35 H 2.778177 -3.433179 1.399972 0
M  V30 36 H 3.654433 -0.765983 2.331876 0
M  V30 37 H -2.538329 2.107682 2.095279 0
M  V30 38 H -1.800706 3.726241 3.240260 0
M  V30 39 H -0.228716 4.763454 2.048520 0
M  V30 40 H 0.564746 3.284765 1.523425 0
M  V30 41 H 1.130715 5.091152 3.820772 0
M  V30 42 H 2.150123 3.804573 3.134082 0
M  V30 43 H 1.530365 2.590442 4.882787 0
M  V30 44 H -0.390307 1.517928 4.604499 0
M  V30 45 H -1.229015 2.933402 5.218895 0
M  V30 46 H -4.263399 -0.470681 0.046894 0
M  V30 47 H -5.970600 -1.713071 -1.208018 0
M  V30 48 H -3.271977 -4.740919 -2.141632 0
M  V30 END ATOM
M  V30 BEGIN BOND
M  V30 1 1 1 2
M  V30 2 2 2 3
M  V30 3 1 3 4
M  V30 4 2 4 5
M  V30 5 1 5 6
M  V30 6 2 6 7
M  V30 7 1 7 8
M  V30 8 1 8 9
M  V30 9 2 9 10
M  V30 10 1 10 11
M  V30 11 1 11 12
M  V30 12 2 12 13
M  V30 13 1 13 14
M  V30 14 1 14 15
M  V30 15 1 15 16
M  V30 16 1 16 17
M  V30 17 1 17 18
M  V30 18 1 18 19
M  V30 19 1 13 20
M  V30 20 2 20 21
M  V30 21 1 21 22
M  V30 22 2 22 23
M  V30 23 1 23 24
M  V30 24 2 24 25
M  V30 25 1 25 26
M  V30 26 2 26 27
M  V30 27 1 27 28
M  V30 28 1 21 29
M  V30 29 2 29 30
M  V30 30 1 7 2
M  V30 31 1 30 9
M  V30 32 1 30 12
M  V30 33 1 19 15
M  V30 34 1 27 22
M  V30 35 1 3 31
M  V30 36 1 4 32
M  V30 37 1 5 33
M  V30 38 1 6 34
M  V30 39 1 8 35
M  V30 40 1 10 36
M  V30 41 1 14 37
M  V30 42 1 15 38 CFG=1
M  V30 43 1 16 39
M  V30 44 1 16 40
M  V30 45 1 17 41
M  V30 46 1 17 42
M  V30 47 1 18 43
M  V30 48 1 19 44
M  V30 49 1 19 45
M  V30 50 1 23 46
M  V30 51 1 24 47
M  V30 52 1 26 48
M  V30 END BOND
M  V30 END CTAB
M  END
>  <Dataset>  (260) 
ChEMBL_Kinases

>  <Ligand_Instance>  (260) 
nan

>  <PDB_ID>  (260) 
nan

>  <Standardized_SMILES>  (260) 
Fc1ccccc1Nc1csc2c(N[C@@H]3CCNC3)nc(-c3ccncc3F)nc12

>  <Name>  (260) 
nan

>  <Pocket>  (260) 
nan

>  <ATP_Site>  (260) 
nan

>  <Peripheral>  (260) 
nan

>  <Num_H_Atoms_ProtBoundConf>  (260) 
nan

>  <Num_Resolved_Atoms>  (260) 
nan

>  <Num_Not_Resolved_Atoms>  (260) 
nan

$$$$
CHEMBL3732477
     RDKit          3D

  0  0  0  0  0  0  0  0  0  0999 V3000
M  V30 BEGIN CTAB
M  V30 COUNTS 60 63 0 0 0
M  V30 BEGIN ATOM
M  V30 1 C 4.947573 -3.816788 1.156363 0
M  V30 2 O 5.988916 -2.919328 0.979948 0
M  V30 3 C 5.666648 -1.727710 1.621570 0
M  V30 4 C 5.475023 -2.084664 3.098712 0
M  V30 5 C 6.746479 -0.697417 1.544086 0
M  V30 6 C 4.430719 -1.190160 1.052325 0
M  V30 7 C 3.389908 -0.750111 0.571309 0
M  V30 8 C 2.161649 -0.257997 0.010120 0
M  V30 9 C 2.253983 0.388767 -1.242169 0
M  V30 10 S 0.457873 0.872199 -1.609273 0
M  V30 11 C -0.146953 0.196381 -0.146002 0
M  V30 12 C -1.448594 0.150889 0.334814 0
M  V30 13 N -2.463578 0.740351 -0.463959 0
M  V30 14 C -3.815932 0.683698 0.048150 0
M  V30 15 C -4.832287 1.272158 -0.901460 0 CFG=1
M  V30 16 N -4.586120 2.650983 -1.232540 0
M  V30 17 C -5.091441 0.371637 -2.061214 0
M  V30 18 C -3.945398 0.036508 -2.900889 0
M  V30 19 C -3.561892 0.840385 -3.961205 0
M  V30 20 C -2.476375 0.443485 -4.720777 0
M  V30 21 C -1.782304 -0.699659 -4.460378 0
M  V30 22 C -2.122654 -1.534831 -3.417443 0
M  V30 23 C -3.206162 -1.131034 -2.665575 0
M  V30 24 N -1.728244 -0.438747 1.532589 0
M  V30 25 C -0.636623 -0.954056 2.174459 0
M  V30 26 C -0.886734 -1.603068 3.474443 0
M  V30 27 C 0.157134 -2.152259 4.189784 0
M  V30 28 C -0.167176 -2.742521 5.400475 0
M  V30 29 N -1.415107 -2.804435 5.898009 0
M  V30 30 C -2.418240 -2.249648 5.159306 0
M  V30 31 C -2.178690 -1.635501 3.929705 0
M  V30 32 N 0.593549 -0.901877 1.703039 0
M  V30 33 C 0.905223 -0.329660 0.528540 0
M  V30 34 H 4.764322 -4.030991 2.240518 0
M  V30 35 H 4.021511 -3.461119 0.643712 0
M  V30 36 H 5.199370 -4.809914 0.705822 0
M  V30 37 H 6.073653 -2.957162 3.380070 0
M  V30 38 H 4.388631 -2.292807 3.304367 0
M  V30 39 H 5.711963 -1.181617 3.713387 0
M  V30 40 H 6.810586 -0.158051 2.503425 0
M  V30 41 H 7.736023 -1.142178 1.288540 0
M  V30 42 H 6.458608 0.057345 0.786364 0
M  V30 43 H 3.162176 0.584786 -1.891712 0
M  V30 44 H -2.265274 1.197155 -1.355539 0
M  V30 45 H -4.119624 -0.397390 0.159927 0
M  V30 46 H -3.895895 1.113617 1.070566 0
M  V30 47 H -5.805166 1.273593 -0.288325 0
M  V30 48 H -3.744323 2.709088 -1.881352 0
M  V30 49 H -4.319678 3.174763 -0.372735 0
M  V30 50 H -5.944588 0.774110 -2.689620 0
M  V30 51 H -5.515354 -0.611810 -1.695077 0
M  V30 52 H -4.116954 1.746172 -4.162147 0
M  V30 53 H -2.164808 1.069053 -5.558999 0
M  V30 54 H -0.923058 -1.011164 -5.063105 0
M  V30 55 H -1.620775 -2.457588 -3.148822 0
M  V30 56 H -3.539213 -1.738918 -1.820276 0
M  V30 57 H 1.176150 -2.133377 3.842804 0
M  V30 58 H 0.622709 -3.187534 5.997787 0
M  V30 59 H -3.431499 -2.287393 5.539399 0
M  V30 60 H -3.026991 -1.211603 3.391027 0
M  V30 END ATOM
M  V30 BEGIN BOND
M  V30 1 1 1 2
M  V30 2 1 2 3
M  V30 3 1 3 4
M  V30 4 1 3 5
M  V30 5 1 3 6
M  V30 6 3 6 7
M  V30 7 1 7 8
M  V30 8 2 8 9
M  V30 9 1 9 10
M  V30 10 1 10 11
M  V30 11 2 11 12
M  V30 12 1 12 13
M  V30 13 1 13 14
M  V30 14 1 14 15
M  V30 15 1 15 16
M  V30 16 1 15 17
M  V30 17 1 17 18
M  V30 18 2 18 19
M  V30 19 1 19 20
M  V30 20 2 20 21
M  V30 21 1 21 22
M  V30 22 2 22 23
M  V30 23 1 12 24
M  V30 24 2 24 25
M  V30 25 1 25 26
M  V30 26 2 26 27
M  V30 27 1 27 28
M  V30 28 2 28 29
M  V30 29 1 29 30
M  V30 30 2 30 31
M  V30 31 1 25 32
M  V30 32 2 32 33
M  V30 33 1 33 8
M  V30 34 1 33 11
M  V30 35 1 23 18
M  V30 36 1 31 26
M  V30 37 1 1 34
M  V30 38 1 1 35
M  V30 39 1 1 36
M  V30 40 1 4 37
M  V30 41 1 4 38
M  V30 42 1 4 39
M  V30 43 1 5 40
M  V30 44 1 5 41
M  V30 45 1 5 42
M  V30 46 1 9 43
M  V30 47 1 13 44
M  V30 48 1 14 45
M  V30 49 1 14 46
M  V30 50 1 15 47 CFG=1
M  V30 51 1 16 48
M  V30 52 1 16 49
M  V30 53 1 17 50
M  V30 54 1 17 51
M  V30 55 1 19 52
M  V30 56 1 20 53
M  V30 57 1 21 54
M  V30 58 1 22 55
M  V30 59 1 23 56
M  V30 60 1 27 57
M  V30 61 1 28 58
M  V30 62 1 30 59
M  V30 63 1 31 60
M  V30 END BOND
M  V30 END CTAB
M  END
>  <Dataset>  (261) 
ChEMBL_Kinases

>  <Ligand_Instance>  (261) 
nan

>  <PDB_ID>  (261) 
nan

>  <Standardized_SMILES>  (261) 
COC(C)(C)C#Cc1csc2c(NC[C@@H](N)Cc3ccccc3)nc(-c3ccncc3)nc12

>  <Name>  (261) 
nan

>  <Pocket>  (261) 
nan

>  <ATP_Site>  (261) 
nan

>  <Peripheral>  (261) 
nan

>  <Num_H_Atoms_ProtBoundConf>  (261) 
nan

>  <Num_Resolved_Atoms>  (261) 
nan

>  <Num_Not_Resolved_Atoms>  (261) 
nan

$$$$
CHEMBL3732476
     RDKit          3D

  0  0  0  0  0  0  0  0  0  0999 V3000
M  V30 BEGIN CTAB
M  V30 COUNTS 59 62 0 0 0
M  V30 BEGIN ATOM
M  V30 1 C 0.007374 4.253360 3.761924 0
M  V30 2 C 0.257899 2.755383 3.527771 0 CFG=2
M  V30 3 N 1.611483 2.413455 3.770313 0
M  V30 4 C -0.300251 2.451034 2.179431 0
M  V30 5 N -0.182072 1.092060 1.736810 0
M  V30 6 C 1.023302 0.422774 1.401303 0
M  V30 7 N 2.092787 1.224043 1.455656 0
M  V30 8 C 3.340910 0.932291 1.158269 0
M  V30 9 C 4.469669 1.836378 1.233321 0
M  V30 10 C 5.734480 1.409235 0.893476 0
M  V30 11 C 6.848699 2.219578 0.943627 0
M  V30 12 N 6.659770 3.481984 1.347340 0
M  V30 13 C 5.447743 3.946707 1.689284 0
M  V30 14 C 4.341393 3.147183 1.641091 0
M  V30 15 N 3.524376 -0.332127 0.755014 0
M  V30 16 C 2.477578 -1.132204 0.697843 0
M  V30 17 S 2.487581 -2.838324 0.184445 0
M  V30 18 C 0.760790 -3.115105 0.395363 0
M  V30 19 C 0.217313 -1.858362 0.866167 0
M  V30 20 C 1.165487 -0.880791 0.995430 0
M  V30 21 C -1.234733 -1.838188 1.159686 0
M  V30 22 C -1.790717 -3.239726 1.039045 0
M  V30 23 N -1.408234 -3.960809 -0.136458 0
M  V30 24 C -2.042168 -4.321433 -1.356550 0
M  V30 25 O -1.460261 -4.973806 -2.239192 0
M  V30 26 O -3.353839 -3.936677 -1.578115 0
M  V30 27 C -4.051796 -4.259066 -2.770064 0
M  V30 28 C -3.316030 -3.652612 -3.972554 0
M  V30 29 C -5.408157 -3.603775 -2.717587 0
M  V30 30 C -4.123313 -5.736802 -2.985519 0
M  V30 31 C -0.031625 -4.343724 0.140234 0
M  V30 32 H 0.156780 4.784059 2.816183 0
M  V30 33 H -1.071828 4.367297 4.038263 0
M  V30 34 H 0.629024 4.640341 4.599128 0
M  V30 35 H -0.349617 2.251465 4.336019 0
M  V30 36 H 1.694643 1.501135 4.237843 0
M  V30 37 H 2.095956 3.174798 4.280307 0
M  V30 38 H -1.370696 2.740330 2.207159 0
M  V30 39 H 0.166173 3.136166 1.417480 0
M  V30 40 H -1.112941 0.640198 1.675187 0
M  V30 41 H 5.905663 0.387634 0.563714 0
M  V30 42 H 7.818183 1.830108 0.665001 0
M  V30 43 H 5.415429 4.976285 1.997926 0
M  V30 44 H 3.382389 3.547420 1.921349 0
M  V30 45 H -1.423060 -1.492288 2.215987 0
M  V30 46 H -1.768361 -1.229361 0.408061 0
M  V30 47 H -1.586851 -3.783528 1.991490 0
M  V30 48 H -2.912405 -3.084701 1.076715 0
M  V30 49 H -2.692593 -4.423806 -4.485421 0
M  V30 50 H -4.042188 -3.230703 -4.690685 0
M  V30 51 H -2.660582 -2.844926 -3.567839 0
M  V30 52 H -6.111708 -4.049963 -3.471636 0
M  V30 53 H -5.870008 -3.700028 -1.713814 0
M  V30 54 H -5.354739 -2.526157 -2.983435 0
M  V30 55 H -3.860597 -6.014045 -4.021122 0
M  V30 56 H -5.162994 -6.116213 -2.782695 0
M  V30 57 H -3.472648 -6.242838 -2.243242 0
M  V30 58 H 0.034847 -4.973299 1.046375 0
M  V30 59 H 0.428161 -4.842249 -0.741555 0
M  V30 END ATOM
M  V30 BEGIN BOND
M  V30 1 1 1 2
M  V30 2 1 2 3
M  V30 3 1 2 4
M  V30 4 1 4 5
M  V30 5 1 5 6
M  V30 6 2 6 7
M  V30 7 1 7 8
M  V30 8 1 8 9
M  V30 9 2 9 10
M  V30 10 1 10 11
M  V30 11 2 11 12
M  V30 12 1 12 13
M  V30 13 2 13 14
M  V30 14 2 8 15
M  V30 15 1 15 16
M  V30 16 1 16 17
M  V30 17 1 17 18
M  V30 18 2 18 19
M  V30 19 1 19 20
M  V30 20 1 19 21
M  V30 21 1 21 22
M  V30 22 1 22 23
M  V30 23 1 23 24
M  V30 24 2 24 25
M  V30 25 1 24 26
M  V30 26 1 26 27
M  V30 27 1 27 28
M  V30 28 1 27 29
M  V30 29 1 27 30
M  V30 30 1 23 31
M  V30 31 1 20 6
M  V30 32 1 14 9
M  V30 33 2 20 16
M  V30 34 1 31 18
M  V30 35 1 1 32
M  V30 36 1 1 33
M  V30 37 1 1 34
M  V30 38 1 2 35 CFG=1
M  V30 39 1 3 36
M  V30 40 1 3 37
M  V30 41 1 4 38
M  V30 42 1 4 39
M  V30 43 1 5 40
M  V30 44 1 10 41
M  V30 45 1 11 42
M  V30 46 1 13 43
M  V30 47 1 14 44
M  V30 48 1 21 45
M  V30 49 1 21 46
M  V30 50 1 22 47
M  V30 51 1 22 48
M  V30 52 1 28 49
M  V30 53 1 28 50
M  V30 54 1 28 51
M  V30 55 1 29 52
M  V30 56 1 29 53
M  V30 57 1 29 54
M  V30 58 1 30 55
M  V30 59 1 30 56
M  V30 60 1 30 57
M  V30 61 1 31 58
M  V30 62 1 31 59
M  V30 END BOND
M  V30 END CTAB
M  END
>  <Dataset>  (262) 
ChEMBL_Kinases

>  <Ligand_Instance>  (262) 
nan

>  <PDB_ID>  (262) 
nan

>  <Standardized_SMILES>  (262) 
C[C@H](N)CNc1nc(-c2ccncc2)nc2sc3c(c12)CCN(C(=O)OC(C)(C)C)C3

>  <Name>  (262) 
nan

>  <Pocket>  (262) 
nan

>  <ATP_Site>  (262) 
nan

>  <Peripheral>  (262) 
nan

>  <Num_H_Atoms_ProtBoundConf>  (262) 
nan

>  <Num_Resolved_Atoms>  (262) 
nan

>  <Num_Not_Resolved_Atoms>  (262) 
nan

$$$$
CHEMBL3732468
     RDKit          3D

  0  0  0  0  0  0  0  0  0  0999 V3000
M  V30 BEGIN CTAB
M  V30 COUNTS 56 58 0 0 0
M  V30 BEGIN ATOM
M  V30 1 O -0.034923 -4.320847 2.364138 0
M  V30 2 C 0.335229 -5.012386 3.372421 0
M  V30 3 C -0.210733 -3.998291 4.371502 0
M  V30 4 N -0.732684 -2.926752 3.547067 0
M  V30 5 C 0.176015 -2.083373 2.807430 0
M  V30 6 C 1.547015 -2.197972 2.867371 0
M  V30 7 C 2.397234 -1.391696 2.141285 0
M  V30 8 C 1.807869 -0.444857 1.335275 0
M  V30 9 C 0.459616 -0.258396 1.213139 0
M  V30 10 C -0.179202 0.735607 0.361142 0
M  V30 11 O -1.449548 0.842155 0.368132 0
M  V30 12 N 0.514118 1.614713 -0.495263 0
M  V30 13 C -0.053535 2.626476 -1.363444 0
M  V30 14 C -0.802613 3.622668 -0.526301 0
M  V30 15 N -1.399080 4.675592 -1.304562 0
M  V30 16 C -2.083740 5.612433 -0.449250 0
M  V30 17 C -3.456322 5.168856 -0.043983 0
M  V30 18 O -3.700116 3.833251 -0.363932 0
M  V30 19 C -3.620842 3.735218 -1.753373 0
M  V30 20 C -2.323771 4.219219 -2.313381 0
M  V30 21 C -0.333149 -1.104941 1.972235 0
M  V30 22 N 1.019976 -6.284894 3.265630 0
M  V30 23 N 1.004593 -6.244035 1.869050 0
M  V30 24 C 2.050433 -5.908864 1.189542 0
M  V30 25 C 2.031403 -5.866558 -0.261762 0
M  V30 26 C 3.160200 -5.505350 -0.991923 0
M  V30 27 Cl 4.651603 -5.101657 -0.166212 0
M  V30 28 C 3.004307 -5.493346 -2.368077 0
M  V30 29 N 1.868618 -5.800176 -2.983965 0
M  V30 30 C 0.784020 -6.148152 -2.278700 0
M  V30 31 C 0.838286 -6.189153 -0.917674 0
M  V30 32 Cl -0.623470 -6.653050 -0.075335 0
M  V30 33 H -0.980364 -4.439769 4.998636 0
M  V30 34 H 0.624720 -3.621091 5.006318 0
M  V30 35 H -1.756078 -2.748195 3.473618 0
M  V30 36 H 1.998945 -2.942502 3.509376 0
M  V30 37 H 3.473843 -1.494504 2.197766 0
M  V30 38 H 2.472911 0.178390 0.773848 0
M  V30 39 H 1.562613 1.480602 -0.463580 0
M  V30 40 H 0.785529 3.127457 -1.903110 0
M  V30 41 H -0.697755 2.114298 -2.112118 0
M  V30 42 H -1.501484 3.150508 0.165039 0
M  V30 43 H -0.035264 4.125313 0.123091 0
M  V30 44 H -1.500057 5.877170 0.461166 0
M  V30 45 H -2.193623 6.564875 -1.040035 0
M  V30 46 H -4.241632 5.750422 -0.568480 0
M  V30 47 H -3.626904 5.290504 1.051597 0
M  V30 48 H -4.501123 4.303698 -2.158490 0
M  V30 49 H -3.834547 2.678908 -1.995132 0
M  V30 50 H -1.908766 3.482492 -3.011402 0
M  V30 51 H -2.551741 5.123868 -2.944299 0
M  V30 52 H -1.402869 -0.999305 1.911807 0
M  V30 53 H 1.033083 -6.318331 4.306692 0
M  V30 54 H 2.913212 -5.668376 1.771267 0
M  V30 55 H 3.917518 -5.201410 -2.905795 0
M  V30 56 H -0.073468 -6.372328 -2.913156 0
M  V30 END ATOM
M  V30 BEGIN BOND
M  V30 1 2 1 2
M  V30 2 1 2 3
M  V30 3 1 3 4
M  V30 4 1 4 5
M  V30 5 2 5 6
M  V30 6 1 6 7
M  V30 7 2 7 8
M  V30 8 1 8 9
M  V30 9 1 9 10
M  V30 10 2 10 11
M  V30 11 1 10 12
M  V30 12 1 12 13
M  V30 13 1 13 14
M  V30 14 1 14 15
M  V30 15 1 15 16
M  V30 16 1 16 17
M  V30 17 1 17 18
M  V30 18 1 18 19
M  V30 19 1 19 20
M  V30 20 2 9 21
M  V30 21 1 2 22
M  V30 22 1 22 23
M  V30 23 2 23 24
M  V30 24 1 24 25
M  V30 25 2 25 26
M  V30 26 1 26 27
M  V30 27 1 26 28
M  V30 28 2 28 29
M  V30 29 1 29 30
M  V30 30 2 30 31
M  V30 31 1 31 32
M  V30 32 1 21 5
M  V30 33 1 31 25
M  V30 34 1 20 15
M  V30 35 1 3 33
M  V30 36 1 3 34
M  V30 37 1 4 35
M  V30 38 1 6 36
M  V30 39 1 7 37
M  V30 40 1 8 38
M  V30 41 1 12 39
M  V30 42 1 13 40
M  V30 43 1 13 41
M  V30 44 1 14 42
M  V30 45 1 14 43
M  V30 46 1 16 44
M  V30 47 1 16 45
M  V30 48 1 17 46
M  V30 49 1 17 47
M  V30 50 1 19 48
M  V30 51 1 19 49
M  V30 52 1 20 50
M  V30 53 1 20 51
M  V30 54 1 21 52
M  V30 55 1 22 53
M  V30 56 1 24 54
M  V30 57 1 28 55
M  V30 58 1 30 56
M  V30 END BOND
M  V30 END CTAB
M  END
>  <Dataset>  (263) 
ChEMBL_Kinases

>  <Ligand_Instance>  (263) 
nan

>  <PDB_ID>  (263) 
nan

>  <Standardized_SMILES>  (263) 
O=C(CNc1cccc(C(=O)NCCN2CCOCC2)c1)N/N=C/c1c(Cl)cncc1Cl

>  <Name>  (263) 
nan

>  <Pocket>  (263) 
nan

>  <ATP_Site>  (263) 
nan

>  <Peripheral>  (263) 
nan

>  <Num_H_Atoms_ProtBoundConf>  (263) 
nan

>  <Num_Resolved_Atoms>  (263) 
nan

>  <Num_Not_Resolved_Atoms>  (263) 
nan

$$$$
CHEMBL3732456
     RDKit          3D

  0  0  0  0  0  0  0  0  0  0999 V3000
M  V30 BEGIN CTAB
M  V30 COUNTS 69 73 0 0 0
M  V30 BEGIN ATOM
M  V30 1 C 5.683984 1.342397 1.822318 0
M  V30 2 C 4.576535 2.128049 2.452063 0
M  V30 3 C 3.627207 1.251955 3.255762 0
M  V30 4 C 5.180487 3.144325 3.393624 0
M  V30 5 O 3.823856 2.883553 1.518884 0
M  V30 6 C 3.133317 2.344809 0.473197 0
M  V30 7 O 3.584703 1.268919 0.940116 0
M  V30 8 N 2.499015 1.577843 -0.528929 0
M  V30 9 C 2.479069 0.174980 -0.743927 0
M  V30 10 C 1.117947 -0.402889 -0.448056 0
M  V30 11 C 0.067169 0.265793 -1.205111 0
M  V30 12 C 0.476035 1.530398 -1.704387 0
M  V30 13 S -0.856579 2.184504 -2.616794 0
M  V30 14 C -1.970614 0.700031 -2.297387 0
M  V30 15 N -3.221957 0.530435 -2.733938 0
M  V30 16 C -3.863883 -0.598017 -2.399490 0
M  V30 17 C -5.219177 -0.791835 -2.867709 0
M  V30 18 C -5.917828 -1.929188 -2.553611 0
M  V30 19 C -7.213186 -2.026998 -3.046679 0
M  V30 20 N -7.777902 -1.056923 -3.803431 0
M  V30 21 C -7.080090 0.048425 -4.100808 0
M  V30 22 C -5.792241 0.201436 -3.640283 0
M  V30 23 N -3.147045 -1.408844 -1.661372 0
M  V30 24 C -1.898156 -1.263667 -1.212321 0
M  V30 25 N -1.380945 -2.298140 -0.387431 0
M  V30 26 C -2.185214 -3.470739 -0.112871 0
M  V30 27 C -1.574503 -4.501646 0.762648 0 CFG=1
M  V30 28 N -0.340441 -5.069291 0.265432 0
M  V30 29 C -1.592238 -4.186517 2.217521 0
M  V30 30 C -0.910907 -2.983538 2.660574 0
M  V30 31 C -1.648745 -1.791035 2.709412 0
M  V30 32 C -1.130126 -0.571057 3.113009 0
M  V30 33 C 0.195769 -0.527378 3.490681 0
M  V30 34 C 0.937791 -1.661100 3.455290 0
M  V30 35 C 0.413833 -2.863962 3.053801 0
M  V30 36 C -1.185448 -0.136283 -1.519090 0
M  V30 37 C 1.733930 2.261522 -1.547601 0
M  V30 38 H 6.605367 1.465600 2.452900 0
M  V30 39 H 5.886724 1.618594 0.776103 0
M  V30 40 H 5.433339 0.252797 1.919209 0
M  V30 41 H 3.859649 0.198702 2.998489 0
M  V30 42 H 2.568345 1.432139 3.033811 0
M  V30 43 H 3.734336 1.451731 4.351755 0
M  V30 44 H 5.385436 4.108107 2.868203 0
M  V30 45 H 4.489137 3.283749 4.248484 0
M  V30 46 H 6.121498 2.702538 3.797480 0
M  V30 47 H 2.698065 -0.026582 -1.822384 0
M  V30 48 H 3.279158 -0.339549 -0.188636 0
M  V30 49 H 0.937961 -0.620842 0.594334 0
M  V30 50 H 1.203681 -1.431412 -0.944383 0
M  V30 51 H -5.477447 -2.700551 -1.955824 0
M  V30 52 H -7.774652 -2.920404 -2.805987 0
M  V30 53 H -7.597020 0.778133 -4.708779 0
M  V30 54 H -5.297501 1.118849 -3.923222 0
M  V30 55 H -0.515307 -2.440985 0.114891 0
M  V30 56 H -2.501828 -3.979493 -1.068737 0
M  V30 57 H -3.164937 -3.193369 0.356639 0
M  V30 58 H -2.292333 -5.382477 0.677310 0
M  V30 59 H 0.007103 -5.723451 1.001974 0
M  V30 60 H -0.543861 -5.671227 -0.572986 0
M  V30 61 H -1.266374 -5.112837 2.768855 0
M  V30 62 H -2.683579 -4.108588 2.498155 0
M  V30 63 H -2.707967 -1.818913 2.410099 0
M  V30 64 H -1.793630 0.288974 3.111086 0
M  V30 65 H 0.505770 0.473587 3.789843 0
M  V30 66 H 1.975546 -1.574938 3.761658 0
M  V30 67 H 0.988829 -3.770840 3.020149 0
M  V30 68 H 1.556652 3.304213 -1.242670 0
M  V30 69 H 2.365256 2.232640 -2.466599 0
M  V30 END ATOM
M  V30 BEGIN BOND
M  V30 1 1 1 2
M  V30 2 1 2 3
M  V30 3 1 2 4
M  V30 4 1 2 5
M  V30 5 1 5 6
M  V30 6 2 6 7
M  V30 7 1 6 8
M  V30 8 1 8 9
M  V30 9 1 9 10
M  V30 10 1 10 11
M  V30 11 2 11 12
M  V30 12 1 12 13
M  V30 13 1 13 14
M  V30 14 2 14 15
M  V30 15 1 15 16
M  V30 16 1 16 17
M  V30 17 2 17 18
M  V30 18 1 18 19
M  V30 19 2 19 20
M  V30 20 1 20 21
M  V30 21 2 21 22
M  V30 22 2 16 23
M  V30 23 1 23 24
M  V30 24 1 24 25
M  V30 25 1 25 26
M  V30 26 1 26 27
M  V30 27 1 27 28
M  V30 28 1 27 29
M  V30 29 1 29 30
M  V30 30 2 30 31
M  V30 31 1 31 32
M  V30 32 2 32 33
M  V30 33 1 33 34
M  V30 34 2 34 35
M  V30 35 2 24 36
M  V30 36 1 12 37
M  V30 37 1 37 8
M  V30 38 1 36 11
M  V30 39 1 36 14
M  V30 40 1 22 17
M  V30 41 1 35 30
M  V30 42 1 1 38
M  V30 43 1 1 39
M  V30 44 1 1 40
M  V30 45 1 3 41
M  V30 46 1 3 42
M  V30 47 1 3 43
M  V30 48 1 4 44
M  V30 49 1 4 45
M  V30 50 1 4 46
M  V30 51 1 9 47
M  V30 52 1 9 48
M  V30 53 1 10 49
M  V30 54 1 10 50
M  V30 55 1 18 51
M  V30 56 1 19 52
M  V30 57 1 21 53
M  V30 58 1 22 54
M  V30 59 1 25 55
M  V30 60 1 26 56
M  V30 61 1 26 57
M  V30 62 1 27 58 CFG=1
M  V30 63 1 28 59
M  V30 64 1 28 60
M  V30 65 1 29 61
M  V30 66 1 29 62
M  V30 67 1 31 63
M  V30 68 1 32 64
M  V30 69 1 33 65
M  V30 70 1 34 66
M  V30 71 1 35 67
M  V30 72 1 37 68
M  V30 73 1 37 69
M  V30 END BOND
M  V30 END CTAB
M  END
>  <Dataset>  (264) 
ChEMBL_Kinases

>  <Ligand_Instance>  (264) 
nan

>  <PDB_ID>  (264) 
nan

>  <Standardized_SMILES>  (264) 
CC(C)(C)OC(=O)N1CCc2c(sc3nc(-c4ccncc4)nc(NC[C@@H](N)Cc4ccccc4)c23)C1

>  <Name>  (264) 
nan

>  <Pocket>  (264) 
nan

>  <ATP_Site>  (264) 
nan

>  <Peripheral>  (264) 
nan

>  <Num_H_Atoms_ProtBoundConf>  (264) 
nan

>  <Num_Resolved_Atoms>  (264) 
nan

>  <Num_Not_Resolved_Atoms>  (264) 
nan

$$$$
CHEMBL3731835
     RDKit          3D

  0  0  0  0  0  0  0  0  0  0999 V3000
M  V30 BEGIN CTAB
M  V30 COUNTS 47 49 0 0 0
M  V30 BEGIN ATOM
M  V30 1 C -5.336783 -4.220143 2.976047 0
M  V30 2 C -4.684003 -3.688326 1.733345 0
M  V30 3 C -3.819091 -4.482033 0.998965 0
M  V30 4 C -3.255388 -3.917734 -0.137730 0
M  V30 5 C -3.535961 -2.625352 -0.529255 0
M  V30 6 O -2.902409 -2.185990 -1.688273 0
M  V30 7 C -1.648126 -1.553962 -1.635641 0
M  V30 8 C -0.432146 -2.241072 -1.711479 0
M  V30 9 C 0.756360 -1.544461 -1.651976 0
M  V30 10 C 0.738620 -0.158141 -1.516373 0
M  V30 11 C -0.411400 0.563262 -1.437465 0
M  V30 12 N -0.446103 1.957062 -1.296522 0
M  V30 13 C 0.710969 2.785329 -1.205893 0
M  V30 14 C 1.544776 2.445809 0.002819 0
M  V30 15 O 1.393143 1.571152 0.924598 0
M  V30 16 N 2.753915 3.196498 0.241158 0
M  V30 17 N 3.327777 2.670638 1.430632 0
M  V30 18 C 4.158807 1.697092 1.444112 0
M  V30 19 C 4.673324 1.254104 2.739170 0
M  V30 20 C 4.222068 1.919211 3.861351 0
M  V30 21 C 4.743151 1.460695 5.074112 0
M  V30 22 N 5.621721 0.450961 5.200742 0
M  V30 23 C 6.037946 -0.172863 4.082966 0
M  V30 24 C 5.585524 0.200653 2.831090 0
M  V30 25 C -1.571332 -0.183100 -1.502175 0
M  V30 26 C -4.402439 -1.856427 0.222350 0
M  V30 27 C -4.987650 -2.392954 1.372377 0
M  V30 28 H -5.446839 -5.322736 2.813958 0
M  V30 29 H -6.307906 -3.718149 3.157754 0
M  V30 30 H -4.701691 -4.016478 3.867255 0
M  V30 31 H -3.649087 -5.482445 1.368440 0
M  V30 32 H -2.587071 -4.580697 -0.674701 0
M  V30 33 H -0.521613 -3.308674 -1.815195 0
M  V30 34 H 1.648253 -2.157015 -1.718062 0
M  V30 35 H 1.700680 0.304334 -1.480648 0
M  V30 36 H -1.393261 2.436272 -1.253778 0
M  V30 37 H 1.363996 2.730970 -2.119083 0
M  V30 38 H 0.452403 3.858134 -1.105890 0
M  V30 39 H 2.967232 3.952129 -0.475708 0
M  V30 40 H 4.451796 1.237586 0.510421 0
M  V30 41 H 3.518981 2.734866 3.821146 0
M  V30 42 H 4.364671 2.010767 5.950021 0
M  V30 43 H 6.756264 -1.006188 4.122888 0
M  V30 44 H 5.929157 -0.309678 1.948178 0
M  V30 45 H -2.523278 0.340631 -1.444194 0
M  V30 46 H -4.609335 -0.850019 -0.098544 0
M  V30 47 H -5.658535 -1.747788 1.924287 0
M  V30 END ATOM
M  V30 BEGIN BOND
M  V30 1 1 1 2
M  V30 2 2 2 3
M  V30 3 1 3 4
M  V30 4 2 4 5
M  V30 5 1 5 6
M  V30 6 1 6 7
M  V30 7 2 7 8
M  V30 8 1 8 9
M  V30 9 2 9 10
M  V30 10 1 10 11
M  V30 11 1 11 12
M  V30 12 1 12 13
M  V30 13 1 13 14
M  V30 14 2 14 15
M  V30 15 1 14 16
M  V30 16 1 16 17
M  V30 17 2 17 18
M  V30 18 1 18 19
M  V30 19 2 19 20
M  V30 20 1 20 21
M  V30 21 2 21 22
M  V30 22 1 22 23
M  V30 23 2 23 24
M  V30 24 2 11 25
M  V30 25 1 5 26
M  V30 26 2 26 27
M  V30 27 1 27 2
M  V30 28 1 25 7
M  V30 29 1 24 19
M  V30 30 1 1 28
M  V30 31 1 1 29
M  V30 32 1 1 30
M  V30 33 1 3 31
M  V30 34 1 4 32
M  V30 35 1 8 33
M  V30 36 1 9 34
M  V30 37 1 10 35
M  V30 38 1 12 36
M  V30 39 1 13 37
M  V30 40 1 13 38
M  V30 41 1 16 39
M  V30 42 1 18 40
M  V30 43 1 20 41
M  V30 44 1 21 42
M  V30 45 1 23 43
M  V30 46 1 24 44
M  V30 47 1 25 45
M  V30 48 1 26 46
M  V30 49 1 27 47
M  V30 END BOND
M  V30 END CTAB
M  END
>  <Dataset>  (265) 
ChEMBL_Kinases

>  <Ligand_Instance>  (265) 
nan

>  <PDB_ID>  (265) 
nan

>  <Standardized_SMILES>  (265) 
Cc1ccc(Oc2cccc(NCC(=O)N/N=C/c3ccncc3)c2)cc1

>  <Name>  (265) 
nan

>  <Pocket>  (265) 
nan

>  <ATP_Site>  (265) 
nan

>  <Peripheral>  (265) 
nan

>  <Num_H_Atoms_ProtBoundConf>  (265) 
nan

>  <Num_Resolved_Atoms>  (265) 
nan

>  <Num_Not_Resolved_Atoms>  (265) 
nan

$$$$
CHEMBL3732441
     RDKit          3D

  0  0  0  0  0  0  0  0  0  0999 V3000
M  V30 BEGIN CTAB
M  V30 COUNTS 54 58 0 0 0
M  V30 BEGIN ATOM
M  V30 1 C 0.189735 0.220952 4.195515 0
M  V30 2 N -0.361019 -1.005613 3.648937 0
M  V30 3 C 0.376788 -1.590179 2.689940 0
M  V30 4 N 1.607664 -1.147257 2.128663 0
M  V30 5 C 2.971970 -0.889648 2.524393 0
M  V30 6 C 3.492849 0.443194 2.097558 0
M  V30 7 O 3.190218 0.828838 0.805395 0
M  V30 8 C 1.855495 0.621688 0.581844 0
M  V30 9 C 1.357395 1.022417 -0.748448 0
M  V30 10 C 1.986853 0.820949 -1.959855 0
M  V30 11 C 1.422216 1.227420 -3.163491 0
M  V30 12 C 0.190186 1.855297 -3.166125 0
M  V30 13 C -0.514528 2.099365 -1.994078 0
M  V30 14 C 0.116002 1.665742 -0.851785 0
M  V30 15 C -1.837546 2.768396 -1.898274 0
M  V30 16 C -2.588551 2.441033 -3.182423 0
M  V30 17 C -1.735359 2.923415 -4.324631 0
M  V30 18 O -1.978619 3.781995 -5.213679 0
M  V30 19 N -0.443597 2.284219 -4.382657 0
M  V30 20 C 1.576059 -0.851738 0.730318 0
M  V30 21 N -0.051197 -2.726597 2.133639 0
M  V30 22 C -1.186679 -3.364680 2.449220 0
M  V30 23 C -1.614601 -4.603909 1.810522 0
M  V30 24 C -2.774891 -5.272618 2.127584 0
M  V30 25 C -3.067713 -6.455288 1.437359 0
M  V30 26 N -2.228979 -6.933461 0.476648 0
M  V30 27 C -1.104173 -6.288020 0.166954 0
M  V30 28 C -0.798295 -5.128811 0.830780 0
M  V30 29 F 0.360915 -4.486142 0.492552 0
M  V30 30 C -1.910735 -2.728701 3.437091 0
M  V30 31 C -1.523336 -1.555685 4.049956 0
M  V30 32 O -2.161481 -0.968869 4.940955 0
M  V30 33 H 0.064133 1.004038 3.400145 0
M  V30 34 H 1.212209 0.141881 4.561963 0
M  V30 35 H -0.479630 0.553525 5.031636 0
M  V30 36 H 3.613438 -1.708144 2.091654 0
M  V30 37 H 3.126218 -0.964057 3.619694 0
M  V30 38 H 4.613303 0.372031 2.126283 0
M  V30 39 H 3.243163 1.261753 2.794202 0
M  V30 40 H 1.303885 1.220072 1.340464 0
M  V30 41 H 2.960308 0.317824 -1.913763 0
M  V30 42 H 1.944283 1.055059 -4.099791 0
M  V30 43 H -0.407155 1.838921 0.087190 0
M  V30 44 H -2.385995 2.367336 -1.017391 0
M  V30 45 H -1.724069 3.867618 -1.855370 0
M  V30 46 H -3.596285 2.887946 -3.213492 0
M  V30 47 H -2.671708 1.336008 -3.226446 0
M  V30 48 H 0.066219 2.116948 -5.301904 0
M  V30 49 H 2.340245 -1.394130 0.130993 0
M  V30 50 H 0.575862 -1.063137 0.253325 0
M  V30 51 H -3.422144 -4.891523 2.879265 0
M  V30 52 H -3.973115 -6.988833 1.674571 0
M  V30 53 H -0.468165 -6.704506 -0.602494 0
M  V30 54 H -2.857088 -3.157783 3.777587 0
M  V30 END ATOM
M  V30 BEGIN BOND
M  V30 1 1 1 2
M  V30 2 1 2 3
M  V30 3 1 3 4
M  V30 4 1 4 5
M  V30 5 1 5 6
M  V30 6 1 6 7
M  V30 7 1 7 8
M  V30 8 1 8 9
M  V30 9 2 9 10
M  V30 10 1 10 11
M  V30 11 2 11 12
M  V30 12 1 12 13
M  V30 13 2 13 14
M  V30 14 1 13 15
M  V30 15 1 15 16
M  V30 16 1 16 17
M  V30 17 2 17 18
M  V30 18 1 17 19
M  V30 19 1 8 20
M  V30 20 2 3 21
M  V30 21 1 21 22
M  V30 22 1 22 23
M  V30 23 2 23 24
M  V30 24 1 24 25
M  V30 25 2 25 26
M  V30 26 1 26 27
M  V30 27 2 27 28
M  V30 28 1 28 29
M  V30 29 2 22 30
M  V30 30 1 30 31
M  V30 31 2 31 32
M  V30 32 1 31 2
M  V30 33 1 20 4
M  V30 34 1 28 23
M  V30 35 1 14 9
M  V30 36 1 19 12
M  V30 37 1 1 33
M  V30 38 1 1 34
M  V30 39 1 1 35
M  V30 40 1 5 36
M  V30 41 1 5 37
M  V30 42 1 6 38
M  V30 43 1 6 39
M  V30 44 1 8 40
M  V30 45 1 10 41
M  V30 46 1 11 42
M  V30 47 1 14 43
M  V30 48 1 15 44
M  V30 49 1 15 45
M  V30 50 1 16 46
M  V30 51 1 16 47
M  V30 52 1 19 48
M  V30 53 1 20 49
M  V30 54 1 20 50
M  V30 55 1 24 51
M  V30 56 1 25 52
M  V30 57 1 27 53
M  V30 58 1 30 54
M  V30 END BOND
M  V30 END CTAB
M  END
>  <Dataset>  (266) 
ChEMBL_Kinases

>  <Ligand_Instance>  (266) 
nan

>  <PDB_ID>  (266) 
nan

>  <Standardized_SMILES>  (266) 
Cn1c(N2CCOC(c3ccc4c(c3)CCC(=O)N4)C2)nc(-c2ccncc2F)cc1=O

>  <Name>  (266) 
nan

>  <Pocket>  (266) 
nan

>  <ATP_Site>  (266) 
nan

>  <Peripheral>  (266) 
nan

>  <Num_H_Atoms_ProtBoundConf>  (266) 
nan

>  <Num_Resolved_Atoms>  (266) 
nan

>  <Num_Not_Resolved_Atoms>  (266) 
nan

$$$$
CHEMBL3732375
     RDKit          3D

  0  0  0  0  0  0  0  0  0  0999 V3000
M  V30 BEGIN CTAB
M  V30 COUNTS 48 51 0 0 0
M  V30 BEGIN ATOM
M  V30 1 C 3.811584 -4.215117 1.710820 0
M  V30 2 C 2.566533 -3.975747 2.538383 0 CFG=2
M  V30 3 O 2.085815 -5.112800 3.131562 0
M  V30 4 C 1.568693 -3.283874 1.653936 0
M  V30 5 N 1.109747 -4.123297 0.564069 0
M  V30 6 C 0.166160 -3.606158 -0.369327 0
M  V30 7 C -0.257792 -2.305082 -0.169773 0
M  V30 8 C -1.169520 -1.806041 -1.074426 0
M  V30 9 C -1.611546 -0.431906 -0.860336 0
M  V30 10 N -1.145352 0.311213 0.191302 0
M  V30 11 C -1.566913 1.573104 0.365368 0
M  V30 12 N -1.154105 2.428052 1.412920 0
M  V30 13 C -0.192404 1.737736 2.286649 0 CFG=2
M  V30 14 C 0.190183 2.676340 3.384467 0
M  V30 15 C 1.597997 3.080497 3.111578 0
M  V30 16 N 2.085193 2.377751 1.966059 0
M  V30 17 C 1.077953 1.430877 1.575164 0
M  V30 18 C -2.475019 2.060467 -0.557841 0
M  V30 19 S -3.300064 3.671300 -0.716358 0
M  V30 20 C -4.283282 3.197887 -2.298358 0
M  V30 21 C -3.863746 1.906389 -2.492514 0
M  V30 22 C -2.973358 1.316322 -1.652997 0
M  V30 23 N -2.485196 0.068374 -1.730100 0
M  V30 24 C -1.626731 -2.577458 -2.120822 0
M  V30 25 C -1.175952 -3.890675 -2.292247 0
M  V30 26 N -0.279746 -4.359931 -1.390586 0
M  V30 27 H 3.666723 -4.938446 0.911505 0
M  V30 28 H 4.082837 -3.201757 1.302377 0
M  V30 29 H 4.618493 -4.479162 2.426256 0
M  V30 30 H 2.863063 -3.252506 3.326413 0
M  V30 31 H 1.121502 -4.957046 3.349001 0
M  V30 32 H 0.641154 -2.985138 2.223726 0
M  V30 33 H 1.998670 -2.347952 1.250031 0
M  V30 34 H 1.453067 -5.101197 0.442984 0
M  V30 35 H 0.097507 -1.710742 0.640277 0
M  V30 36 H -1.520204 3.398702 1.494410 0
M  V30 37 H -0.666712 0.850410 2.755606 0
M  V30 38 H 0.106333 2.184132 4.395898 0
M  V30 39 H -0.485856 3.581454 3.393815 0
M  V30 40 H 2.272849 2.953357 4.008998 0
M  V30 41 H 1.654788 4.180132 2.898124 0
M  V30 42 H 2.976413 1.895463 2.201285 0
M  V30 43 H 1.378745 0.383327 1.832909 0
M  V30 44 H 0.896632 1.492878 0.469343 0
M  V30 45 H -4.886255 3.878079 -2.703827 0
M  V30 46 H -4.318055 1.456344 -3.357681 0
M  V30 47 H -2.348350 -2.121700 -2.801548 0
M  V30 48 H -1.558449 -4.474066 -3.131768 0
M  V30 END ATOM
M  V30 BEGIN BOND
M  V30 1 1 1 2
M  V30 2 1 2 3
M  V30 3 1 2 4
M  V30 4 1 4 5
M  V30 5 1 5 6
M  V30 6 2 6 7
M  V30 7 1 7 8
M  V30 8 1 8 9
M  V30 9 2 9 10
M  V30 10 1 10 11
M  V30 11 1 11 12
M  V30 12 1 12 13
M  V30 13 1 13 14
M  V30 14 1 14 15
M  V30 15 1 15 16
M  V30 16 1 16 17
M  V30 17 2 11 18
M  V30 18 1 18 19
M  V30 19 1 19 20
M  V30 20 2 20 21
M  V30 21 1 21 22
M  V30 22 2 22 23
M  V30 23 2 8 24
M  V30 24 1 24 25
M  V30 25 2 25 26
M  V30 26 1 26 6
M  V30 27 1 23 9
M  V30 28 1 17 13
M  V30 29 1 22 18
M  V30 30 1 1 27
M  V30 31 1 1 28
M  V30 32 1 1 29
M  V30 33 1 2 30 CFG=1
M  V30 34 1 3 31
M  V30 35 1 4 32
M  V30 36 1 4 33
M  V30 37 1 5 34
M  V30 38 1 7 35
M  V30 39 1 12 36
M  V30 40 1 13 37 CFG=1
M  V30 41 1 14 38
M  V30 42 1 14 39
M  V30 43 1 15 40
M  V30 44 1 15 41
M  V30 45 1 16 42
M  V30 46 1 17 43
M  V30 47 1 17 44
M  V30 48 1 20 45
M  V30 49 1 21 46
M  V30 50 1 24 47
M  V30 51 1 25 48
M  V30 END BOND
M  V30 END CTAB
M  END
>  <Dataset>  (267) 
ChEMBL_Kinases

>  <Ligand_Instance>  (267) 
nan

>  <PDB_ID>  (267) 
nan

>  <Standardized_SMILES>  (267) 
C[C@H](O)CNc1cc(-c2nc(N[C@@H]3CCNC3)c3sccc3n2)ccn1

>  <Name>  (267) 
nan

>  <Pocket>  (267) 
nan

>  <ATP_Site>  (267) 
nan

>  <Peripheral>  (267) 
nan

>  <Num_H_Atoms_ProtBoundConf>  (267) 
nan

>  <Num_Resolved_Atoms>  (267) 
nan

>  <Num_Not_Resolved_Atoms>  (267) 
nan

$$$$
CHEMBL3732359
     RDKit          3D

  0  0  0  0  0  0  0  0  0  0999 V3000
M  V30 BEGIN CTAB
M  V30 COUNTS 40 43 0 0 0
M  V30 BEGIN ATOM
M  V30 1 C 0.458951 -5.454380 0.131291 0
M  V30 2 C -0.016031 -4.131857 0.729504 0 CFG=1
M  V30 3 N 1.164554 -3.360828 0.973959 0
M  V30 4 C -0.995128 -3.517330 -0.229568 0
M  V30 5 N -1.475119 -2.285076 0.281624 0
M  V30 6 C -0.752358 -1.089075 0.446580 0
M  V30 7 N 0.540682 -0.944829 0.106166 0
M  V30 8 C 1.072878 0.267610 0.316311 0
M  V30 9 C 2.482706 0.481314 -0.037664 0
M  V30 10 C 3.109953 1.696691 0.145132 0
M  V30 11 C 4.436112 1.755441 -0.231022 0
M  V30 12 N 5.134442 0.724083 -0.751753 0
M  V30 13 C 4.499456 -0.455133 -0.921262 0
M  V30 14 C 3.159719 -0.590825 -0.564443 0
M  V30 15 N 0.406919 1.283911 0.822912 0
M  V30 16 C -0.883615 1.238827 1.192710 0
M  V30 17 C -1.458811 -0.025223 0.979670 0
M  V30 18 S -3.124768 0.093063 1.510770 0
M  V30 19 C -2.979101 1.891144 2.013698 0
M  V30 20 N -3.927902 2.725984 2.549298 0
M  V30 21 C -3.621603 3.992288 2.842916 0
M  V30 22 C -2.320210 4.332515 2.559461 0
M  V30 23 C -1.365133 3.534009 2.033035 0
M  V30 24 C -1.648994 2.227178 1.720437 0
M  V30 25 H -0.133657 -6.276780 0.614541 0
M  V30 26 H 0.207469 -5.503105 -0.940706 0
M  V30 27 H 1.532827 -5.624409 0.258847 0
M  V30 28 H -0.468144 -4.342430 1.728441 0
M  V30 29 H 1.390299 -3.202867 1.966101 0
M  V30 30 H 1.962859 -3.587529 0.364873 0
M  V30 31 H -1.765537 -4.238994 -0.570130 0
M  V30 32 H -0.385516 -3.340871 -1.177193 0
M  V30 33 H -2.482843 -2.376819 0.536130 0
M  V30 34 H 2.582204 2.522942 0.552883 0
M  V30 35 H 4.954962 2.707327 -0.096050 0
M  V30 36 H 5.035943 -1.302865 -1.338133 0
M  V30 37 H 2.716164 -1.562341 -0.727745 0
M  V30 38 H -4.413920 4.585151 3.258498 0
M  V30 39 H -2.050161 5.370393 2.794461 0
M  V30 40 H -0.377067 3.935248 1.861247 0
M  V30 END ATOM
M  V30 BEGIN BOND
M  V30 1 1 1 2
M  V30 2 1 2 3
M  V30 3 1 2 4
M  V30 4 1 4 5
M  V30 5 1 5 6
M  V30 6 2 6 7
M  V30 7 1 7 8
M  V30 8 1 8 9
M  V30 9 2 9 10
M  V30 10 1 10 11
M  V30 11 2 11 12
M  V30 12 1 12 13
M  V30 13 2 13 14
M  V30 14 2 8 15
M  V30 15 1 15 16
M  V30 16 2 16 17
M  V30 17 1 17 18
M  V30 18 1 18 19
M  V30 19 2 19 20
M  V30 20 1 20 21
M  V30 21 2 21 22
M  V30 22 1 22 23
M  V30 23 2 23 24
M  V30 24 1 17 6
M  V30 25 1 24 19
M  V30 26 1 14 9
M  V30 27 1 24 16
M  V30 28 1 1 25
M  V30 29 1 1 26
M  V30 30 1 1 27
M  V30 31 1 2 28 CFG=1
M  V30 32 1 3 29
M  V30 33 1 3 30
M  V30 34 1 4 31
M  V30 35 1 4 32
M  V30 36 1 5 33
M  V30 37 1 10 34
M  V30 38 1 11 35
M  V30 39 1 13 36
M  V30 40 1 14 37
M  V30 41 1 21 38
M  V30 42 1 22 39
M  V30 43 1 23 40
M  V30 END BOND
M  V30 END CTAB
M  END
>  <Dataset>  (268) 
ChEMBL_Kinases

>  <Ligand_Instance>  (268) 
nan

>  <PDB_ID>  (268) 
nan

>  <Standardized_SMILES>  (268) 
C[C@@H](N)CNc1nc(-c2ccncc2)nc2c1sc1ncccc12

>  <Name>  (268) 
nan

>  <Pocket>  (268) 
nan

>  <ATP_Site>  (268) 
nan

>  <Peripheral>  (268) 
nan

>  <Num_H_Atoms_ProtBoundConf>  (268) 
nan

>  <Num_Resolved_Atoms>  (268) 
nan

>  <Num_Not_Resolved_Atoms>  (268) 
nan

$$$$
CHEMBL3732355
     RDKit          3D

  0  0  0  0  0  0  0  0  0  0999 V3000
M  V30 BEGIN CTAB
M  V30 COUNTS 48 51 0 0 0
M  V30 BEGIN ATOM
M  V30 1 C -0.247222 -6.241004 0.579415 0
M  V30 2 C -0.062653 -4.828529 1.024935 0
M  V30 3 C -0.118976 -4.750894 2.513163 0
M  V30 4 C -1.090733 -3.953685 0.388686 0
M  V30 5 C -1.079569 -2.522050 0.815297 0
M  V30 6 C 0.270180 -1.935718 0.595165 0
M  V30 7 C 1.224162 -2.868973 0.429799 0
M  V30 8 S 2.754315 -1.884213 0.126127 0
M  V30 9 C 1.945186 -0.336692 0.257200 0
M  V30 10 N 2.529277 0.884570 0.134420 0
M  V30 11 C 1.774130 1.982415 0.269607 0
M  V30 12 C 2.312524 3.322006 0.153424 0
M  V30 13 C 3.657649 3.506477 -0.107371 0
M  V30 14 C 4.239193 4.747761 -0.230940 0
M  V30 15 N 3.437696 5.816920 -0.086527 0
M  V30 16 C 2.116164 5.660740 0.169458 0
M  V30 17 C 1.504994 4.427423 0.298661 0
M  V30 18 N 0.501731 1.733948 0.516933 0
M  V30 19 C -0.089314 0.540608 0.641010 0
M  V30 20 N -1.494636 0.612176 0.965672 0
M  V30 21 C -2.171625 1.867838 1.069798 0
M  V30 22 C -3.624257 1.685984 1.414287 0
M  V30 23 N -4.305050 0.911463 0.412651 0
M  V30 24 C 0.646783 -0.614806 0.507112 0
M  V30 25 C 1.262802 -4.330257 0.465968 0
M  V30 26 H -0.912772 -6.260099 -0.325048 0
M  V30 27 H 0.734957 -6.691575 0.256077 0
M  V30 28 H -0.713497 -6.817588 1.403205 0
M  V30 29 H -1.069473 -5.228060 2.828977 0
M  V30 30 H 0.734098 -5.234410 3.007306 0
M  V30 31 H -0.148674 -3.709697 2.900498 0
M  V30 32 H -0.992753 -3.972639 -0.721386 0
M  V30 33 H -2.084978 -4.362113 0.649295 0
M  V30 34 H -1.793500 -2.029692 0.065477 0
M  V30 35 H -1.507360 -2.336774 1.797721 0
M  V30 36 H 4.311435 2.653059 -0.225344 0
M  V30 37 H 5.313418 4.836748 -0.438659 0
M  V30 38 H 1.496124 6.545367 0.280640 0
M  V30 39 H 0.460447 4.291704 0.501106 0
M  V30 40 H -2.160893 -0.152541 1.169315 0
M  V30 41 H -1.660793 2.500275 1.846820 0
M  V30 42 H -2.064718 2.447522 0.109871 0
M  V30 43 H -3.640262 1.084421 2.357890 0
M  V30 44 H -4.150046 2.630809 1.543006 0
M  V30 45 H -5.041298 0.348050 0.858897 0
M  V30 46 H -3.657125 0.353088 -0.175610 0
M  V30 47 H 1.334659 -4.712779 -0.571654 0
M  V30 48 H 2.064276 -4.783793 1.052379 0
M  V30 END ATOM
M  V30 BEGIN BOND
M  V30 1 1 1 2
M  V30 2 1 2 3
M  V30 3 1 2 4
M  V30 4 1 4 5
M  V30 5 1 5 6
M  V30 6 2 6 7
M  V30 7 1 7 8
M  V30 8 1 8 9
M  V30 9 2 9 10
M  V30 10 1 10 11
M  V30 11 1 11 12
M  V30 12 2 12 13
M  V30 13 1 13 14
M  V30 14 2 14 15
M  V30 15 1 15 16
M  V30 16 2 16 17
M  V30 17 2 11 18
M  V30 18 1 18 19
M  V30 19 1 19 20
M  V30 20 1 20 21
M  V30 21 1 21 22
M  V30 22 1 22 23
M  V30 23 2 19 24
M  V30 24 1 7 25
M  V30 25 1 25 2
M  V30 26 1 24 6
M  V30 27 1 24 9
M  V30 28 1 17 12
M  V30 29 1 1 26
M  V30 30 1 1 27
M  V30 31 1 1 28
M  V30 32 1 3 29
M  V30 33 1 3 30
M  V30 34 1 3 31
M  V30 35 1 4 32
M  V30 36 1 4 33
M  V30 37 1 5 34
M  V30 38 1 5 35
M  V30 39 1 13 36
M  V30 40 1 14 37
M  V30 41 1 16 38
M  V30 42 1 17 39
M  V30 43 1 20 40
M  V30 44 1 21 41
M  V30 45 1 21 42
M  V30 46 1 22 43
M  V30 47 1 22 44
M  V30 48 1 23 45
M  V30 49 1 23 46
M  V30 50 1 25 47
M  V30 51 1 25 48
M  V30 END BOND
M  V30 END CTAB
M  END
>  <Dataset>  (269) 
ChEMBL_Kinases

>  <Ligand_Instance>  (269) 
nan

>  <PDB_ID>  (269) 
nan

>  <Standardized_SMILES>  (269) 
CC1(C)CCc2c(sc3nc(-c4ccncc4)nc(NCCN)c23)C1

>  <Name>  (269) 
nan

>  <Pocket>  (269) 
nan

>  <ATP_Site>  (269) 
nan

>  <Peripheral>  (269) 
nan

>  <Num_H_Atoms_ProtBoundConf>  (269) 
nan

>  <Num_Resolved_Atoms>  (269) 
nan

>  <Num_Not_Resolved_Atoms>  (269) 
nan

$$$$
CHEMBL3732352
     RDKit          3D

  0  0  0  0  0  0  0  0  0  0999 V3000
M  V30 BEGIN CTAB
M  V30 COUNTS 51 55 0 0 0
M  V30 BEGIN ATOM
M  V30 1 N 0.528585 -3.725600 2.693962 0
M  V30 2 C 1.080589 -3.511907 1.375518 0 CFG=2
M  V30 3 C 1.499649 -2.087348 1.139147 0
M  V30 4 O 0.428841 -1.220897 1.288825 0
M  V30 5 C 0.547342 0.176004 1.114356 0
M  V30 6 N 1.775889 0.603412 0.785879 0
M  V30 7 C 2.175022 1.834764 0.562578 0
M  V30 8 C 3.535356 2.209152 0.209397 0
M  V30 9 C 4.518894 1.279241 0.082057 0
M  V30 10 C 5.791567 1.701956 -0.256103 0
M  V30 11 N 6.076144 3.001964 -0.460264 0
M  V30 12 C 5.154263 3.960616 -0.350188 0
M  V30 13 C 3.878136 3.533743 -0.010789 0
M  V30 14 N 1.208377 2.760414 0.686376 0
M  V30 15 C -0.067680 2.391645 1.019764 0
M  V30 16 S -1.483792 3.351580 1.245383 0
M  V30 17 C -2.584476 2.006335 1.643842 0
M  V30 18 C -1.748748 0.901129 1.568336 0
M  V30 19 C -0.452756 1.116477 1.244682 0
M  V30 20 C -2.548157 -0.312286 1.893081 0
M  V30 21 C -3.686649 -0.353589 0.870344 0
M  V30 22 C -4.672908 0.766896 1.137010 0
M  V30 23 C -4.053676 1.848382 1.996675 0
M  V30 24 C 0.131034 -4.046289 0.372125 0
M  V30 25 C -1.246250 -3.986836 0.365357 0
M  V30 26 C -2.022187 -4.510475 -0.628472 0
M  V30 27 C -1.452450 -5.142814 -1.704890 0
M  V30 28 C -0.087467 -5.252315 -1.787287 0
M  V30 29 C 0.640966 -4.706218 -0.757821 0
M  V30 30 H 0.245717 -2.878097 3.195929 0
M  V30 31 H -0.150887 -4.495952 2.645365 0
M  V30 32 H 2.013283 -4.181957 1.298099 0
M  V30 33 H 2.330989 -1.864099 1.868140 0
M  V30 34 H 1.961959 -2.029314 0.131869 0
M  V30 35 H 4.345941 0.220063 0.234830 0
M  V30 36 H 6.634147 1.066169 -0.382347 0
M  V30 37 H 5.307200 5.026802 -0.499101 0
M  V30 38 H 3.077431 4.279825 0.094050 0
M  V30 39 H -2.982524 -0.194750 2.927629 0
M  V30 40 H -1.983308 -1.234621 1.790974 0
M  V30 41 H -4.166795 -1.342495 0.811725 0
M  V30 42 H -3.220828 -0.158439 -0.117448 0
M  V30 43 H -5.056669 1.197022 0.189699 0
M  V30 44 H -5.516024 0.340540 1.693797 0
M  V30 45 H -4.207201 1.724406 3.067257 0
M  V30 46 H -4.559880 2.807889 1.682417 0
M  V30 47 H -1.678777 -3.493914 1.221177 0
M  V30 48 H -3.100105 -4.422562 -0.560815 0
M  V30 49 H -2.077592 -5.553075 -2.484977 0
M  V30 50 H 0.433833 -5.735177 -2.601906 0
M  V30 51 H 1.734335 -4.792108 -0.820583 0
M  V30 END ATOM
M  V30 BEGIN BOND
M  V30 1 1 1 2
M  V30 2 1 2 3
M  V30 3 1 3 4
M  V30 4 1 4 5
M  V30 5 2 5 6
M  V30 6 1 6 7
M  V30 7 1 7 8
M  V30 8 2 8 9
M  V30 9 1 9 10
M  V30 10 2 10 11
M  V30 11 1 11 12
M  V30 12 2 12 13
M  V30 13 2 7 14
M  V30 14 1 14 15
M  V30 15 1 15 16
M  V30 16 1 16 17
M  V30 17 2 17 18
M  V30 18 1 18 19
M  V30 19 1 18 20
M  V30 20 1 20 21
M  V30 21 1 21 22
M  V30 22 1 22 23
M  V30 23 1 2 24
M  V30 24 2 24 25
M  V30 25 1 25 26
M  V30 26 2 26 27
M  V30 27 1 27 28
M  V30 28 2 28 29
M  V30 29 1 19 5
M  V30 30 1 29 24
M  V30 31 1 13 8
M  V30 32 2 19 15
M  V30 33 1 23 17
M  V30 34 1 1 30
M  V30 35 1 1 31
M  V30 36 1 2 32 CFG=1
M  V30 37 1 3 33
M  V30 38 1 3 34
M  V30 39 1 9 35
M  V30 40 1 10 36
M  V30 41 1 12 37
M  V30 42 1 13 38
M  V30 43 1 20 39
M  V30 44 1 20 40
M  V30 45 1 21 41
M  V30 46 1 21 42
M  V30 47 1 22 43
M  V30 48 1 22 44
M  V30 49 1 23 45
M  V30 50 1 23 46
M  V30 51 1 25 47
M  V30 52 1 26 48
M  V30 53 1 27 49
M  V30 54 1 28 50
M  V30 55 1 29 51
M  V30 END BOND
M  V30 END CTAB
M  END
>  <Dataset>  (270) 
ChEMBL_Kinases

>  <Ligand_Instance>  (270) 
nan

>  <PDB_ID>  (270) 
nan

>  <Standardized_SMILES>  (270) 
N[C@H](COc1nc(-c2ccncc2)nc2sc3c(c12)CCCC3)c1ccccc1

>  <Name>  (270) 
nan

>  <Pocket>  (270) 
nan

>  <ATP_Site>  (270) 
nan

>  <Peripheral>  (270) 
nan

>  <Num_H_Atoms_ProtBoundConf>  (270) 
nan

>  <Num_Resolved_Atoms>  (270) 
nan

>  <Num_Not_Resolved_Atoms>  (270) 
nan

$$$$
CHEMBL3732347
     RDKit          3D

  0  0  0  0  0  0  0  0  0  0999 V3000
M  V30 BEGIN CTAB
M  V30 COUNTS 41 43 0 0 0
M  V30 BEGIN ATOM
M  V30 1 C 1.698659 -5.630024 0.519582 0
M  V30 2 C 1.894709 -4.127508 0.716698 0
M  V30 3 C 2.480581 -3.905812 2.075698 0
M  V30 4 C 0.527910 -3.500018 0.561265 0 CFG=2
M  V30 5 N 0.057162 -3.822347 -0.784877 0
M  V30 6 C 0.557263 -2.011055 0.681264 0
M  V30 7 N -0.754966 -1.485633 0.526126 0
M  V30 8 C -0.859864 -0.095357 0.618070 0
M  V30 9 N 0.145824 0.766088 0.834585 0
M  V30 10 C -0.132129 2.079774 0.894668 0
M  V30 11 C 0.944855 3.042581 1.129510 0
M  V30 12 C 0.742694 4.399062 1.204073 0
M  V30 13 C 1.825462 5.206328 1.427667 0
M  V30 14 N 3.082896 4.730636 1.578274 0
M  V30 15 C 3.246490 3.390109 1.499195 0
M  V30 16 C 2.199136 2.499940 1.274480 0
M  V30 17 N -1.362864 2.591517 0.750729 0
M  V30 18 C -2.441446 1.820384 0.530330 0
M  V30 19 C -3.731920 2.221323 0.368928 0
M  V30 20 Br -4.374839 4.015966 0.411792 0
M  V30 21 C -4.729672 1.297960 0.148817 0
M  V30 22 S -3.746010 -0.352934 0.167873 0
M  V30 23 C -2.131318 0.461194 0.471522 0
M  V30 24 H 2.429336 -6.166286 1.151265 0
M  V30 25 H 0.632250 -5.910964 0.756550 0
M  V30 26 H 1.848008 -5.842011 -0.559061 0
M  V30 27 H 2.594201 -3.775061 -0.055263 0
M  V30 28 H 3.029873 -4.823086 2.372466 0
M  V30 29 H 3.231930 -3.091188 2.131433 0
M  V30 30 H 1.661576 -3.775193 2.822967 0
M  V30 31 H -0.188005 -3.939750 1.264155 0
M  V30 32 H 0.839696 -4.227457 -1.378296 0
M  V30 33 H -0.736958 -4.485474 -0.780970 0
M  V30 34 H 1.201949 -1.633143 -0.162785 0
M  V30 35 H 1.007675 -1.641340 1.607580 0
M  V30 36 H -1.572313 -2.105052 0.356222 0
M  V30 37 H -0.259150 4.793503 1.085269 0
M  V30 38 H 1.733225 6.280396 1.496800 0
M  V30 39 H 4.239200 2.983768 1.615719 0
M  V30 40 H 2.432486 1.449573 1.228190 0
M  V30 41 H -5.710758 1.220539 -0.003430 0
M  V30 END ATOM
M  V30 BEGIN BOND
M  V30 1 1 1 2
M  V30 2 1 2 3
M  V30 3 1 2 4
M  V30 4 1 4 5
M  V30 5 1 4 6
M  V30 6 1 6 7
M  V30 7 1 7 8
M  V30 8 2 8 9
M  V30 9 1 9 10
M  V30 10 1 10 11
M  V30 11 2 11 12
M  V30 12 1 12 13
M  V30 13 2 13 14
M  V30 14 1 14 15
M  V30 15 2 15 16
M  V30 16 2 10 17
M  V30 17 1 17 18
M  V30 18 1 18 19
M  V30 19 1 19 20
M  V30 20 2 19 21
M  V30 21 1 21 22
M  V30 22 1 22 23
M  V30 23 1 23 8
M  V30 24 1 16 11
M  V30 25 2 23 18
M  V30 26 1 1 24
M  V30 27 1 1 25
M  V30 28 1 1 26
M  V30 29 1 2 27
M  V30 30 1 3 28
M  V30 31 1 3 29
M  V30 32 1 3 30
M  V30 33 1 4 31 CFG=1
M  V30 34 1 5 32
M  V30 35 1 5 33
M  V30 36 1 6 34
M  V30 37 1 6 35
M  V30 38 1 7 36
M  V30 39 1 12 37
M  V30 40 1 13 38
M  V30 41 1 15 39
M  V30 42 1 16 40
M  V30 43 1 21 41
M  V30 END BOND
M  V30 END CTAB
M  END
>  <Dataset>  (271) 
ChEMBL_Kinases

>  <Ligand_Instance>  (271) 
nan

>  <PDB_ID>  (271) 
nan

>  <Standardized_SMILES>  (271) 
CC(C)[C@H](N)CNc1nc(-c2ccncc2)nc2c(Br)csc12

>  <Name>  (271) 
nan

>  <Pocket>  (271) 
nan

>  <ATP_Site>  (271) 
nan

>  <Peripheral>  (271) 
nan

>  <Num_H_Atoms_ProtBoundConf>  (271) 
nan

>  <Num_Resolved_Atoms>  (271) 
nan

>  <Num_Not_Resolved_Atoms>  (271) 
nan

$$$$
CHEMBL3732346
     RDKit          3D

  0  0  0  0  0  0  0  0  0  0999 V3000
M  V30 BEGIN CTAB
M  V30 COUNTS 61 65 0 0 0
M  V30 BEGIN ATOM
M  V30 1 N 3.387548 -1.800155 2.504532 0
M  V30 2 C 2.261897 -1.634244 1.573857 0 CFG=2
M  V30 3 C 1.324206 -0.625015 2.209306 0
M  V30 4 N 0.156079 -0.356076 1.390146 0
M  V30 5 C 0.290849 0.256799 0.120325 0
M  V30 6 N 1.520758 0.617535 -0.179797 0
M  V30 7 C 2.003021 1.253124 -1.230322 0
M  V30 8 C 3.384403 1.607349 -1.472763 0
M  V30 9 C 4.320052 1.255767 -0.520937 0
M  V30 10 C 5.633145 1.594937 -0.756075 0
M  V30 11 N 5.989409 2.247437 -1.877395 0
M  V30 12 C 5.050834 2.573999 -2.782911 0
M  V30 13 C 3.705484 2.278244 -2.639633 0
M  V30 14 N 1.026542 1.552850 -2.097533 0
M  V30 15 C -0.247306 1.212272 -1.850781 0
M  V30 16 S -1.684276 1.551256 -2.905092 0
M  V30 17 C -2.905406 0.723929 -1.721730 0
M  V30 18 C -2.072248 0.305271 -0.697751 0
M  V30 19 C -0.740141 0.538040 -0.734401 0
M  V30 20 C -2.549696 -0.459196 0.482620 0
M  V30 21 C -3.904676 -1.118450 0.271949 0
M  V30 22 C -5.064326 -0.197297 0.356383 0
M  V30 23 C -5.952950 -0.245420 -0.864425 0
M  V30 24 C -5.143100 -0.336980 -2.140867 0
M  V30 25 C -4.200348 0.830544 -2.276423 0
M  V30 26 C 1.624821 -2.952649 1.269373 0
M  V30 27 C 1.085579 -3.671947 2.435149 0
M  V30 28 C 2.044115 -4.488024 3.050206 0
M  V30 29 C 1.773559 -5.264095 4.157119 0
M  V30 30 C 0.509692 -5.257401 4.706718 0
M  V30 31 C -0.433770 -4.457628 4.105562 0
M  V30 32 C -0.167318 -3.681630 3.000381 0
M  V30 33 H 3.565731 -0.831570 2.886449 0
M  V30 34 H 4.211874 -2.231177 2.067025 0
M  V30 35 H 2.669159 -1.257539 0.604368 0
M  V30 36 H 1.128010 -0.942729 3.221449 0
M  V30 37 H 1.883062 0.366946 2.332322 0
M  V30 38 H -0.520525 -0.731749 2.075085 0
M  V30 39 H 4.037659 0.731658 0.380909 0
M  V30 40 H 6.437697 1.349430 -0.044814 0
M  V30 41 H 5.337799 3.104543 -3.695488 0
M  V30 42 H 2.974227 2.551721 -3.381080 0
M  V30 43 H -1.850377 -1.355983 0.525466 0
M  V30 44 H -2.524858 0.098504 1.403425 0
M  V30 45 H -3.996466 -1.829121 1.153589 0
M  V30 46 H -3.890329 -1.810464 -0.591120 0
M  V30 47 H -5.737726 -0.409525 1.212926 0
M  V30 48 H -4.699584 0.835420 0.530878 0
M  V30 49 H -6.695794 -1.055242 -0.851561 0
M  V30 50 H -6.504978 0.713888 -0.904458 0
M  V30 51 H -4.712914 -1.311346 -2.351632 0
M  V30 52 H -5.925261 -0.202601 -2.952484 0
M  V30 53 H -4.175238 1.075916 -3.359327 0
M  V30 54 H -4.729805 1.726370 -1.822764 0
M  V30 55 H 0.789477 -2.800896 0.525079 0
M  V30 56 H 2.377245 -3.549982 0.709929 0
M  V30 57 H 3.087785 -4.584999 2.712721 0
M  V30 58 H 2.498962 -5.892492 4.636326 0
M  V30 59 H 0.222718 -5.837883 5.572159 0
M  V30 60 H -1.450709 -4.393015 4.472406 0
M  V30 61 H -0.861088 -3.039845 2.482856 0
M  V30 END ATOM
M  V30 BEGIN BOND
M  V30 1 1 1 2
M  V30 2 1 2 3
M  V30 3 1 3 4
M  V30 4 1 4 5
M  V30 5 2 5 6
M  V30 6 1 6 7
M  V30 7 1 7 8
M  V30 8 2 8 9
M  V30 9 1 9 10
M  V30 10 2 10 11
M  V30 11 1 11 12
M  V30 12 2 12 13
M  V30 13 2 7 14
M  V30 14 1 14 15
M  V30 15 1 15 16
M  V30 16 1 16 17
M  V30 17 2 17 18
M  V30 18 1 18 19
M  V30 19 1 18 20
M  V30 20 1 20 21
M  V30 21 1 21 22
M  V30 22 1 22 23
M  V30 23 1 23 24
M  V30 24 1 24 25
M  V30 25 1 2 26
M  V30 26 1 26 27
M  V30 27 2 27 28
M  V30 28 1 28 29
M  V30 29 2 29 30
M  V30 30 1 30 31
M  V30 31 2 31 32
M  V30 32 1 19 5
M  V30 33 1 32 27
M  V30 34 1 13 8
M  V30 35 2 19 15
M  V30 36 1 25 17
M  V30 37 1 1 33
M  V30 38 1 1 34
M  V30 39 1 2 35 CFG=3
M  V30 40 1 3 36
M  V30 41 1 3 37
M  V30 42 1 4 38
M  V30 43 1 9 39
M  V30 44 1 10 40
M  V30 45 1 12 41
M  V30 46 1 13 42
M  V30 47 1 20 43
M  V30 48 1 20 44
M  V30 49 1 21 45
M  V30 50 1 21 46
M  V30 51 1 22 47
M  V30 52 1 22 48
M  V30 53 1 23 49
M  V30 54 1 23 50
M  V30 55 1 24 51
M  V30 56 1 24 52
M  V30 57 1 25 53
M  V30 58 1 25 54
M  V30 59 1 26 55
M  V30 60 1 26 56
M  V30 61 1 28 57
M  V30 62 1 29 58
M  V30 63 1 30 59
M  V30 64 1 31 60
M  V30 65 1 32 61
M  V30 END BOND
M  V30 END CTAB
M  END
>  <Dataset>  (272) 
ChEMBL_Kinases

>  <Ligand_Instance>  (272) 
nan

>  <PDB_ID>  (272) 
nan

>  <Standardized_SMILES>  (272) 
N[C@H](CNc1nc(-c2ccncc2)nc2sc3c(c12)CCCCCC3)Cc1ccccc1

>  <Name>  (272) 
nan

>  <Pocket>  (272) 
nan

>  <ATP_Site>  (272) 
nan

>  <Peripheral>  (272) 
nan

>  <Num_H_Atoms_ProtBoundConf>  (272) 
nan

>  <Num_Resolved_Atoms>  (272) 
nan

>  <Num_Not_Resolved_Atoms>  (272) 
nan

$$$$
CHEMBL3732298
     RDKit          3D

  0  0  0  0  0  0  0  0  0  0999 V3000
M  V30 BEGIN CTAB
M  V30 COUNTS 46 49 0 0 0
M  V30 BEGIN ATOM
M  V30 1 N -1.824054 -3.432334 2.038422 0
M  V30 2 C -0.382690 -3.373712 2.032893 0 CFG=2
M  V30 3 C 0.042324 -1.962406 1.687163 0
M  V30 4 N -0.464105 -1.012836 2.652474 0
M  V30 5 C -0.128030 0.340875 2.433414 0
M  V30 6 N 0.618801 0.744715 1.393104 0
M  V30 7 C 0.845169 2.093650 1.338955 0
M  V30 8 C 1.657456 2.657152 0.233797 0
M  V30 9 C 2.142828 1.761372 -0.689305 0
M  V30 10 C 2.895553 2.336522 -1.702244 0
M  V30 11 N 3.160809 3.652150 -1.822015 0 CHG=1 VAL=4
M  V30 12 O 3.928320 4.100549 -2.884281 0 CHG=-1 VAL=1
M  V30 13 C 2.678663 4.521378 -0.909437 0
M  V30 14 C 1.912416 4.019382 0.139490 0
M  V30 15 N 0.364578 2.951777 2.246472 0
M  V30 16 C -0.384077 2.571962 3.294646 0
M  V30 17 C -0.841596 3.490347 4.180344 0
M  V30 18 Br -0.649883 5.374936 4.292590 0
M  V30 19 C -1.657087 2.775987 5.258204 0
M  V30 20 S -1.586937 0.956969 4.764954 0
M  V30 21 C -0.621438 1.202161 3.360915 0
M  V30 22 C 0.255390 -4.396501 1.157019 0
M  V30 23 C -0.144078 -4.277353 -0.262891 0
M  V30 24 C 0.563778 -3.490528 -1.150064 0
M  V30 25 C 0.103933 -3.446613 -2.466510 0
M  V30 26 C -1.020641 -4.170375 -2.851658 0
M  V30 27 C -1.721547 -4.956934 -1.947762 0
M  V30 28 C -1.254862 -4.990481 -0.649318 0
M  V30 29 H -2.227246 -2.796849 1.297349 0
M  V30 30 H -2.180259 -3.055713 2.950867 0
M  V30 31 H -0.055430 -3.592942 3.075389 0
M  V30 32 H -0.357897 -1.647682 0.708085 0
M  V30 33 H 1.154162 -1.921272 1.610665 0
M  V30 34 H -1.035959 -1.387552 3.435028 0
M  V30 35 H 1.970379 0.696561 -0.656084 0
M  V30 36 H 3.314087 1.680404 -2.473452 0
M  V30 37 H 2.876078 5.584944 -0.980583 0
M  V30 38 H 1.500421 4.675362 0.900795 0
M  V30 39 H -2.147132 3.439851 6.138737 0
M  V30 40 H 1.354250 -4.333168 1.274089 0
M  V30 41 H -0.049671 -5.398399 1.563944 0
M  V30 42 H 1.430665 -2.937051 -0.838029 0
M  V30 43 H 0.630575 -2.835971 -3.212632 0
M  V30 44 H -1.372233 -4.126545 -3.893170 0
M  V30 45 H -2.589612 -5.519452 -2.231947 0
M  V30 46 H -1.815873 -5.612809 0.049476 0
M  V30 END ATOM
M  V30 BEGIN BOND
M  V30 1 1 1 2
M  V30 2 1 2 3
M  V30 3 1 3 4
M  V30 4 1 4 5
M  V30 5 2 5 6
M  V30 6 1 6 7
M  V30 7 1 7 8
M  V30 8 2 8 9
M  V30 9 1 9 10
M  V30 10 2 10 11
M  V30 11 1 11 12
M  V30 12 1 11 13
M  V30 13 2 13 14
M  V30 14 2 7 15
M  V30 15 1 15 16
M  V30 16 1 16 17
M  V30 17 1 17 18
M  V30 18 2 17 19
M  V30 19 1 19 20
M  V30 20 1 20 21
M  V30 21 1 2 22
M  V30 22 1 22 23
M  V30 23 2 23 24
M  V30 24 1 24 25
M  V30 25 2 25 26
M  V30 26 1 26 27
M  V30 27 2 27 28
M  V30 28 1 21 5
M  V30 29 1 28 23
M  V30 30 1 14 8
M  V30 31 2 21 16
M  V30 32 1 1 29
M  V30 33 1 1 30
M  V30 34 1 2 31 CFG=1
M  V30 35 1 3 32
M  V30 36 1 3 33
M  V30 37 1 4 34
M  V30 38 1 9 35
M  V30 39 1 10 36
M  V30 40 1 13 37
M  V30 41 1 14 38
M  V30 42 1 19 39
M  V30 43 1 22 40
M  V30 44 1 22 41
M  V30 45 1 24 42
M  V30 46 1 25 43
M  V30 47 1 26 44
M  V30 48 1 27 45
M  V30 49 1 28 46
M  V30 END BOND
M  V30 END CTAB
M  END
>  <Dataset>  (273) 
ChEMBL_Kinases

>  <Ligand_Instance>  (273) 
nan

>  <PDB_ID>  (273) 
nan

>  <Standardized_SMILES>  (273) 
N[C@H](CNc1nc(-c2cc[n+]([O-])cc2)nc2c(Br)csc12)Cc1ccccc1

>  <Name>  (273) 
nan

>  <Pocket>  (273) 
nan

>  <ATP_Site>  (273) 
nan

>  <Peripheral>  (273) 
nan

>  <Num_H_Atoms_ProtBoundConf>  (273) 
nan

>  <Num_Resolved_Atoms>  (273) 
nan

>  <Num_Not_Resolved_Atoms>  (273) 
nan

$$$$
CHEMBL3732296
     RDKit          3D

  0  0  0  0  0  0  0  0  0  0999 V3000
M  V30 BEGIN CTAB
M  V30 COUNTS 36 39 0 0 0
M  V30 BEGIN ATOM
M  V30 1 Br 1.022162 0.984297 5.567387 0
M  V30 2 C 1.237246 -0.192939 4.090089 0
M  V30 3 C 2.060459 -1.340908 4.324880 0
M  V30 4 S 2.026919 -2.241845 2.653194 0
M  V30 5 C 0.965444 -1.055420 1.835163 0
M  V30 6 C 0.437636 -0.975178 0.534468 0
M  V30 7 N 0.848188 -2.070563 -0.265441 0
M  V30 8 C 0.550188 -3.456144 0.059623 0
M  V30 9 C 0.888313 -4.261170 -1.201340 0
M  V30 10 N 2.234497 -3.858143 -1.588769 0
M  V30 11 C 2.089412 -2.616359 -2.330202 0
M  V30 12 C 1.585760 -1.547297 -1.410570 0
M  V30 13 N -0.340947 0.059995 0.223732 0
M  V30 14 C -0.565275 0.959517 1.188723 0
M  V30 15 C -1.429255 2.118235 0.861428 0
M  V30 16 C -1.711542 3.091653 1.797893 0
M  V30 17 C -2.527409 4.150256 1.426419 0
M  V30 18 N -3.053850 4.258042 0.177621 0
M  V30 19 C -2.743114 3.278401 -0.692058 0
M  V30 20 C -1.932829 2.172302 -0.419140 0
M  V30 21 N -0.071007 0.886975 2.411319 0
M  V30 22 C 0.724302 -0.109204 2.836130 0
M  V30 23 H 2.607528 -1.667810 5.245556 0
M  V30 24 H -0.525990 -3.608337 0.248744 0
M  V30 25 H 1.208433 -3.867953 0.853057 0
M  V30 26 H 0.148997 -4.049058 -2.003090 0
M  V30 27 H 0.833154 -5.353405 -0.982734 0
M  V30 28 H 2.766311 -3.615912 -0.722340 0
M  V30 29 H 3.070927 -2.308510 -2.791635 0
M  V30 30 H 1.397591 -2.741004 -3.187733 0
M  V30 31 H 2.449564 -0.923373 -1.055526 0
M  V30 32 H 0.878685 -0.903774 -1.971626 0
M  V30 33 H -1.295026 3.011596 2.795093 0
M  V30 34 H -2.726950 4.893237 2.184677 0
M  V30 35 H -3.147593 3.329650 -1.706914 0
M  V30 36 H -1.747263 1.443280 -1.191092 0
M  V30 END ATOM
M  V30 BEGIN BOND
M  V30 1 1 1 2
M  V30 2 2 2 3
M  V30 3 1 3 4
M  V30 4 1 4 5
M  V30 5 2 5 6
M  V30 6 1 6 7
M  V30 7 1 7 8
M  V30 8 1 8 9
M  V30 9 1 9 10
M  V30 10 1 10 11
M  V30 11 1 11 12
M  V30 12 1 6 13
M  V30 13 2 13 14
M  V30 14 1 14 15
M  V30 15 2 15 16
M  V30 16 1 16 17
M  V30 17 2 17 18
M  V30 18 1 18 19
M  V30 19 2 19 20
M  V30 20 1 14 21
M  V30 21 2 21 22
M  V30 22 1 22 2
M  V30 23 1 22 5
M  V30 24 1 12 7
M  V30 25 1 20 15
M  V30 26 1 3 23
M  V30 27 1 8 24
M  V30 28 1 8 25
M  V30 29 1 9 26
M  V30 30 1 9 27
M  V30 31 1 10 28
M  V30 32 1 11 29
M  V30 33 1 11 30
M  V30 34 1 12 31
M  V30 35 1 12 32
M  V30 36 1 16 33
M  V30 37 1 17 34
M  V30 38 1 19 35
M  V30 39 1 20 36
M  V30 END BOND
M  V30 END CTAB
M  END
>  <Dataset>  (274) 
ChEMBL_Kinases

>  <Ligand_Instance>  (274) 
nan

>  <PDB_ID>  (274) 
nan

>  <Standardized_SMILES>  (274) 
Brc1csc2c(N3CCNCC3)nc(-c3ccncc3)nc12

>  <Name>  (274) 
nan

>  <Pocket>  (274) 
nan

>  <ATP_Site>  (274) 
nan

>  <Peripheral>  (274) 
nan

>  <Num_H_Atoms_ProtBoundConf>  (274) 
nan

>  <Num_Resolved_Atoms>  (274) 
nan

>  <Num_Not_Resolved_Atoms>  (274) 
nan

$$$$
CHEMBL3732295
     RDKit          3D

  0  0  0  0  0  0  0  0  0  0999 V3000
M  V30 BEGIN CTAB
M  V30 COUNTS 52 55 0 0 0
M  V30 BEGIN ATOM
M  V30 1 N -2.660932 -3.023592 -2.004518 0
M  V30 2 C -1.923534 -3.616321 -0.928458 0 CFG=2
M  V30 3 C -1.063318 -2.630795 -0.184603 0
M  V30 4 N -1.858963 -1.571685 0.396705 0
M  V30 5 C -1.167928 -0.573997 1.132737 0
M  V30 6 N 0.192149 -0.612164 1.286302 0
M  V30 7 C 0.709381 0.417254 2.021069 0
M  V30 8 C 2.156851 0.404391 2.202539 0
M  V30 9 C 2.866784 1.350669 2.910747 0
M  V30 10 C 4.245701 1.269263 3.039067 0
M  V30 11 N 4.954725 0.269680 2.482683 0
M  V30 12 C 4.267753 -0.661374 1.787394 0
M  V30 13 C 2.881248 -0.620606 1.631693 0
M  V30 14 N -0.019126 1.391918 2.557102 0
M  V30 15 C -1.350633 1.471183 2.433862 0
M  V30 16 C -2.168034 2.426594 2.946095 0
M  V30 17 C -1.810036 3.585809 3.744606 0
M  V30 18 C -0.576026 3.883386 4.097980 0
M  V30 19 C -0.210922 5.046266 4.899883 0
M  V30 20 O 0.963430 5.330894 5.237202 0
M  V30 21 O -1.234557 5.902019 5.322017 0
M  V30 22 C -3.515371 2.294143 2.684000 0
M  V30 23 S -3.586730 0.715940 1.651867 0
M  V30 24 C -1.887072 0.454197 1.704631 0
M  V30 25 C -1.093574 -4.753979 -1.453882 0
M  V30 26 C -0.133529 -4.326609 -2.473774 0
M  V30 27 C 1.136861 -3.920859 -2.128814 0
M  V30 28 C 1.992073 -3.531089 -3.137383 0
M  V30 29 C 1.646812 -3.525344 -4.465185 0
M  V30 30 C 0.347144 -3.946587 -4.752420 0
M  V30 31 C -0.578055 -4.355407 -3.798400 0
M  V30 32 H -2.047998 -2.657232 -2.737541 0
M  V30 33 H -3.284080 -3.750372 -2.417590 0
M  V30 34 H -2.649012 -4.013399 -0.165404 0
M  V30 35 H -0.507977 -3.174857 0.589125 0
M  V30 36 H -0.321975 -2.202792 -0.917508 0
M  V30 37 H -2.874281 -1.557444 0.272921 0
M  V30 38 H 2.337103 2.152153 3.361864 0
M  V30 39 H 4.755124 2.047371 3.611693 0
M  V30 40 H 4.818489 -1.473963 1.331591 0
M  V30 41 H 2.433819 -1.423866 1.050869 0
M  V30 42 H -2.486921 4.305629 4.123639 0
M  V30 43 H 0.271756 3.279264 3.816231 0
M  V30 44 H -1.067291 6.816507 5.721568 0
M  V30 45 H -4.414322 2.890436 2.952735 0
M  V30 46 H -1.784622 -5.556969 -1.763272 0
M  V30 47 H -0.493468 -5.130344 -0.575263 0
M  V30 48 H 1.426047 -3.920311 -1.073684 0
M  V30 49 H 2.997628 -3.208837 -2.877890 0
M  V30 50 H 2.305295 -3.222797 -5.268209 0
M  V30 51 H -0.005530 -3.970421 -5.792297 0
M  V30 52 H -1.566016 -4.667495 -4.102631 0
M  V30 END ATOM
M  V30 BEGIN BOND
M  V30 1 1 1 2
M  V30 2 1 2 3
M  V30 3 1 3 4
M  V30 4 1 4 5
M  V30 5 2 5 6
M  V30 6 1 6 7
M  V30 7 1 7 8
M  V30 8 2 8 9
M  V30 9 1 9 10
M  V30 10 2 10 11
M  V30 11 1 11 12
M  V30 12 2 12 13
M  V30 13 2 7 14
M  V30 14 1 14 15
M  V30 15 1 15 16
M  V30 16 1 16 17
M  V30 17 2 17 18
M  V30 18 1 18 19
M  V30 19 2 19 20
M  V30 20 1 19 21
M  V30 21 2 16 22
M  V30 22 1 22 23
M  V30 23 1 23 24
M  V30 24 1 2 25
M  V30 25 1 25 26
M  V30 26 2 26 27
M  V30 27 1 27 28
M  V30 28 2 28 29
M  V30 29 1 29 30
M  V30 30 2 30 31
M  V30 31 1 24 5
M  V30 32 1 31 26
M  V30 33 1 13 8
M  V30 34 2 24 15
M  V30 35 1 1 32
M  V30 36 1 1 33
M  V30 37 1 2 34 CFG=1
M  V30 38 1 3 35
M  V30 39 1 3 36
M  V30 40 1 4 37
M  V30 41 1 9 38
M  V30 42 1 10 39
M  V30 43 1 12 40
M  V30 44 1 13 41
M  V30 45 1 17 42
M  V30 46 1 18 43
M  V30 47 1 21 44
M  V30 48 1 22 45
M  V30 49 1 25 46
M  V30 50 1 25 47
M  V30 51 1 27 48
M  V30 52 1 28 49
M  V30 53 1 29 50
M  V30 54 1 30 51
M  V30 55 1 31 52
M  V30 END BOND
M  V30 END CTAB
M  END
>  <Dataset>  (275) 
ChEMBL_Kinases

>  <Ligand_Instance>  (275) 
nan

>  <PDB_ID>  (275) 
nan

>  <Standardized_SMILES>  (275) 
N[C@H](CNc1nc(-c2ccncc2)nc2c(/C=C/C(=O)O)csc12)Cc1ccccc1

>  <Name>  (275) 
nan

>  <Pocket>  (275) 
nan

>  <ATP_Site>  (275) 
nan

>  <Peripheral>  (275) 
nan

>  <Num_H_Atoms_ProtBoundConf>  (275) 
nan

>  <Num_Resolved_Atoms>  (275) 
nan

>  <Num_Not_Resolved_Atoms>  (275) 
nan

$$$$
CHEMBL3732291
     RDKit          3D

  0  0  0  0  0  0  0  0  0  0999 V3000
M  V30 BEGIN CTAB
M  V30 COUNTS 53 57 0 0 0
M  V30 BEGIN ATOM
M  V30 1 N 1.571080 -3.110106 3.917405 0
M  V30 2 C 0.555465 -2.806195 2.862848 0 CFG=1
M  V30 3 C 0.766801 -1.393915 2.404695 0
M  V30 4 N -0.183637 -0.989891 1.435618 0
M  V30 5 C -0.001630 0.260056 0.735836 0
M  V30 6 N 1.088167 0.952682 1.079186 0
M  V30 7 C 1.495628 2.120125 0.607349 0
M  V30 8 C 2.714264 2.747720 1.088222 0
M  V30 9 C 3.121899 3.964712 0.583238 0
M  V30 10 C 4.277140 4.593841 1.016319 0
M  V30 11 N 5.020809 3.970933 1.974665 0
M  V30 12 C 4.591700 2.788505 2.441022 0
M  V30 13 C 3.447968 2.105008 2.052338 0
M  V30 14 N 0.690641 2.641337 -0.328444 0
M  V30 15 C -0.404522 1.979113 -0.695834 0
M  V30 16 S -1.603255 2.465589 -1.887672 0
M  V30 17 C -2.653574 1.022762 -1.703242 0
M  V30 18 C -2.007065 0.254753 -0.728769 0
M  V30 19 C -0.844569 0.773276 -0.223045 0
M  V30 20 C -2.847872 -0.946151 -0.563483 0
M  V30 21 C -4.117806 -0.510839 0.194035 0
M  V30 22 S -5.129440 0.330430 -1.091367 0
M  V30 23 C -3.910371 0.724107 -2.414012 0
M  V30 24 C 0.861990 -3.850803 1.816595 0
M  V30 25 C 0.047866 -3.848322 0.606496 0
M  V30 26 C 0.266804 -3.224993 -0.631838 0
M  V30 27 C -0.637731 -3.365397 -1.661532 0
M  V30 28 C -1.794293 -4.108499 -1.555187 0
M  V30 29 C -2.039038 -4.737059 -0.341969 0
M  V30 30 C -1.132840 -4.596573 0.690011 0
M  V30 31 H 1.482638 -4.111477 4.166218 0
M  V30 32 H 1.459468 -2.443325 4.696952 0
M  V30 33 H -0.432412 -2.982519 3.309572 0
M  V30 34 H 0.774522 -0.735140 3.304274 0
M  V30 35 H 1.785426 -1.374882 1.907218 0
M  V30 36 H -0.897199 -1.721005 1.431855 0
M  V30 37 H 2.528548 4.462057 -0.181626 0
M  V30 38 H 4.611800 5.552102 0.628714 0
M  V30 39 H 5.236267 2.342231 3.209780 0
M  V30 40 H 3.205417 1.160757 2.498352 0
M  V30 41 H -2.455714 -1.774597 -0.005039 0
M  V30 42 H -3.239053 -1.324255 -1.549443 0
M  V30 43 H -4.651284 -1.355401 0.634163 0
M  V30 44 H -3.836445 0.279478 0.921346 0
M  V30 45 H -4.222134 1.603688 -2.974633 0
M  V30 46 H -3.832236 -0.143934 -3.097998 0
M  V30 47 H 1.946707 -3.707227 1.539164 0
M  V30 48 H 0.840037 -4.882585 2.274196 0
M  V30 49 H 1.186964 -2.662467 -0.643696 0
M  V30 50 H -0.361224 -2.835149 -2.577136 0
M  V30 51 H -2.402357 -4.130098 -2.431740 0
M  V30 52 H -2.930915 -5.307505 -0.265897 0
M  V30 53 H -1.421334 -5.128933 1.593525 0
M  V30 END ATOM
M  V30 BEGIN BOND
M  V30 1 1 1 2
M  V30 2 1 2 3
M  V30 3 1 3 4
M  V30 4 1 4 5
M  V30 5 2 5 6
M  V30 6 1 6 7
M  V30 7 1 7 8
M  V30 8 2 8 9
M  V30 9 1 9 10
M  V30 10 2 10 11
M  V30 11 1 11 12
M  V30 12 2 12 13
M  V30 13 2 7 14
M  V30 14 1 14 15
M  V30 15 1 15 16
M  V30 16 1 16 17
M  V30 17 2 17 18
M  V30 18 1 18 19
M  V30 19 1 18 20
M  V30 20 1 20 21
M  V30 21 1 21 22
M  V30 22 1 22 23
M  V30 23 1 2 24
M  V30 24 1 24 25
M  V30 25 2 25 26
M  V30 26 1 26 27
M  V30 27 2 27 28
M  V30 28 1 28 29
M  V30 29 2 29 30
M  V30 30 1 19 5
M  V30 31 1 30 25
M  V30 32 1 13 8
M  V30 33 2 19 15
M  V30 34 1 23 17
M  V30 35 1 1 31
M  V30 36 1 1 32
M  V30 37 1 2 33 CFG=1
M  V30 38 1 3 34
M  V30 39 1 3 35
M  V30 40 1 4 36
M  V30 41 1 9 37
M  V30 42 1 10 38
M  V30 43 1 12 39
M  V30 44 1 13 40
M  V30 45 1 20 41
M  V30 46 1 20 42
M  V30 47 1 21 43
M  V30 48 1 21 44
M  V30 49 1 23 45
M  V30 50 1 23 46
M  V30 51 1 24 47
M  V30 52 1 24 48
M  V30 53 1 26 49
M  V30 54 1 27 50
M  V30 55 1 28 51
M  V30 56 1 29 52
M  V30 57 1 30 53
M  V30 END BOND
M  V30 END CTAB
M  END
>  <Dataset>  (276) 
ChEMBL_Kinases

>  <Ligand_Instance>  (276) 
nan

>  <PDB_ID>  (276) 
nan

>  <Standardized_SMILES>  (276) 
N[C@@H](CNc1nc(-c2ccncc2)nc2sc3c(c12)CCSC3)Cc1ccccc1

>  <Name>  (276) 
nan

>  <Pocket>  (276) 
nan

>  <ATP_Site>  (276) 
nan

>  <Peripheral>  (276) 
nan

>  <Num_H_Atoms_ProtBoundConf>  (276) 
nan

>  <Num_Resolved_Atoms>  (276) 
nan

>  <Num_Not_Resolved_Atoms>  (276) 
nan

$$$$
CHEMBL522092
     RDKit          3D

  0  0  0  0  0  0  0  0  0  0999 V3000
M  V30 BEGIN CTAB
M  V30 COUNTS 49 53 0 0 0
M  V30 BEGIN ATOM
M  V30 1 F -1.076276 -8.113825 1.768682 0
M  V30 2 C -0.897212 -6.786875 1.568814 0
M  V30 3 C -0.682970 -6.001090 2.663023 0
M  V30 4 C -0.489818 -4.655067 2.589745 0
M  V30 5 C -0.509418 -4.038121 1.344662 0
M  V30 6 C -0.328004 -2.619894 1.016258 0
M  V30 7 N 0.744327 -1.815113 1.233868 0
M  V30 8 C 0.460128 -0.577472 0.762819 0
M  V30 9 C 1.257910 0.547813 0.774235 0
M  V30 10 C 0.806893 1.739619 0.246388 0
M  V30 11 C 1.571561 3.030060 0.194904 0
M  V30 12 C 1.826781 3.429419 1.611169 0
M  V30 13 C 2.797451 4.578690 1.758387 0
M  V30 14 N 3.970307 4.392553 0.940635 0
M  V30 15 C 4.011781 3.048012 0.398654 0
M  V30 16 C 2.845363 2.910163 -0.551891 0
M  V30 17 C -0.487939 1.727678 -0.289578 0
M  V30 18 C -1.293812 0.606853 -0.305640 0
M  V30 19 C -0.813616 -0.569380 0.229797 0
M  V30 20 C -1.306795 -1.867378 0.394014 0
M  V30 21 C -2.623733 -2.213716 -0.056901 0
M  V30 22 C -3.479136 -2.608839 0.937440 0
M  V30 23 C -4.791959 -2.978115 0.669914 0
M  V30 24 N -5.229962 -2.943034 -0.615779 0
M  V30 25 C -4.379271 -2.550774 -1.599018 0
M  V30 26 N -3.120652 -2.198393 -1.330860 0
M  V30 27 C -0.725687 -4.810581 0.206082 0
M  V30 28 C -0.920134 -6.182171 0.307225 0
M  V30 29 H -0.656550 -6.426094 3.664595 0
M  V30 30 H -0.313851 -3.953388 3.395829 0
M  V30 31 H 1.599726 -2.145156 1.684328 0
M  V30 32 H 2.235357 0.548428 1.181463 0
M  V30 33 H 0.946936 3.828827 -0.280769 0
M  V30 34 H 2.217600 2.587580 2.216808 0
M  V30 35 H 0.888702 3.737361 2.122039 0
M  V30 36 H 3.126489 4.592228 2.817463 0
M  V30 37 H 2.311043 5.573181 1.573489 0
M  V30 38 H 4.855083 4.645727 1.433213 0
M  V30 39 H 4.989703 2.927648 -0.150035 0
M  V30 40 H 3.914096 2.253587 1.165428 0
M  V30 41 H 2.896097 3.744959 -1.310566 0
M  V30 42 H 2.923563 1.990120 -1.171618 0
M  V30 43 H -0.869622 2.659887 -0.714478 0
M  V30 44 H -2.289986 0.626409 -0.726397 0
M  V30 45 H -3.242886 -2.675500 1.991623 0
M  V30 46 H -5.506552 -3.298950 1.431078 0
M  V30 47 H -4.714490 -2.519768 -2.614552 0
M  V30 48 H -0.760396 -4.437713 -0.802852 0
M  V30 49 H -1.093271 -6.847845 -0.527539 0
M  V30 END ATOM
M  V30 BEGIN BOND
M  V30 1 1 1 2
M  V30 2 2 2 3
M  V30 3 1 3 4
M  V30 4 2 4 5
M  V30 5 1 5 6
M  V30 6 1 6 7
M  V30 7 1 7 8
M  V30 8 2 8 9
M  V30 9 1 9 10
M  V30 10 1 10 11
M  V30 11 1 11 12
M  V30 12 1 12 13
M  V30 13 1 13 14
M  V30 14 1 14 15
M  V30 15 1 15 16
M  V30 16 2 10 17
M  V30 17 1 17 18
M  V30 18 2 18 19
M  V30 19 1 19 20
M  V30 20 1 20 21
M  V30 21 2 21 22
M  V30 22 1 22 23
M  V30 23 2 23 24
M  V30 24 1 24 25
M  V30 25 2 25 26
M  V30 26 1 5 27
M  V30 27 2 27 28
M  V30 28 1 28 2
M  V30 29 2 20 6
M  V30 30 1 26 21
M  V30 31 1 19 8
M  V30 32 1 16 11
M  V30 33 1 3 29
M  V30 34 1 4 30
M  V30 35 1 7 31
M  V30 36 1 9 32
M  V30 37 1 11 33
M  V30 38 1 12 34
M  V30 39 1 12 35
M  V30 40 1 13 36
M  V30 41 1 13 37
M  V30 42 1 14 38
M  V30 43 1 15 39
M  V30 44 1 15 40
M  V30 45 1 16 41
M  V30 46 1 16 42
M  V30 47 1 17 43
M  V30 48 1 18 44
M  V30 49 1 22 45
M  V30 50 1 23 46
M  V30 51 1 25 47
M  V30 52 1 27 48
M  V30 53 1 28 49
M  V30 END BOND
M  V30 END CTAB
M  END
>  <Dataset>  (277) 
ChEMBL_Kinases

>  <Ligand_Instance>  (277) 
nan

>  <PDB_ID>  (277) 
nan

>  <Standardized_SMILES>  (277) 
Fc1ccc(-c2[nH]c3cc(C4CCNCC4)ccc3c2-c2ccncn2)cc1

>  <Name>  (277) 
nan

>  <Pocket>  (277) 
nan

>  <ATP_Site>  (277) 
nan

>  <Peripheral>  (277) 
nan

>  <Num_H_Atoms_ProtBoundConf>  (277) 
nan

>  <Num_Resolved_Atoms>  (277) 
nan

>  <Num_Not_Resolved_Atoms>  (277) 
nan

$$$$
CHEMBL574601
     RDKit          3D

  0  0  0  0  0  0  0  0  0  0999 V3000
M  V30 BEGIN CTAB
M  V30 COUNTS 36 39 0 0 0
M  V30 BEGIN ATOM
M  V30 1 C 1.595038 -5.787485 2.156343 0
M  V30 2 S 2.789699 -4.632198 2.782405 0 CHG=1 VAL=3
M  V30 3 O 2.398827 -4.315861 4.391343 0 CHG=-1 VAL=1
M  V30 4 C 2.607858 -3.126224 1.889921 0
M  V30 5 C 1.731723 -2.165104 2.372480 0
M  V30 6 C 1.541864 -0.952347 1.713909 0
M  V30 7 C 2.222753 -0.672436 0.558756 0
M  V30 8 C 2.001101 0.608007 -0.107220 0
M  V30 9 C 2.961335 1.458378 -0.625941 0
M  V30 10 O 2.397353 2.527986 -1.156104 0
M  V30 11 C 1.085213 2.471417 -1.035437 0
M  V30 12 C 0.019244 3.260081 -1.381469 0
M  V30 13 C -1.297185 2.941070 -1.120869 0
M  V30 14 C -1.527841 1.747014 -0.469645 0
M  V30 15 C -2.899339 1.352198 -0.164858 0
M  V30 16 N -3.292156 0.227555 0.460574 0
M  V30 17 N -4.612043 0.197351 0.567828 0
M  V30 18 C -5.037974 1.345670 -0.013637 0
M  V30 19 S -6.794736 1.748149 -0.106380 0
M  V30 20 O -3.990666 2.025260 -0.447524 0
M  V30 21 C -0.489403 0.917123 -0.099778 0
M  V30 22 C 0.818634 1.279202 -0.382713 0
M  V30 23 C 3.086088 -1.627861 0.089584 0
M  V30 24 C 3.302357 -2.845674 0.715440 0
M  V30 25 H 1.977252 -6.819308 2.240008 0
M  V30 26 H 0.631222 -5.690293 2.695077 0
M  V30 27 H 1.423370 -5.556350 1.075914 0
M  V30 28 H 1.188953 -2.399301 3.301725 0
M  V30 29 H 0.838788 -0.297694 2.189746 0
M  V30 30 H 4.052992 1.311942 -0.623377 0
M  V30 31 H 0.237234 4.199946 -1.896575 0
M  V30 32 H -2.105720 3.590651 -1.410666 0
M  V30 33 H -7.528340 0.546457 -0.274801 0
M  V30 34 H -0.733498 0.005594 0.402055 0
M  V30 35 H 3.635141 -1.409835 -0.836061 0
M  V30 36 H 3.978530 -3.589952 0.344926 0
M  V30 END ATOM
M  V30 BEGIN BOND
M  V30 1 1 1 2
M  V30 2 1 2 3
M  V30 3 1 2 4
M  V30 4 2 4 5
M  V30 5 1 5 6
M  V30 6 2 6 7
M  V30 7 1 7 8
M  V30 8 2 8 9
M  V30 9 1 9 10
M  V30 10 1 10 11
M  V30 11 2 11 12
M  V30 12 1 12 13
M  V30 13 2 13 14
M  V30 14 1 14 15
M  V30 15 2 15 16
M  V30 16 1 16 17
M  V30 17 2 17 18
M  V30 18 1 18 19
M  V30 19 1 18 20
M  V30 20 1 14 21
M  V30 21 2 21 22
M  V30 22 1 7 23
M  V30 23 2 23 24
M  V30 24 1 24 4
M  V30 25 1 22 8
M  V30 26 1 22 11
M  V30 27 1 20 15
M  V30 28 1 1 25
M  V30 29 1 1 26
M  V30 30 1 1 27
M  V30 31 1 5 28
M  V30 32 1 6 29
M  V30 33 1 9 30
M  V30 34 1 12 31
M  V30 35 1 13 32
M  V30 36 1 19 33
M  V30 37 1 21 34
M  V30 38 1 23 35
M  V30 39 1 24 36
M  V30 END BOND
M  V30 END CTAB
M  END
>  <Dataset>  (278) 
ChEMBL_Kinases

>  <Ligand_Instance>  (278) 
nan

>  <PDB_ID>  (278) 
nan

>  <Standardized_SMILES>  (278) 
C[S+]([O-])c1ccc(-c2coc3ccc(-c4nnc(S)o4)cc23)cc1

>  <Name>  (278) 
nan

>  <Pocket>  (278) 
nan

>  <ATP_Site>  (278) 
nan

>  <Peripheral>  (278) 
nan

>  <Num_H_Atoms_ProtBoundConf>  (278) 
nan

>  <Num_Resolved_Atoms>  (278) 
nan

>  <Num_Not_Resolved_Atoms>  (278) 
nan

$$$$
CHEMBL521860
     RDKit          3D

  0  0  0  0  0  0  0  0  0  0999 V3000
M  V30 BEGIN CTAB
M  V30 COUNTS 54 58 0 0 0
M  V30 BEGIN ATOM
M  V30 1 C 5.213643 -5.826494 5.343701 0
M  V30 2 C 4.548451 -4.717908 4.580519 0
M  V30 3 O 5.125913 -3.626639 4.362803 0
M  V30 4 N 3.229219 -5.014621 4.136495 0
M  V30 5 C 2.358026 -4.153633 3.390238 0
M  V30 6 N 1.461115 -3.266548 3.908164 0
M  V30 7 O 0.834788 -2.647819 2.944950 0
M  V30 8 C 1.240678 -3.049774 1.783517 0
M  V30 9 C 0.946617 -2.759767 0.453030 0
M  V30 10 C -0.088359 -1.736647 0.197230 0
M  V30 11 C 0.414172 -0.433375 0.098512 0
M  V30 12 C -0.486164 0.595247 -0.141159 0
M  V30 13 C -1.836868 0.341864 -0.278239 0
M  V30 14 C -2.679731 1.410210 -0.515661 0
M  V30 15 N -2.250284 2.766927 -0.630008 0
M  V30 16 C -1.554813 3.546391 0.404054 0
M  V30 17 C -2.519099 4.689775 0.746428 0
M  V30 18 O -2.480962 5.564868 -0.328135 0
M  V30 19 C -3.063868 4.955397 -1.438873 0
M  V30 20 C -2.408490 3.633351 -1.762824 0 CFG=2
M  V30 21 C -3.169957 2.999814 -2.878928 0
M  V30 22 N -3.976845 1.066558 -0.634895 0
M  V30 23 N -4.436336 -0.168499 -0.539265 0
M  V30 24 C -3.646702 -1.233389 -0.308904 0
M  V30 25 C -2.302016 -0.954860 -0.175675 0
M  V30 26 C -1.437898 -2.008040 0.062520 0
M  V30 27 C 1.582148 -3.388708 -0.600460 0
M  V30 28 C 1.240125 -3.051317 -2.021399 0
M  V30 29 C 2.547150 -4.342653 -0.293472 0
M  V30 30 C 2.892335 -4.683234 0.998484 0
M  V30 31 C 2.223178 -4.021071 2.005497 0
M  V30 32 H 5.283274 -6.755936 4.779149 0
M  V30 33 H 4.590657 -6.007660 6.257103 0
M  V30 34 H 6.183020 -5.450322 5.742621 0
M  V30 35 H 2.744011 -5.930454 4.318964 0
M  V30 36 H 1.468141 -0.193805 0.200296 0
M  V30 37 H -0.087292 1.598098 -0.215636 0
M  V30 38 H -0.583691 3.929604 0.063286 0
M  V30 39 H -1.364282 2.926153 1.322024 0
M  V30 40 H -2.268048 5.159046 1.701845 0
M  V30 41 H -3.536041 4.212525 0.776739 0
M  V30 42 H -2.851658 5.627402 -2.308015 0
M  V30 43 H -4.156838 4.888094 -1.347873 0
M  V30 44 H -1.363206 3.862790 -2.123375 0
M  V30 45 H -3.480531 3.835604 -3.564392 0
M  V30 46 H -4.112181 2.585621 -2.462130 0
M  V30 47 H -2.547695 2.251279 -3.411470 0
M  V30 48 H -4.023771 -2.238194 -0.231510 0
M  V30 49 H -1.750654 -3.044899 0.151916 0
M  V30 50 H 2.023886 -3.520465 -2.651748 0
M  V30 51 H 0.281668 -3.521408 -2.321924 0
M  V30 52 H 1.250285 -1.976367 -2.228602 0
M  V30 53 H 3.030144 -4.820659 -1.133767 0
M  V30 54 H 3.642594 -5.424906 1.226949 0
M  V30 END ATOM
M  V30 BEGIN BOND
M  V30 1 1 1 2
M  V30 2 2 2 3
M  V30 3 1 2 4
M  V30 4 1 4 5
M  V30 5 2 5 6
M  V30 6 1 6 7
M  V30 7 1 7 8
M  V30 8 2 8 9
M  V30 9 1 9 10
M  V30 10 2 10 11
M  V30 11 1 11 12
M  V30 12 2 12 13
M  V30 13 1 13 14
M  V30 14 1 14 15
M  V30 15 1 15 16
M  V30 16 1 16 17
M  V30 17 1 17 18
M  V30 18 1 18 19
M  V30 19 1 19 20
M  V30 20 1 20 21
M  V30 21 2 14 22
M  V30 22 1 22 23
M  V30 23 2 23 24
M  V30 24 1 24 25
M  V30 25 2 25 26
M  V30 26 1 9 27
M  V30 27 1 27 28
M  V30 28 2 27 29
M  V30 29 1 29 30
M  V30 30 2 30 31
M  V30 31 1 31 5
M  V30 32 1 31 8
M  V30 33 1 26 10
M  V30 34 1 25 13
M  V30 35 1 20 15
M  V30 36 1 1 32
M  V30 37 1 1 33
M  V30 38 1 1 34
M  V30 39 1 4 35
M  V30 40 1 11 36
M  V30 41 1 12 37
M  V30 42 1 16 38
M  V30 43 1 16 39
M  V30 44 1 17 40
M  V30 45 1 17 41
M  V30 46 1 19 42
M  V30 47 1 19 43
M  V30 48 1 20 44 CFG=3
M  V30 49 1 21 45
M  V30 50 1 21 46
M  V30 51 1 21 47
M  V30 52 1 24 48
M  V30 53 1 26 49
M  V30 54 1 28 50
M  V30 55 1 28 51
M  V30 56 1 28 52
M  V30 57 1 29 53
M  V30 58 1 30 54
M  V30 END BOND
M  V30 END CTAB
M  END
>  <Dataset>  (279) 
ChEMBL_Kinases

>  <Ligand_Instance>  (279) 
nan

>  <PDB_ID>  (279) 
nan

>  <Standardized_SMILES>  (279) 
CC(=O)Nc1noc2c(-c3ccc4c(N5CCOC[C@@H]5C)nncc4c3)c(C)ccc12

>  <Name>  (279) 
nan

>  <Pocket>  (279) 
nan

>  <ATP_Site>  (279) 
nan

>  <Peripheral>  (279) 
nan

>  <Num_H_Atoms_ProtBoundConf>  (279) 
nan

>  <Num_Resolved_Atoms>  (279) 
nan

>  <Num_Not_Resolved_Atoms>  (279) 
nan

$$$$
CHEMBL3703176
     RDKit          3D

  0  0  0  0  0  0  0  0  0  0999 V3000
M  V30 BEGIN CTAB
M  V30 COUNTS 97 103 0 0 0
M  V30 BEGIN ATOM
M  V30 1 C 1.085059 -5.576581 4.131108 0
M  V30 2 C 2.445153 -5.271923 3.547592 0
M  V30 3 C 3.255629 -4.447454 4.489680 0
M  V30 4 C 4.260556 -5.107691 5.192132 0
M  V30 5 C 4.994292 -4.337147 6.052263 0
M  V30 6 C 4.838568 -2.990687 6.288196 0
M  V30 7 C 3.817334 -2.349452 5.565553 0
M  V30 8 C 3.610403 -0.905869 5.791215 0
M  V30 9 C 2.425927 -0.730333 6.697461 0
M  V30 10 C 3.023104 -3.076865 4.664262 0
M  V30 11 N 2.000005 -2.463796 3.931636 0
M  V30 12 C 0.627111 -2.154285 3.901339 0
M  V30 13 O 0.079103 -2.601194 4.929455 0
M  V30 14 C -0.104493 -1.439838 2.883486 0
M  V30 15 C -1.480488 -1.308697 3.001162 0
M  V30 16 C -1.851977 -0.574594 1.886288 0
M  V30 17 N -0.818306 -0.243842 1.097786 0
M  V30 18 C -0.751295 0.515244 -0.138125 0
M  V30 19 C 0.262898 -0.790034 1.730573 0
M  V30 20 C 1.648854 -0.674512 1.216381 0
M  V30 21 C -3.282534 -0.244316 1.672832 0
M  V30 22 N -3.694333 0.475619 0.624645 0
M  V30 23 C -4.940999 0.845914 0.340603 0
M  V30 24 N -5.012158 1.581710 -0.869710 0
M  V30 25 C -4.232201 1.282777 -2.015803 0
M  V30 26 C -3.448468 0.161735 -2.167373 0
M  V30 27 C -2.699149 -0.165723 -3.291263 0
M  V30 28 C -2.738744 0.706686 -4.357858 0
M  V30 29 N -1.978590 0.386448 -5.513508 0
M  V30 30 C -1.346832 -0.898466 -5.750786 0
M  V30 31 C 0.155159 -0.785480 -5.675628 0
M  V30 32 C 0.685679 0.581333 -5.917370 0
M  V30 33 N 1.231093 1.089457 -4.672350 0
M  V30 34 C 1.837956 2.381906 -4.772404 0
M  V30 35 C 3.288116 2.252655 -4.344967 0
M  V30 36 C 3.254887 1.045799 -3.448831 0
M  V30 37 C 2.162511 0.192769 -4.070551 0
M  V30 38 C -0.216327 1.609394 -6.482967 0
M  V30 39 C -1.663274 1.258326 -6.638290 0
M  V30 40 C -3.503042 1.842414 -4.267206 0
M  V30 41 C -4.239949 2.124545 -3.107477 0
M  V30 42 O -5.014274 3.281495 -3.021458 0
M  V30 43 C -5.074060 4.194230 -4.089617 0
M  V30 44 N -5.848063 0.429884 1.227401 0
M  V30 45 C -5.526376 -0.298456 2.309019 0
M  V30 46 C -4.221059 -0.659885 2.564195 0
M  V30 47 C -3.884455 -1.465532 3.725901 0
M  V30 48 C -2.470018 -1.754304 3.995250 0
M  V30 49 H 0.866687 -6.649718 4.091079 0
M  V30 50 H 0.331285 -5.045039 3.502049 0
M  V30 51 H 1.007563 -5.231970 5.187603 0
M  V30 52 H 2.954883 -6.233644 3.360878 0
M  V30 53 H 2.356966 -4.779748 2.547911 0
M  V30 54 H 4.424783 -6.151784 5.048301 0
M  V30 55 H 5.784213 -4.815196 6.614365 0
M  V30 56 H 5.465202 -2.444218 6.988316 0
M  V30 57 H 4.513034 -0.478603 6.278469 0
M  V30 58 H 3.501987 -0.339102 4.841160 0
M  V30 59 H 1.823195 -1.664986 6.788896 0
M  V30 60 H 2.826168 -0.585516 7.748672 0
M  V30 61 H 1.811170 0.161250 6.479654 0
M  V30 62 H 2.618063 -2.181827 3.147710 0
M  V30 63 H 0.162365 1.177962 -0.142282 0
M  V30 64 H -1.629978 1.218521 -0.176202 0
M  V30 65 H -0.705948 -0.135765 -1.014830 0
M  V30 66 H 2.293235 -0.216061 1.966824 0
M  V30 67 H 1.670428 -0.096773 0.253948 0
M  V30 68 H 2.015084 -1.684339 0.951833 0
M  V30 69 H -5.672762 2.384881 -0.908607 0
M  V30 70 H -3.384975 -0.556862 -1.377815 0
M  V30 71 H -2.118057 -1.090916 -3.271492 0
M  V30 72 H -1.622731 -1.199005 -6.804602 0
M  V30 73 H -1.721905 -1.704294 -5.120435 0
M  V30 74 H 0.418830 -1.180232 -4.669426 0
M  V30 75 H 0.571736 -1.514634 -6.403001 0
M  V30 76 H 1.581665 0.491917 -6.589744 0
M  V30 77 H 1.783151 2.834649 -5.785148 0
M  V30 78 H 1.337038 3.079278 -4.069320 0
M  V30 79 H 3.571949 3.198024 -3.818386 0
M  V30 80 H 3.920402 2.101975 -5.232712 0
M  V30 81 H 2.900821 1.366478 -2.437933 0
M  V30 82 H 4.205979 0.506016 -3.375320 0
M  V30 83 H 1.624113 -0.384962 -3.270310 0
M  V30 84 H 2.562142 -0.579859 -4.765780 0
M  V30 85 H -0.207025 2.550239 -5.854624 0
M  V30 86 H 0.121606 1.960927 -7.479128 0
M  V30 87 H -2.283016 2.156635 -6.558045 0
M  V30 88 H -1.851030 0.736882 -7.623460 0
M  V30 89 H -3.572321 2.551073 -5.057659 0
M  V30 90 H -5.852687 4.945141 -3.924142 0
M  V30 91 H -5.310804 3.622915 -5.012357 0
M  V30 92 H -4.073835 4.675739 -4.276366 0
M  V30 93 H -6.362488 -0.569227 2.943567 0
M  V30 94 H -4.354881 -0.955713 4.623026 0
M  V30 95 H -4.439619 -2.455444 3.711592 0
M  V30 96 H -2.157131 -1.246194 4.961271 0
M  V30 97 H -2.304249 -2.844777 4.247669 0
M  V30 END ATOM
M  V30 BEGIN BOND
M  V30 1 1 1 2
M  V30 2 1 2 3
M  V30 3 2 3 4
M  V30 4 1 4 5
M  V30 5 2 5 6
M  V30 6 1 6 7
M  V30 7 1 7 8
M  V30 8 1 8 9
M  V30 9 2 7 10
M  V30 10 1 10 11
M  V30 11 1 11 12
M  V30 12 2 12 13
M  V30 13 1 12 14
M  V30 14 1 14 15
M  V30 15 2 15 16
M  V30 16 1 16 17
M  V30 17 1 17 18
M  V30 18 1 17 19
M  V30 19 1 19 20
M  V30 20 1 16 21
M  V30 21 2 21 22
M  V30 22 1 22 23
M  V30 23 1 23 24
M  V30 24 1 24 25
M  V30 25 2 25 26
M  V30 26 1 26 27
M  V30 27 2 27 28
M  V30 28 1 28 29
M  V30 29 1 29 30
M  V30 30 1 30 31
M  V30 31 1 31 32
M  V30 32 1 32 33
M  V30 33 1 33 34
M  V30 34 1 34 35
M  V30 35 1 35 36
M  V30 36 1 36 37
M  V30 37 1 32 38
M  V30 38 1 38 39
M  V30 39 1 28 40
M  V30 40 2 40 41
M  V30 41 1 41 42
M  V30 42 1 42 43
M  V30 43 2 23 44
M  V30 44 1 44 45
M  V30 45 2 45 46
M  V30 46 1 46 47
M  V30 47 1 47 48
M  V30 48 1 10 3
M  V30 49 2 19 14
M  V30 50 1 46 21
M  V30 51 1 48 15
M  V30 52 1 41 25
M  V30 53 1 39 29
M  V30 54 1 37 33
M  V30 55 1 1 49
M  V30 56 1 1 50
M  V30 57 1 1 51
M  V30 58 1 2 52
M  V30 59 1 2 53
M  V30 60 1 4 54
M  V30 61 1 5 55
M  V30 62 1 6 56
M  V30 63 1 8 57
M  V30 64 1 8 58
M  V30 65 1 9 59
M  V30 66 1 9 60
M  V30 67 1 9 61
M  V30 68 1 11 62
M  V30 69 1 18 63
M  V30 70 1 18 64
M  V30 71 1 18 65
M  V30 72 1 20 66
M  V30 73 1 20 67
M  V30 74 1 20 68
M  V30 75 1 24 69
M  V30 76 1 26 70
M  V30 77 1 27 71
M  V30 78 1 30 72
M  V30 79 1 30 73
M  V30 80 1 31 74
M  V30 81 1 31 75
M  V30 82 1 32 76
M  V30 83 1 34 77
M  V30 84 1 34 78
M  V30 85 1 35 79
M  V30 86 1 35 80
M  V30 87 1 36 81
M  V30 88 1 36 82
M  V30 89 1 37 83
M  V30 90 1 37 84
M  V30 91 1 38 85
M  V30 92 1 38 86
M  V30 93 1 39 87
M  V30 94 1 39 88
M  V30 95 1 40 89
M  V30 96 1 43 90
M  V30 97 1 43 91
M  V30 98 1 43 92
M  V30 99 1 45 93
M  V30 100 1 47 94
M  V30 101 1 47 95
M  V30 102 1 48 96
M  V30 103 1 48 97
M  V30 END BOND
M  V30 END CTAB
M  END
>  <Dataset>  (280) 
ChEMBL_Kinases

>  <Ligand_Instance>  (280) 
nan

>  <PDB_ID>  (280) 
nan

>  <Standardized_SMILES>  (280) 
CCc1cccc(CC)c1NC(=O)c1c2c(n(C)c1C)-c1nc(Nc3ccc(N4CCC(N5CCCC5)CC4)cc3OC)ncc1CC2

>  <Name>  (280) 
nan

>  <Pocket>  (280) 
nan

>  <ATP_Site>  (280) 
nan

>  <Peripheral>  (280) 
nan

>  <Num_H_Atoms_ProtBoundConf>  (280) 
nan

>  <Num_Resolved_Atoms>  (280) 
nan

>  <Num_Not_Resolved_Atoms>  (280) 
nan

$$$$
CHEMBL3732676
     RDKit          3D

  0  0  0  0  0  0  0  0  0  0999 V3000
M  V30 BEGIN CTAB
M  V30 COUNTS 55 59 0 0 0
M  V30 BEGIN ATOM
M  V30 1 C 8.179321 -3.610747 2.471347 0
M  V30 2 C 7.016978 -2.864350 3.049930 0
M  V30 3 N 5.810059 -2.830504 2.417345 0
M  V30 4 C 4.954113 -2.083122 3.172526 0
M  V30 5 C 3.592619 -1.912562 2.678706 0
M  V30 6 C 2.436947 -2.319889 3.328509 0
M  V30 7 C 1.189028 -2.112863 2.775677 0
M  V30 8 C 1.035948 -1.482483 1.534314 0
M  V30 9 C -0.349353 -1.337650 1.086654 0 CFG=1
M  V30 10 C -0.467210 -0.705446 -0.260571 0
M  V30 11 N -1.642905 -1.335303 -0.902080 0
M  V30 12 C -2.768794 -0.476673 -1.088741 0
M  V30 13 N -2.552261 0.820758 -0.842577 0
M  V30 14 C -3.499368 1.772408 -0.959207 0
M  V30 15 C -3.123864 3.140128 -0.661620 0
M  V30 16 C -1.832926 3.415208 -0.275494 0
M  V30 17 C -1.396113 4.676813 0.023585 0
M  V30 18 N -2.247753 5.736003 -0.052234 0
M  V30 19 C -3.538195 5.537446 -0.427195 0
M  V30 20 C -3.924845 4.247933 -0.716847 0
M  V30 21 F -5.194992 4.100865 -1.079423 0
M  V30 22 C -4.718441 1.309579 -1.353619 0
M  V30 23 C -5.009497 -0.003182 -1.621373 0
M  V30 24 O -6.147941 -0.369564 -1.980150 0
M  V30 25 N -3.991071 -0.875136 -1.473728 0
M  V30 26 C -4.272351 -2.270806 -1.726847 0
M  V30 27 C -1.311011 -2.697366 -1.186803 0
M  V30 28 C -1.208049 -3.408747 0.147502 0
M  V30 29 N -1.172201 -2.511630 1.252217 0
M  V30 30 C 2.216528 -1.102510 0.941089 0
M  V30 31 C 3.475022 -1.291091 1.459371 0
M  V30 32 N 5.666169 -1.696045 4.223030 0
M  V30 33 O 6.876943 -2.157811 4.145591 0
M  V30 34 H 9.034680 -3.591497 3.179679 0
M  V30 35 H 7.886386 -4.640543 2.207612 0
M  V30 36 H 8.524931 -3.069896 1.562194 0
M  V30 37 H 2.661386 -2.795270 4.277452 0
M  V30 38 H 0.438130 -2.506762 3.455850 0
M  V30 39 H -0.811681 -0.587128 1.808533 0
M  V30 40 H -0.602046 0.394048 -0.172071 0
M  V30 41 H 0.390042 -0.957843 -0.916176 0
M  V30 42 H -1.046991 2.709499 -0.167264 0
M  V30 43 H -0.418517 4.964539 0.327611 0
M  V30 44 H -4.220811 6.373380 -0.489701 0
M  V30 45 H -5.535096 1.997278 -1.473755 0
M  V30 46 H -3.927171 -2.923924 -0.910510 0
M  V30 47 H -3.951341 -2.520516 -2.737078 0
M  V30 48 H -5.392949 -2.407550 -1.735618 0
M  V30 49 H -1.887150 -3.214544 -1.944527 0
M  V30 50 H -0.252628 -2.702615 -1.615966 0
M  V30 51 H -0.384047 -4.157990 0.121436 0
M  V30 52 H -2.138019 -4.018560 0.254881 0
M  V30 53 H -0.952222 -3.031544 2.099136 0
M  V30 54 H 2.122032 -0.610984 -0.013663 0
M  V30 55 H 4.327630 -0.944175 0.890310 0
M  V30 END ATOM
M  V30 BEGIN BOND
M  V30 1 1 1 2
M  V30 2 2 2 3
M  V30 3 1 3 4
M  V30 4 1 4 5
M  V30 5 2 5 6
M  V30 6 1 6 7
M  V30 7 2 7 8
M  V30 8 1 8 9
M  V30 9 1 9 10
M  V30 10 1 10 11
M  V30 11 1 11 12
M  V30 12 2 12 13
M  V30 13 1 13 14
M  V30 14 1 14 15
M  V30 15 2 15 16
M  V30 16 1 16 17
M  V30 17 2 17 18
M  V30 18 1 18 19
M  V30 19 2 19 20
M  V30 20 1 20 21
M  V30 21 2 14 22
M  V30 22 1 22 23
M  V30 23 2 23 24
M  V30 24 1 23 25
M  V30 25 1 25 26
M  V30 26 1 11 27
M  V30 27 1 27 28
M  V30 28 1 28 29
M  V30 29 1 8 30
M  V30 30 2 30 31
M  V30 31 2 4 32
M  V30 32 1 32 33
M  V30 33 1 33 2
M  V30 34 1 31 5
M  V30 35 1 29 9
M  V30 36 1 25 12
M  V30 37 1 20 15
M  V30 38 1 1 34
M  V30 39 1 1 35
M  V30 40 1 1 36
M  V30 41 1 6 37
M  V30 42 1 7 38
M  V30 43 1 9 39 CFG=1
M  V30 44 1 10 40
M  V30 45 1 10 41
M  V30 46 1 16 42
M  V30 47 1 17 43
M  V30 48 1 19 44
M  V30 49 1 22 45
M  V30 50 1 26 46
M  V30 51 1 26 47
M  V30 52 1 26 48
M  V30 53 1 27 49
M  V30 54 1 27 50
M  V30 55 1 28 51
M  V30 56 1 28 52
M  V30 57 1 29 53
M  V30 58 1 30 54
M  V30 59 1 31 55
M  V30 END BOND
M  V30 END CTAB
M  END
>  <Dataset>  (281) 
ChEMBL_Kinases

>  <Ligand_Instance>  (281) 
nan

>  <PDB_ID>  (281) 
nan

>  <Standardized_SMILES>  (281) 
Cc1nc(-c2ccc([C@H]3CN(c4nc(-c5ccncc5F)cc(=O)n4C)CCN3)cc2)no1

>  <Name>  (281) 
nan

>  <Pocket>  (281) 
nan

>  <ATP_Site>  (281) 
nan

>  <Peripheral>  (281) 
nan

>  <Num_H_Atoms_ProtBoundConf>  (281) 
nan

>  <Num_Resolved_Atoms>  (281) 
nan

>  <Num_Not_Resolved_Atoms>  (281) 
nan

$$$$
CHEMBL521871
     RDKit          3D

  0  0  0  0  0  0  0  0  0  0999 V3000
M  V30 BEGIN CTAB
M  V30 COUNTS 66 70 0 0 0
M  V30 BEGIN ATOM
M  V30 1 C 4.148445 -3.752764 5.073666 0
M  V30 2 N 4.242301 -4.014445 3.674427 0
M  V30 3 C 4.896406 -5.218018 3.324538 0
M  V30 4 C 4.346440 -2.898262 2.816522 0
M  V30 5 C 4.407782 -3.362355 1.387529 0
M  V30 6 O 5.511845 -4.152363 1.200628 0
M  V30 7 C 4.274414 -2.224239 0.399314 0
M  V30 8 O 3.158227 -1.436911 0.635256 0
M  V30 9 C 2.782865 -0.340648 -0.118492 0
M  V30 10 C 3.554844 0.035856 -1.234945 0
M  V30 11 C 3.146204 1.140445 -1.959992 0
M  V30 12 C 1.998903 1.864003 -1.596572 0
M  V30 13 N 1.658761 3.009272 -2.360734 0
M  V30 14 C 0.463001 3.781268 -2.297250 0
M  V30 15 N 0.361399 5.027306 -2.779968 0
M  V30 16 C -0.779695 5.732815 -2.753244 0
M  V30 17 C -1.896094 5.152669 -2.207666 0
M  V30 18 C -1.835336 3.870749 -1.700968 0
M  V30 19 C -3.081541 3.322474 -1.181376 0
M  V30 20 C -4.294035 3.940638 -0.980571 0
M  V30 21 N -5.174839 3.044678 -0.511595 0
M  V30 22 N -4.612184 1.847462 -0.385014 0
M  V30 23 N -5.083306 0.685798 0.024173 0
M  V30 24 C -4.337524 -0.406422 0.065881 0
M  V30 25 N -4.737565 -1.708710 0.470817 0
M  V30 26 C -3.923441 -2.870308 0.762940 0
M  V30 27 C -4.283260 -3.289137 2.195849 0
M  V30 28 O -5.571802 -3.755207 2.191257 0
M  V30 29 C -6.334080 -3.448517 1.099378 0
M  V30 30 C -6.157942 -2.024924 0.623976 0
M  V30 31 C -3.018042 -0.364273 -0.324091 0
M  V30 32 C -2.530257 0.869048 -0.755441 0
M  V30 33 C -3.317527 2.002899 -0.795477 0
M  V30 34 N -0.644565 3.231776 -1.766491 0
M  V30 35 C 1.282778 1.450013 -0.494789 0
M  V30 36 C 1.662308 0.357494 0.245246 0
M  V30 37 H 3.052605 -3.568872 5.283636 0
M  V30 38 H 4.689236 -2.885525 5.443209 0
M  V30 39 H 4.391594 -4.655561 5.659220 0
M  V30 40 H 4.358956 -5.689101 2.463738 0
M  V30 41 H 4.689600 -5.951334 4.170072 0
M  V30 42 H 5.990528 -5.180169 3.206077 0
M  V30 43 H 3.455253 -2.224783 2.889927 0
M  V30 44 H 5.213382 -2.228157 3.040601 0
M  V30 45 H 3.507118 -4.043773 1.265359 0
M  V30 46 H 5.507164 -4.604502 0.305109 0
M  V30 47 H 4.360802 -2.629547 -0.623477 0
M  V30 48 H 5.222328 -1.624890 0.534440 0
M  V30 49 H 4.438539 -0.510937 -1.527376 0
M  V30 50 H 3.775713 1.402502 -2.828213 0
M  V30 51 H 2.307065 3.354500 -3.097481 0
M  V30 52 H -0.645691 6.722829 -3.193214 0
M  V30 53 H -2.768747 5.789773 -2.229366 0
M  V30 54 H -4.486527 4.981302 -1.173820 0
M  V30 55 H -4.153105 -3.712395 0.069456 0
M  V30 56 H -2.830386 -2.660603 0.792382 0
M  V30 57 H -3.612007 -4.141474 2.429622 0
M  V30 58 H -4.131607 -2.424881 2.860096 0
M  V30 59 H -7.391114 -3.585995 1.377450 0
M  V30 60 H -6.123091 -4.184360 0.284661 0
M  V30 61 H -6.681566 -1.942577 -0.352604 0
M  V30 62 H -6.604740 -1.351609 1.373942 0
M  V30 63 H -2.248347 -1.124326 -0.368276 0
M  V30 64 H -1.519193 1.020521 -1.091058 0
M  V30 65 H 0.416819 1.954166 -0.153989 0
M  V30 66 H 1.092311 0.026316 1.120391 0
M  V30 END ATOM
M  V30 BEGIN BOND
M  V30 1 1 1 2
M  V30 2 1 2 3
M  V30 3 1 2 4
M  V30 4 1 4 5
M  V30 5 1 5 6
M  V30 6 1 5 7
M  V30 7 1 7 8
M  V30 8 1 8 9
M  V30 9 2 9 10
M  V30 10 1 10 11
M  V30 11 2 11 12
M  V30 12 1 12 13
M  V30 13 1 13 14
M  V30 14 2 14 15
M  V30 15 1 15 16
M  V30 16 2 16 17
M  V30 17 1 17 18
M  V30 18 1 18 19
M  V30 19 1 19 20
M  V30 20 2 20 21
M  V30 21 1 21 22
M  V30 22 1 22 23
M  V30 23 2 23 24
M  V30 24 1 24 25
M  V30 25 1 25 26
M  V30 26 1 26 27
M  V30 27 1 27 28
M  V30 28 1 28 29
M  V30 29 1 29 30
M  V30 30 1 24 31
M  V30 31 2 31 32
M  V30 32 1 32 33
M  V30 33 2 18 34
M  V30 34 1 12 35
M  V30 35 2 35 36
M  V30 36 1 36 9
M  V30 37 1 34 14
M  V30 38 2 33 19
M  V30 39 1 33 22
M  V30 40 1 30 25
M  V30 41 1 1 37
M  V30 42 1 1 38
M  V30 43 1 1 39
M  V30 44 1 3 40
M  V30 45 1 3 41
M  V30 46 1 3 42
M  V30 47 1 4 43
M  V30 48 1 4 44
M  V30 49 1 5 45
M  V30 50 1 6 46
M  V30 51 1 7 47
M  V30 52 1 7 48
M  V30 53 1 10 49
M  V30 54 1 11 50
M  V30 55 1 13 51
M  V30 56 1 16 52
M  V30 57 1 17 53
M  V30 58 1 20 54
M  V30 59 1 26 55
M  V30 60 1 26 56
M  V30 61 1 27 57
M  V30 62 1 27 58
M  V30 63 1 29 59
M  V30 64 1 29 60
M  V30 65 1 30 61
M  V30 66 1 30 62
M  V30 67 1 31 63
M  V30 68 1 32 64
M  V30 69 1 35 65
M  V30 70 1 36 66
M  V30 END BOND
M  V30 END CTAB
M  END
>  <Dataset>  (282) 
ChEMBL_Kinases

>  <Ligand_Instance>  (282) 
nan

>  <PDB_ID>  (282) 
nan

>  <Standardized_SMILES>  (282) 
CN(C)CC(O)COc1ccc(Nc2nccc(-c3cnn4nc(N5CCOCC5)ccc34)n2)cc1

>  <Name>  (282) 
nan

>  <Pocket>  (282) 
nan

>  <ATP_Site>  (282) 
nan

>  <Peripheral>  (282) 
nan

>  <Num_H_Atoms_ProtBoundConf>  (282) 
nan

>  <Num_Resolved_Atoms>  (282) 
nan

>  <Num_Not_Resolved_Atoms>  (282) 
nan

$$$$
CHEMBL521910
     RDKit          3D

  0  0  0  0  0  0  0  0  0  0999 V3000
M  V30 BEGIN CTAB
M  V30 COUNTS 50 54 0 0 0
M  V30 BEGIN ATOM
M  V30 1 F 0.281129 -7.970028 1.841244 0
M  V30 2 C 0.228185 -6.614865 1.678417 0
M  V30 3 C 0.258436 -5.806416 2.796303 0
M  V30 4 C 0.205406 -4.427287 2.653878 0
M  V30 5 C 0.123092 -3.891447 1.387916 0
M  V30 6 C 0.058076 -2.482843 0.987161 0
M  V30 7 N 1.040082 -1.561363 1.208690 0
M  V30 8 C 0.623255 -0.369733 0.693670 0
M  V30 9 C 1.171578 0.894684 0.616585 0
M  V30 10 C 0.530099 1.963712 0.026163 0
M  V30 11 C 1.117301 3.330796 -0.059379 0
M  V30 12 C 1.200568 3.878887 1.360641 0
M  V30 13 C 1.982970 5.181003 1.389594 0
M  V30 14 N 3.346716 4.979871 0.932584 0
M  V30 15 C 3.528437 3.644773 0.400304 0
M  V30 16 C 2.500466 3.341234 -0.635786 0
M  V30 17 C -0.735364 1.667742 -0.496431 0
M  V30 18 C -1.335329 0.426884 -0.450100 0
M  V30 19 C -0.627406 -0.589924 0.158145 0
M  V30 20 C -1.027295 -1.903387 0.317703 0
M  V30 21 C -2.218028 -2.618139 -0.055674 0
M  V30 22 C -2.908186 -3.119649 1.048222 0
M  V30 23 C -4.087216 -3.839661 0.892660 0
M  V30 24 N -4.574802 -4.058681 -0.347367 0
M  V30 25 C -3.927147 -3.585319 -1.424849 0
M  V30 26 C -2.747147 -2.862283 -1.304734 0
M  V30 27 C 0.094684 -4.740239 0.272840 0
M  V30 28 C 0.146548 -6.134033 0.389189 0
M  V30 29 H 0.322853 -6.184529 3.800370 0
M  V30 30 H 0.219958 -3.693028 3.432380 0
M  V30 31 H 1.947915 -1.739485 1.687032 0
M  V30 32 H 2.142799 1.035590 1.039466 0
M  V30 33 H 0.392081 3.933796 -0.655328 0
M  V30 34 H 1.694450 3.179872 2.058461 0
M  V30 35 H 0.172075 4.131838 1.735011 0
M  V30 36 H 1.453206 5.987470 0.848316 0
M  V30 37 H 2.037362 5.493043 2.452923 0
M  V30 38 H 4.049284 5.175518 1.687412 0
M  V30 39 H 4.562009 3.589000 -0.033000 0
M  V30 40 H 3.546354 2.970649 1.268395 0
M  V30 41 H 2.538920 4.159666 -1.387258 0
M  V30 42 H 2.721864 2.417911 -1.214374 0
M  V30 43 H -1.269899 2.498525 -0.971905 0
M  V30 44 H -2.320134 0.287747 -0.880441 0
M  V30 45 H -2.637221 -3.023156 2.106652 0
M  V30 46 H -4.663288 -4.251917 1.718939 0
M  V30 47 H -4.257195 -3.721146 -2.449602 0
M  V30 48 H -2.157030 -2.443060 -2.112881 0
M  V30 49 H 0.030983 -4.401690 -0.773693 0
M  V30 50 H 0.125069 -6.778344 -0.465200 0
M  V30 END ATOM
M  V30 BEGIN BOND
M  V30 1 1 1 2
M  V30 2 2 2 3
M  V30 3 1 3 4
M  V30 4 2 4 5
M  V30 5 1 5 6
M  V30 6 1 6 7
M  V30 7 1 7 8
M  V30 8 2 8 9
M  V30 9 1 9 10
M  V30 10 1 10 11
M  V30 11 1 11 12
M  V30 12 1 12 13
M  V30 13 1 13 14
M  V30 14 1 14 15
M  V30 15 1 15 16
M  V30 16 2 10 17
M  V30 17 1 17 18
M  V30 18 2 18 19
M  V30 19 1 19 20
M  V30 20 1 20 21
M  V30 21 2 21 22
M  V30 22 1 22 23
M  V30 23 2 23 24
M  V30 24 1 24 25
M  V30 25 2 25 26
M  V30 26 1 5 27
M  V30 27 2 27 28
M  V30 28 1 28 2
M  V30 29 2 20 6
M  V30 30 1 26 21
M  V30 31 1 19 8
M  V30 32 1 16 11
M  V30 33 1 3 29
M  V30 34 1 4 30
M  V30 35 1 7 31
M  V30 36 1 9 32
M  V30 37 1 11 33
M  V30 38 1 12 34
M  V30 39 1 12 35
M  V30 40 1 13 36
M  V30 41 1 13 37
M  V30 42 1 14 38
M  V30 43 1 15 39
M  V30 44 1 15 40
M  V30 45 1 16 41
M  V30 46 1 16 42
M  V30 47 1 17 43
M  V30 48 1 18 44
M  V30 49 1 22 45
M  V30 50 1 23 46
M  V30 51 1 25 47
M  V30 52 1 26 48
M  V30 53 1 27 49
M  V30 54 1 28 50
M  V30 END BOND
M  V30 END CTAB
M  END
>  <Dataset>  (283) 
ChEMBL_Kinases

>  <Ligand_Instance>  (283) 
nan

>  <PDB_ID>  (283) 
nan

>  <Standardized_SMILES>  (283) 
Fc1ccc(-c2[nH]c3cc(C4CCNCC4)ccc3c2-c2ccncc2)cc1

>  <Name>  (283) 
nan

>  <Pocket>  (283) 
nan

>  <ATP_Site>  (283) 
nan

>  <Peripheral>  (283) 
nan

>  <Num_H_Atoms_ProtBoundConf>  (283) 
nan

>  <Num_Resolved_Atoms>  (283) 
nan

>  <Num_Not_Resolved_Atoms>  (283) 
nan

$$$$
CHEMBL521949
     RDKit          3D

  0  0  0  0  0  0  0  0  0  0999 V3000
M  V30 BEGIN CTAB
M  V30 COUNTS 49 52 0 0 0
M  V30 BEGIN ATOM
M  V30 1 O 3.739298 2.398790 0.389768 0
M  V30 2 C 3.172959 1.293006 0.468313 0
M  V30 3 N 3.825955 0.152289 -0.020774 0
M  V30 4 C 5.101196 0.031996 -0.621508 0
M  V30 5 C 6.031391 1.010524 -0.819010 0
M  V30 6 C 7.266239 0.889813 -1.409506 0
M  V30 7 C 7.594845 -0.369925 -1.851071 0
M  V30 8 C 6.712922 -1.416195 -1.691498 0
M  V30 9 C 5.490110 -1.205163 -1.085301 0
M  V30 10 Cl 4.456373 -2.600761 -0.941969 0
M  V30 11 C 1.852690 1.301258 1.077983 0
M  V30 12 C 1.269630 2.531047 1.410335 0
M  V30 13 C 0.005410 2.601176 2.008259 0
M  V30 14 C -0.717724 1.434889 2.293694 0
M  V30 15 N -2.016545 1.449993 2.886954 0
M  V30 16 C -2.492357 0.181785 3.374147 0
M  V30 17 N -3.029443 -0.736200 2.565604 0
M  V30 18 C -3.493149 -1.930271 2.902735 0
M  V30 19 N -4.055299 -2.927315 2.069574 0
M  V30 20 C -4.257316 -2.843337 0.675052 0
M  V30 21 C -4.044930 -1.719768 -0.115286 0
M  V30 22 C -4.274427 -1.775893 -1.472088 0
M  V30 23 C -4.714793 -2.902334 -2.128876 0
M  V30 24 O -4.930574 -2.909223 -3.494100 0
M  V30 25 C -4.927326 -4.018137 -1.354344 0
M  V30 26 C -4.705716 -3.983543 -0.004013 0
M  V30 27 N -3.387616 -2.202820 4.236258 0
M  V30 28 C -2.863064 -1.340202 5.117951 0
M  V30 29 C -2.397533 -0.115906 4.709733 0
M  V30 30 F -1.854372 0.824118 5.516727 0
M  V30 31 C -0.116609 0.222732 1.954136 0
M  V30 32 C 1.125847 0.170302 1.366890 0
M  V30 33 H 3.243633 -0.705624 0.098584 0
M  V30 34 H 5.798086 2.010155 -0.478765 0
M  V30 35 H 7.938776 1.737502 -1.518825 0
M  V30 36 H 8.549678 -0.536578 -2.324981 0
M  V30 37 H 7.008260 -2.389260 -2.052690 0
M  V30 38 H 1.746694 3.484177 1.231519 0
M  V30 39 H -0.430468 3.558484 2.256879 0
M  V30 40 H -2.526287 2.369997 2.925746 0
M  V30 41 H -4.352562 -3.817095 2.528938 0
M  V30 42 H -3.704224 -0.810520 0.341817 0
M  V30 43 H -4.088926 -0.862501 -2.025565 0
M  V30 44 H -5.875108 -2.723489 -3.870489 0
M  V30 45 H -5.274476 -4.914983 -1.856206 0
M  V30 46 H -4.899815 -4.905916 0.513338 0
M  V30 47 H -2.793207 -1.583433 6.171351 0
M  V30 48 H -0.638380 -0.702388 2.155557 0
M  V30 49 H 1.525156 -0.812701 1.134619 0
M  V30 END ATOM
M  V30 BEGIN BOND
M  V30 1 2 1 2
M  V30 2 1 2 3
M  V30 3 1 3 4
M  V30 4 2 4 5
M  V30 5 1 5 6
M  V30 6 2 6 7
M  V30 7 1 7 8
M  V30 8 2 8 9
M  V30 9 1 9 10
M  V30 10 1 2 11
M  V30 11 2 11 12
M  V30 12 1 12 13
M  V30 13 2 13 14
M  V30 14 1 14 15
M  V30 15 1 15 16
M  V30 16 2 16 17
M  V30 17 1 17 18
M  V30 18 1 18 19
M  V30 19 1 19 20
M  V30 20 2 20 21
M  V30 21 1 21 22
M  V30 22 2 22 23
M  V30 23 1 23 24
M  V30 24 1 23 25
M  V30 25 2 25 26
M  V30 26 2 18 27
M  V30 27 1 27 28
M  V30 28 2 28 29
M  V30 29 1 29 30
M  V30 30 1 14 31
M  V30 31 2 31 32
M  V30 32 1 9 4
M  V30 33 1 32 11
M  V30 34 1 29 16
M  V30 35 1 26 20
M  V30 36 1 3 33
M  V30 37 1 5 34
M  V30 38 1 6 35
M  V30 39 1 7 36
M  V30 40 1 8 37
M  V30 41 1 12 38
M  V30 42 1 13 39
M  V30 43 1 15 40
M  V30 44 1 19 41
M  V30 45 1 21 42
M  V30 46 1 22 43
M  V30 47 1 24 44
M  V30 48 1 25 45
M  V30 49 1 26 46
M  V30 50 1 28 47
M  V30 51 1 31 48
M  V30 52 1 32 49
M  V30 END BOND
M  V30 END CTAB
M  END
>  <Dataset>  (284) 
ChEMBL_Kinases

>  <Ligand_Instance>  (284) 
nan

>  <PDB_ID>  (284) 
nan

>  <Standardized_SMILES>  (284) 
O=C(Nc1ccccc1Cl)c1ccc(Nc2nc(Nc3ccc(O)cc3)ncc2F)cc1

>  <Name>  (284) 
nan

>  <Pocket>  (284) 
nan

>  <ATP_Site>  (284) 
nan

>  <Peripheral>  (284) 
nan

>  <Num_H_Atoms_ProtBoundConf>  (284) 
nan

>  <Num_Resolved_Atoms>  (284) 
nan

>  <Num_Not_Resolved_Atoms>  (284) 
nan

$$$$
CHEMBL3703177
     RDKit          3D

  0  0  0  0  0  0  0  0  0  0999 V3000
M  V30 BEGIN CTAB
M  V30 COUNTS 65 69 0 0 0
M  V30 BEGIN ATOM
M  V30 1 C 1.602469 -1.324943 6.120841 0
M  V30 2 O 0.595576 -0.845790 5.252795 0
M  V30 3 C 0.972244 -0.308211 4.038512 0
M  V30 4 C 2.272906 -0.210089 3.605589 0
M  V30 5 C 2.577500 0.340717 2.382813 0
M  V30 6 N 3.895836 0.413967 1.857522 0
M  V30 7 C 4.804350 1.413421 1.331381 0
M  V30 8 C 5.145665 0.993950 -0.091448 0
M  V30 9 N 4.299627 -0.074324 -0.546937 0
M  V30 10 C 4.663544 -0.413311 -1.902224 0
M  V30 11 C 4.354579 -1.267988 0.269015 0
M  V30 12 C 4.527967 -0.915121 1.763017 0
M  V30 13 C 1.567602 0.822207 1.535391 0
M  V30 14 C 0.241913 0.723922 1.969343 0
M  V30 15 C -0.029965 0.164212 3.202870 0
M  V30 16 N -1.405175 0.052465 3.585435 0
M  V30 17 C -2.447171 0.515421 2.735588 0
M  V30 18 N -3.385168 1.508531 2.773041 0
M  V30 19 C -4.242120 1.703121 1.780210 0
M  V30 20 C -4.256618 0.929780 0.643919 0
M  V30 21 C -3.306515 -0.081023 0.597962 0
M  V30 22 N -2.435937 -0.260251 1.632928 0
M  V30 23 C -3.321309 -0.909566 -0.625111 0
M  V30 24 C -4.224779 -0.663625 -1.611075 0
M  V30 25 C -3.998219 -1.563211 -2.640150 0
M  V30 26 C -4.716322 -1.669904 -3.890940 0
M  V30 27 N -4.411271 -2.625786 -4.875795 0
M  V30 28 O -5.654679 -0.893180 -4.138993 0
M  V30 29 C -2.919741 -2.334084 -2.188268 0
M  V30 30 C -2.327348 -3.443153 -2.998998 0
M  V30 31 N -2.506161 -1.937408 -0.960194 0
M  V30 32 C -1.439463 -2.456759 -0.147859 0
M  V30 33 C -5.272963 0.376200 -1.570434 0
M  V30 34 C -5.250558 1.260287 -0.378945 0
M  V30 35 H 2.432272 -0.566329 6.158518 0
M  V30 36 H 2.073280 -2.252504 5.788036 0
M  V30 37 H 1.223979 -1.392362 7.176918 0
M  V30 38 H 3.080648 -0.572658 4.234499 0
M  V30 39 H 4.434536 2.439565 1.415065 0
M  V30 40 H 5.764626 1.310256 1.918003 0
M  V30 41 H 4.924715 1.886492 -0.729125 0
M  V30 42 H 6.197285 0.643728 -0.172414 0
M  V30 43 H 4.851868 -1.494975 -1.963033 0
M  V30 44 H 5.551751 0.174908 -2.220621 0
M  V30 45 H 3.776225 -0.160031 -2.550770 0
M  V30 46 H 3.348031 -1.736397 0.197165 0
M  V30 47 H 5.087260 -2.004465 -0.072741 0
M  V30 48 H 5.611495 -0.882316 1.975939 0
M  V30 49 H 4.004402 -1.689088 2.328368 0
M  V30 50 H 1.794248 1.259214 0.572438 0
M  V30 51 H -0.507605 1.105046 1.286550 0
M  V30 52 H -1.703073 -0.369941 4.498295 0
M  V30 53 H -4.903392 2.546343 2.012209 0
M  V30 54 H -3.817134 -3.027335 -5.613381 0
M  V30 55 H -5.180792 -3.353063 -4.924666 0
M  V30 56 H -3.089451 -4.043841 -3.508356 0
M  V30 57 H -1.683588 -4.043260 -2.318594 0
M  V30 58 H -1.630754 -3.039865 -3.782950 0
M  V30 59 H -0.516177 -1.898071 -0.429897 0
M  V30 60 H -1.319940 -3.536148 -0.392236 0
M  V30 61 H -1.649136 -2.406231 0.919769 0
M  V30 62 H -6.291974 -0.112603 -1.650905 0
M  V30 63 H -5.188714 0.972350 -2.495750 0
M  V30 64 H -5.060521 2.332837 -0.670962 0
M  V30 65 H -6.265730 1.282468 0.108621 0
M  V30 END ATOM
M  V30 BEGIN BOND
M  V30 1 1 1 2
M  V30 2 1 2 3
M  V30 3 2 3 4
M  V30 4 1 4 5
M  V30 5 1 5 6
M  V30 6 1 6 7
M  V30 7 1 7 8
M  V30 8 1 8 9
M  V30 9 1 9 10
M  V30 10 1 9 11
M  V30 11 1 11 12
M  V30 12 2 5 13
M  V30 13 1 13 14
M  V30 14 2 14 15
M  V30 15 1 15 16
M  V30 16 1 16 17
M  V30 17 2 17 18
M  V30 18 1 18 19
M  V30 19 2 19 20
M  V30 20 1 20 21
M  V30 21 2 21 22
M  V30 22 1 21 23
M  V30 23 2 23 24
M  V30 24 1 24 25
M  V30 25 1 25 26
M  V30 26 1 26 27
M  V30 27 2 26 28
M  V30 28 2 25 29
M  V30 29 1 29 30
M  V30 30 1 29 31
M  V30 31 1 31 32
M  V30 32 1 24 33
M  V30 33 1 33 34
M  V30 34 1 15 3
M  V30 35 1 22 17
M  V30 36 1 31 23
M  V30 37 1 12 6
M  V30 38 1 34 20
M  V30 39 1 1 35
M  V30 40 1 1 36
M  V30 41 1 1 37
M  V30 42 1 4 38
M  V30 43 1 7 39
M  V30 44 1 7 40
M  V30 45 1 8 41
M  V30 46 1 8 42
M  V30 47 1 10 43
M  V30 48 1 10 44
M  V30 49 1 10 45
M  V30 50 1 11 46
M  V30 51 1 11 47
M  V30 52 1 12 48
M  V30 53 1 12 49
M  V30 54 1 13 50
M  V30 55 1 14 51
M  V30 56 1 16 52
M  V30 57 1 19 53
M  V30 58 1 27 54
M  V30 59 1 27 55
M  V30 60 1 30 56
M  V30 61 1 30 57
M  V30 62 1 30 58
M  V30 63 1 32 59
M  V30 64 1 32 60
M  V30 65 1 32 61
M  V30 66 1 33 62
M  V30 67 1 33 63
M  V30 68 1 34 64
M  V30 69 1 34 65
M  V30 END BOND
M  V30 END CTAB
M  END
>  <Dataset>  (285) 
ChEMBL_Kinases

>  <Ligand_Instance>  (285) 
nan

>  <PDB_ID>  (285) 
nan

>  <Standardized_SMILES>  (285) 
COc1cc(N2CCN(C)CC2)ccc1Nc1ncc2c(n1)-c1c(c(C(N)=O)c(C)n1C)CC2

>  <Name>  (285) 
nan

>  <Pocket>  (285) 
nan

>  <ATP_Site>  (285) 
nan

>  <Peripheral>  (285) 
nan

>  <Num_H_Atoms_ProtBoundConf>  (285) 
nan

>  <Num_Resolved_Atoms>  (285) 
nan

>  <Num_Not_Resolved_Atoms>  (285) 
nan

$$$$
CHEMBL574600
     RDKit          3D

  0  0  0  0  0  0  0  0  0  0999 V3000
M  V30 BEGIN CTAB
M  V30 COUNTS 38 41 0 0 0
M  V30 BEGIN ATOM
M  V30 1 C -1.330985 -6.339339 1.392520 0
M  V30 2 C -0.188581 -5.488109 1.823593 0
M  V30 3 N -0.306912 -4.217566 2.249332 0
M  V30 4 C 0.883815 -3.694786 2.572457 0
M  V30 5 C 0.887083 -2.303125 3.054641 0
M  V30 6 C 1.088128 -2.051086 4.377525 0
M  V30 7 C 1.094316 -0.753016 4.846650 0
M  V30 8 C 0.891014 0.283577 3.937700 0
M  V30 9 O 0.845104 1.575789 4.083752 0
M  V30 10 C 0.627364 2.177333 2.941357 0
M  V30 11 C 0.516264 1.210382 1.935513 0
M  V30 12 C 0.272468 1.392430 0.493217 0
M  V30 13 C -0.744022 2.313017 0.218874 0
M  V30 14 C -1.058557 2.563117 -1.100890 0
M  V30 15 C -0.367500 1.903441 -2.115826 0
M  V30 16 S -0.771545 2.225359 -3.788378 0 CHG=1 VAL=3
M  V30 17 C 0.174993 3.553164 -4.459712 0
M  V30 18 O -0.384373 0.830270 -4.672054 0 CHG=-1 VAL=1
M  V30 19 C 0.632924 0.997984 -1.825228 0
M  V30 20 C 0.958285 0.737894 -0.509114 0
M  V30 21 C 0.689576 -0.003814 2.600652 0
M  V30 22 C 0.682392 -1.300947 2.125700 0
M  V30 23 N 1.758130 -4.709707 2.325458 0
M  V30 24 O 1.096333 -5.717595 1.897527 0
M  V30 25 H -1.993091 -6.424965 2.273684 0
M  V30 26 H -1.932324 -5.815728 0.593714 0
M  V30 27 H -1.002756 -7.300992 0.997518 0
M  V30 28 H 1.242954 -2.896540 5.051132 0
M  V30 29 H 1.254776 -0.533678 5.908546 0
M  V30 30 H 0.522567 3.216060 2.640283 0
M  V30 31 H -1.296654 2.839163 0.981208 0
M  V30 32 H -1.831463 3.260546 -1.400330 0
M  V30 33 H 0.293289 4.303291 -3.625680 0
M  V30 34 H 1.208598 3.281532 -4.732652 0
M  V30 35 H -0.345524 4.089764 -5.267300 0
M  V30 36 H 1.154049 0.499550 -2.625096 0
M  V30 37 H 1.724527 0.046385 -0.215430 0
M  V30 38 H 0.530058 -1.570189 1.097314 0
M  V30 END ATOM
M  V30 BEGIN BOND
M  V30 1 1 1 2
M  V30 2 2 2 3
M  V30 3 1 3 4
M  V30 4 1 4 5
M  V30 5 2 5 6
M  V30 6 1 6 7
M  V30 7 2 7 8
M  V30 8 1 8 9
M  V30 9 1 9 10
M  V30 10 2 10 11
M  V30 11 1 11 12
M  V30 12 2 12 13
M  V30 13 1 13 14
M  V30 14 2 14 15
M  V30 15 1 15 16
M  V30 16 1 16 17
M  V30 17 1 16 18
M  V30 18 1 15 19
M  V30 19 2 19 20
M  V30 20 1 11 21
M  V30 21 2 21 22
M  V30 22 2 4 23
M  V30 23 1 23 24
M  V30 24 1 24 2
M  V30 25 1 22 5
M  V30 26 1 21 8
M  V30 27 1 20 12
M  V30 28 1 1 25
M  V30 29 1 1 26
M  V30 30 1 1 27
M  V30 31 1 6 28
M  V30 32 1 7 29
M  V30 33 1 10 30
M  V30 34 1 13 31
M  V30 35 1 14 32
M  V30 36 1 17 33
M  V30 37 1 17 34
M  V30 38 1 17 35
M  V30 39 1 19 36
M  V30 40 1 20 37
M  V30 41 1 22 38
M  V30 END BOND
M  V30 END CTAB
M  END
>  <Dataset>  (286) 
ChEMBL_Kinases

>  <Ligand_Instance>  (286) 
nan

>  <PDB_ID>  (286) 
nan

>  <Standardized_SMILES>  (286) 
Cc1nc(-c2ccc3occ(-c4ccc([S+](C)[O-])cc4)c3c2)no1

>  <Name>  (286) 
nan

>  <Pocket>  (286) 
nan

>  <ATP_Site>  (286) 
nan

>  <Peripheral>  (286) 
nan

>  <Num_H_Atoms_ProtBoundConf>  (286) 
nan

>  <Num_Resolved_Atoms>  (286) 
nan

>  <Num_Not_Resolved_Atoms>  (286) 
nan

$$$$
CHEMBL574591
     RDKit          3D

  0  0  0  0  0  0  0  0  0  0999 V3000
M  V30 BEGIN CTAB
M  V30 COUNTS 40 43 0 0 0
M  V30 BEGIN ATOM
M  V30 1 C 2.318107 -6.705082 -0.073771 0
M  V30 2 C 1.865889 -5.285752 0.016883 0
M  V30 3 C 1.805933 -4.578605 1.194003 0
M  V30 4 C 1.343092 -3.290382 0.917624 0
M  V30 5 C 1.145562 -3.298262 -0.452296 0
M  V30 6 C 0.664462 -2.177859 -1.230459 0
M  V30 7 C 0.498454 -2.279886 -2.596162 0
M  V30 8 C 0.035087 -1.194429 -3.331453 0
M  V30 9 C -0.273991 0.018814 -2.723440 0
M  V30 10 O -0.714835 1.182752 -3.128296 0
M  V30 11 C -0.842871 2.019808 -2.125423 0
M  V30 12 C -0.463869 1.396510 -0.930036 0
M  V30 13 C -0.453606 1.964974 0.416652 0
M  V30 14 C 0.638413 1.760369 1.250499 0
M  V30 15 C 0.696703 2.281201 2.543284 0
M  V30 16 C -0.370431 3.034160 3.026626 0
M  V30 17 S -0.233792 3.657891 4.655373 0 CHG=1 VAL=3
M  V30 18 C -0.910957 2.455847 5.795321 0
M  V30 19 O -1.181735 5.036501 4.770113 0 CHG=-1 VAL=1
M  V30 20 C -1.453152 3.234651 2.194306 0
M  V30 21 C -1.506661 2.717546 0.916027 0
M  V30 22 C -0.102347 0.110818 -1.341638 0
M  V30 23 C 0.356077 -0.972044 -0.634363 0
M  V30 24 O 1.460671 -4.474269 -0.935308 0
M  V30 25 H 3.136412 -6.863763 0.657376 0
M  V30 26 H 1.520690 -7.429203 0.199903 0
M  V30 27 H 2.622183 -6.933073 -1.117946 0
M  V30 28 H 2.059920 -4.900012 2.211111 0
M  V30 29 H 1.186244 -2.492424 1.635280 0
M  V30 30 H 0.741260 -3.235319 -3.079020 0
M  V30 31 H -0.096411 -1.278764 -4.421145 0
M  V30 32 H -1.175981 3.047640 -2.098266 0
M  V30 33 H 1.500528 1.191762 0.953172 0
M  V30 34 H 1.560003 2.108161 3.175979 0
M  V30 35 H -0.053366 1.860704 6.176497 0
M  V30 36 H -1.550940 1.705636 5.246009 0
M  V30 37 H -1.443066 2.948800 6.618073 0
M  V30 38 H -2.246297 3.828358 2.633543 0
M  V30 39 H -2.371260 2.898423 0.300168 0
M  V30 40 H 0.493360 -0.920645 0.421029 0
M  V30 END ATOM
M  V30 BEGIN BOND
M  V30 1 1 1 2
M  V30 2 2 2 3
M  V30 3 1 3 4
M  V30 4 2 4 5
M  V30 5 1 5 6
M  V30 6 2 6 7
M  V30 7 1 7 8
M  V30 8 2 8 9
M  V30 9 1 9 10
M  V30 10 1 10 11
M  V30 11 2 11 12
M  V30 12 1 12 13
M  V30 13 2 13 14
M  V30 14 1 14 15
M  V30 15 2 15 16
M  V30 16 1 16 17
M  V30 17 1 17 18
M  V30 18 1 17 19
M  V30 19 1 16 20
M  V30 20 2 20 21
M  V30 21 1 12 22
M  V30 22 2 22 23
M  V30 23 1 5 24
M  V30 24 1 24 2
M  V30 25 1 23 6
M  V30 26 1 22 9
M  V30 27 1 21 13
M  V30 28 1 1 25
M  V30 29 1 1 26
M  V30 30 1 1 27
M  V30 31 1 3 28
M  V30 32 1 4 29
M  V30 33 1 7 30
M  V30 34 1 8 31
M  V30 35 1 11 32
M  V30 36 1 14 33
M  V30 37 1 15 34
M  V30 38 1 18 35
M  V30 39 1 18 36
M  V30 40 1 18 37
M  V30 41 1 20 38
M  V30 42 1 21 39
M  V30 43 1 23 40
M  V30 END BOND
M  V30 END CTAB
M  END
>  <Dataset>  (287) 
ChEMBL_Kinases

>  <Ligand_Instance>  (287) 
nan

>  <PDB_ID>  (287) 
nan

>  <Standardized_SMILES>  (287) 
Cc1ccc(-c2ccc3occ(-c4ccc([S+](C)[O-])cc4)c3c2)o1

>  <Name>  (287) 
nan

>  <Pocket>  (287) 
nan

>  <ATP_Site>  (287) 
nan

>  <Peripheral>  (287) 
nan

>  <Num_H_Atoms_ProtBoundConf>  (287) 
nan

>  <Num_Resolved_Atoms>  (287) 
nan

>  <Num_Not_Resolved_Atoms>  (287) 
nan

$$$$
CHEMBL3732675
     RDKit          3D

  0  0  0  0  0  0  0  0  0  0999 V3000
M  V30 BEGIN CTAB
M  V30 COUNTS 55 59 0 0 0
M  V30 BEGIN ATOM
M  V30 1 N 1.608876 -2.467793 -2.291474 0
M  V30 2 C 0.794658 -1.679421 -1.371112 0 CFG=2
M  V30 3 C 1.108168 -2.078787 0.031586 0
M  V30 4 N 0.355721 -1.353168 1.045830 0
M  V30 5 C 0.494859 0.045743 1.234193 0
M  V30 6 N 1.318532 0.651736 0.377044 0
M  V30 7 C 1.602268 1.939289 0.288168 0
M  V30 8 C 2.506363 2.556497 -0.657928 0
M  V30 9 C 2.691740 3.923313 -0.624837 0
M  V30 10 C 3.540149 4.565665 -1.502257 0
M  V30 11 N 4.193487 3.817879 -2.405675 0
M  V30 12 C 4.001687 2.496085 -2.422960 0
M  V30 13 C 3.173744 1.779962 -1.583048 0
M  V30 14 N 0.951477 2.679715 1.197916 0
M  V30 15 C 0.108670 2.122891 2.088243 0
M  V30 16 S -0.852965 2.930947 3.356906 0
M  V30 17 C -1.618317 1.374776 3.962803 0
M  V30 18 C -1.085644 0.405975 3.166605 0
M  V30 19 C -0.191718 0.758015 2.184755 0
M  V30 20 C -1.502269 -1.000365 3.487269 0
M  V30 21 C -2.110562 -1.013761 4.872043 0
M  V30 22 C -3.225683 -0.030591 4.991938 0
M  V30 23 C -2.573667 1.343783 5.034970 0
M  V30 24 C -0.667757 -1.790655 -1.699705 0
M  V30 25 C -1.199469 -3.168422 -1.643618 0
M  V30 26 C -1.782744 -3.886510 -0.624564 0
M  V30 27 C -2.194772 -5.183810 -0.840689 0
M  V30 28 C -2.051443 -5.818366 -2.052394 0
M  V30 29 C -1.471811 -5.114912 -3.077584 0
M  V30 30 C -1.050587 -3.808599 -2.880035 0
M  V30 31 H 2.422359 -1.954533 -2.652484 0
M  V30 32 H 1.845943 -3.400996 -1.886188 0
M  V30 33 H 1.082125 -0.625433 -1.580977 0
M  V30 34 H 1.144404 -3.171992 0.181806 0
M  V30 35 H 2.193377 -1.770675 0.213931 0
M  V30 36 H -0.233907 -2.067216 1.499637 0
M  V30 37 H 2.146584 4.486300 0.117810 0
M  V30 38 H 3.625123 5.644403 -1.404209 0
M  V30 39 H 4.577684 1.965252 -3.195896 0
M  V30 40 H 3.070793 0.706127 -1.658271 0
M  V30 41 H -0.575246 -1.637388 3.634762 0
M  V30 42 H -2.225411 -1.416926 2.796407 0
M  V30 43 H -2.517062 -2.006574 5.102000 0
M  V30 44 H -1.318597 -0.810559 5.628146 0
M  V30 45 H -3.816558 -0.168231 5.895913 0
M  V30 46 H -3.863209 -0.046590 4.096858 0
M  V30 47 H -3.363094 2.103893 4.887347 0
M  V30 48 H -2.092826 1.559016 6.008190 0
M  V30 49 H -1.231690 -1.210733 -0.917928 0
M  V30 50 H -0.918934 -1.276548 -2.647537 0
M  V30 51 H -1.854131 -3.308228 0.280507 0
M  V30 52 H -2.644578 -5.666959 0.029232 0
M  V30 53 H -2.397541 -6.843958 -2.157935 0
M  V30 54 H -1.373337 -5.641152 -4.017284 0
M  V30 55 H -0.608180 -3.378345 -3.788977 0
M  V30 END ATOM
M  V30 BEGIN BOND
M  V30 1 1 1 2
M  V30 2 1 2 3
M  V30 3 1 3 4
M  V30 4 1 4 5
M  V30 5 2 5 6
M  V30 6 1 6 7
M  V30 7 1 7 8
M  V30 8 2 8 9
M  V30 9 1 9 10
M  V30 10 2 10 11
M  V30 11 1 11 12
M  V30 12 2 12 13
M  V30 13 2 7 14
M  V30 14 1 14 15
M  V30 15 1 15 16
M  V30 16 1 16 17
M  V30 17 2 17 18
M  V30 18 1 18 19
M  V30 19 1 18 20
M  V30 20 1 20 21
M  V30 21 1 21 22
M  V30 22 1 22 23
M  V30 23 1 2 24
M  V30 24 1 24 25
M  V30 25 2 25 26
M  V30 26 1 26 27
M  V30 27 2 27 28
M  V30 28 1 28 29
M  V30 29 2 29 30
M  V30 30 1 19 5
M  V30 31 1 30 25
M  V30 32 1 13 8
M  V30 33 2 19 15
M  V30 34 1 23 17
M  V30 35 1 1 31
M  V30 36 1 1 32
M  V30 37 1 2 33 CFG=1
M  V30 38 1 3 34
M  V30 39 1 3 35
M  V30 40 1 4 36
M  V30 41 1 9 37
M  V30 42 1 10 38
M  V30 43 1 12 39
M  V30 44 1 13 40
M  V30 45 1 20 41
M  V30 46 1 20 42
M  V30 47 1 21 43
M  V30 48 1 21 44
M  V30 49 1 22 45
M  V30 50 1 22 46
M  V30 51 1 23 47
M  V30 52 1 23 48
M  V30 53 1 24 49
M  V30 54 1 24 50
M  V30 55 1 26 51
M  V30 56 1 27 52
M  V30 57 1 28 53
M  V30 58 1 29 54
M  V30 59 1 30 55
M  V30 END BOND
M  V30 END CTAB
M  END
>  <Dataset>  (288) 
ChEMBL_Kinases

>  <Ligand_Instance>  (288) 
nan

>  <PDB_ID>  (288) 
nan

>  <Standardized_SMILES>  (288) 
N[C@H](CNc1nc(-c2ccncc2)nc2sc3c(c12)CCCC3)Cc1ccccc1

>  <Name>  (288) 
nan

>  <Pocket>  (288) 
nan

>  <ATP_Site>  (288) 
nan

>  <Peripheral>  (288) 
nan

>  <Num_H_Atoms_ProtBoundConf>  (288) 
nan

>  <Num_Resolved_Atoms>  (288) 
nan

>  <Num_Not_Resolved_Atoms>  (288) 
nan

$$$$
CHEMBL3732553
     RDKit          3D

  0  0  0  0  0  0  0  0  0  0999 V3000
M  V30 BEGIN CTAB
M  V30 COUNTS 46 49 0 0 0
M  V30 BEGIN ATOM
M  V30 1 C -1.007254 -6.481813 -0.559951 0
M  V30 2 C -1.652928 -5.594373 0.439420 0
M  V30 3 O -1.841557 -5.757592 1.671382 0
M  V30 4 N -2.175495 -4.333366 0.040578 0
M  V30 5 C -2.807338 -3.449535 0.984146 0
M  V30 6 C -1.869558 -2.360952 1.369256 0
M  V30 7 C -1.203570 -1.721065 0.204574 0
M  V30 8 C -1.470564 -2.348751 -0.960462 0
M  V30 9 S -0.650090 -1.436049 -2.186008 0
M  V30 10 C 0.049101 -0.198530 -1.040548 0
M  V30 11 N 0.838797 0.874139 -1.272948 0
M  V30 12 C 1.244430 1.657362 -0.262229 0
M  V30 13 C 2.088910 2.798065 -0.551536 0
M  V30 14 C 2.506451 3.603978 0.487615 0
M  V30 15 C 3.310304 4.664409 0.088137 0
M  V30 16 N 3.670452 4.914939 -1.188322 0
M  V30 17 C 3.238238 4.099207 -2.173579 0
M  V30 18 C 2.429927 3.012613 -1.871001 0
M  V30 19 N 0.794406 1.261673 0.925653 0
M  V30 20 C 0.025409 0.228557 1.208552 0
M  V30 21 N -0.254165 0.068168 2.593172 0
M  V30 22 C 0.229482 0.968142 3.614036 0
M  V30 23 C 1.734212 0.978021 3.758992 0
M  V30 24 N 2.137923 1.916987 4.820746 0
M  V30 25 C -0.415241 -0.599832 0.203198 0
M  V30 26 C -2.271936 -3.575036 -1.202347 0
M  V30 27 H -0.329751 -7.222943 -0.078296 0
M  V30 28 H -0.352981 -5.898698 -1.244108 0
M  V30 29 H -1.726036 -7.029748 -1.198496 0
M  V30 30 H -3.004321 -4.039623 1.922417 0
M  V30 31 H -3.822779 -3.093472 0.658237 0
M  V30 32 H -1.116139 -2.795992 2.040994 0
M  V30 33 H -2.508452 -1.619603 1.923895 0
M  V30 34 H 2.242201 3.439108 1.516809 0
M  V30 35 H 3.680355 5.348429 0.861346 0
M  V30 36 H 3.529518 4.303418 -3.198202 0
M  V30 37 H 2.090045 2.365540 -2.673150 0
M  V30 38 H -0.805174 -0.685400 3.045627 0
M  V30 39 H -0.073925 2.025854 3.375388 0
M  V30 40 H -0.220607 0.757140 4.584085 0
M  V30 41 H 2.094137 -0.020913 4.097686 0
M  V30 42 H 2.178613 1.276509 2.806717 0
M  V30 43 H 2.877960 1.506075 5.432695 0
M  V30 44 H 2.546071 2.764047 4.362106 0
M  V30 45 H -1.764877 -4.222530 -1.977089 0
M  V30 46 H -3.303906 -3.393032 -1.511284 0
M  V30 END ATOM
M  V30 BEGIN BOND
M  V30 1 1 1 2
M  V30 2 2 2 3
M  V30 3 1 2 4
M  V30 4 1 4 5
M  V30 5 1 5 6
M  V30 6 1 6 7
M  V30 7 2 7 8
M  V30 8 1 8 9
M  V30 9 1 9 10
M  V30 10 2 10 11
M  V30 11 1 11 12
M  V30 12 1 12 13
M  V30 13 2 13 14
M  V30 14 1 14 15
M  V30 15 2 15 16
M  V30 16 1 16 17
M  V30 17 2 17 18
M  V30 18 2 12 19
M  V30 19 1 19 20
M  V30 20 1 20 21
M  V30 21 1 21 22
M  V30 22 1 22 23
M  V30 23 1 23 24
M  V30 24 2 20 25
M  V30 25 1 8 26
M  V30 26 1 26 4
M  V30 27 1 25 7
M  V30 28 1 25 10
M  V30 29 1 18 13
M  V30 30 1 1 27
M  V30 31 1 1 28
M  V30 32 1 1 29
M  V30 33 1 5 30
M  V30 34 1 5 31
M  V30 35 1 6 32
M  V30 36 1 6 33
M  V30 37 1 14 34
M  V30 38 1 15 35
M  V30 39 1 17 36
M  V30 40 1 18 37
M  V30 41 1 21 38
M  V30 42 1 22 39
M  V30 43 1 22 40
M  V30 44 1 23 41
M  V30 45 1 23 42
M  V30 46 1 24 43
M  V30 47 1 24 44
M  V30 48 1 26 45
M  V30 49 1 26 46
M  V30 END BOND
M  V30 END CTAB
M  END
>  <Dataset>  (289) 
ChEMBL_Kinases

>  <Ligand_Instance>  (289) 
nan

>  <PDB_ID>  (289) 
nan

>  <Standardized_SMILES>  (289) 
CC(=O)N1CCc2c(sc3nc(-c4ccncc4)nc(NCCN)c23)C1

>  <Name>  (289) 
nan

>  <Pocket>  (289) 
nan

>  <ATP_Site>  (289) 
nan

>  <Peripheral>  (289) 
nan

>  <Num_H_Atoms_ProtBoundConf>  (289) 
nan

>  <Num_Resolved_Atoms>  (289) 
nan

>  <Num_Not_Resolved_Atoms>  (289) 
nan

$$$$
CHEMBL522014
     RDKit          3D

  0  0  0  0  0  0  0  0  0  0999 V3000
M  V30 BEGIN CTAB
M  V30 COUNTS 46 50 0 0 0
M  V30 BEGIN ATOM
M  V30 1 C -4.191247 -3.904089 -3.509553 0
M  V30 2 N -3.396345 -4.738323 -2.615123 0
M  V30 3 C -2.369943 -4.199434 -1.799637 0
M  V30 4 N -2.135092 -2.865671 -1.867395 0
M  V30 5 C -1.170762 -2.289672 -1.115955 0
M  V30 6 S -0.608840 -0.566233 -0.969478 0
M  V30 7 C 0.705003 -1.040886 0.318712 0
M  V30 8 C 1.624946 -0.002621 0.930864 0
M  V30 9 C 2.512690 -0.526823 1.845761 0
M  V30 10 C 3.352818 0.412985 2.403211 0
M  V30 11 C 3.299025 1.749008 2.068056 0
M  V30 12 C 2.401554 2.232352 1.153418 0
M  V30 13 C 2.235358 3.631352 0.711194 0
M  V30 14 N 1.252406 4.310260 1.509617 0
M  V30 15 C 1.393783 4.824063 2.817502 0
M  V30 16 O 2.545695 4.641520 3.304243 0
M  V30 17 C 0.376062 5.522059 3.637033 0
M  V30 18 C 0.709160 5.956723 4.902560 0
M  V30 19 S -0.797302 6.668476 5.370707 0
M  V30 20 N -1.722159 6.316610 3.833873 0
M  V30 21 N -0.789493 5.675119 3.079822 0
M  V30 22 C 1.531146 1.307021 0.565163 0
M  V30 23 N 0.523589 -2.156198 0.388944 0
M  V30 24 C -0.345530 -2.919476 -0.236977 0
M  V30 25 C -0.565972 -4.279349 -0.150576 0
M  V30 26 C -1.547214 -4.863524 -0.915669 0
M  V30 27 N -1.585339 -6.206066 -0.667583 0
M  V30 28 C -0.645150 -6.482740 0.241444 0
M  V30 29 N -0.048012 -5.318775 0.536853 0
M  V30 30 C 1.051239 -5.134609 1.493168 0
M  V30 31 H -5.162426 -4.360335 -3.730111 0
M  V30 32 H -4.332641 -2.928788 -2.979509 0
M  V30 33 H -3.660909 -3.741703 -4.484721 0
M  V30 34 H -3.489063 -5.780402 -2.479855 0
M  V30 35 H 2.516548 -1.580137 2.074942 0
M  V30 36 H 4.073421 0.050061 3.132237 0
M  V30 37 H 3.973177 2.461920 2.519159 0
M  V30 38 H 1.902177 3.637390 -0.357868 0
M  V30 39 H 3.201202 4.189084 0.716125 0
M  V30 40 H 0.283356 4.461340 1.092834 0
M  V30 41 H 1.593443 5.899639 5.462609 0
M  V30 42 H 0.765958 1.568694 -0.182638 0
M  V30 43 H -0.384691 -7.437958 0.678124 0
M  V30 44 H 0.727340 -4.416904 2.255447 0
M  V30 45 H 1.350205 -6.116555 1.911930 0
M  V30 46 H 1.935128 -4.704870 0.994995 0
M  V30 END ATOM
M  V30 BEGIN BOND
M  V30 1 1 1 2
M  V30 2 1 2 3
M  V30 3 2 3 4
M  V30 4 1 4 5
M  V30 5 1 5 6
M  V30 6 1 6 7
M  V30 7 1 7 8
M  V30 8 2 8 9
M  V30 9 1 9 10
M  V30 10 2 10 11
M  V30 11 1 11 12
M  V30 12 1 12 13
M  V30 13 1 13 14
M  V30 14 1 14 15
M  V30 15 2 15 16
M  V30 16 1 15 17
M  V30 17 2 17 18
M  V30 18 1 18 19
M  V30 19 1 19 20
M  V30 20 2 20 21
M  V30 21 2 12 22
M  V30 22 2 7 23
M  V30 23 1 23 24
M  V30 24 1 24 25
M  V30 25 2 25 26
M  V30 26 1 26 27
M  V30 27 2 27 28
M  V30 28 1 28 29
M  V30 29 1 29 30
M  V30 30 1 26 3
M  V30 31 2 24 5
M  V30 32 1 29 25
M  V30 33 1 22 8
M  V30 34 1 21 17
M  V30 35 1 1 31
M  V30 36 1 1 32
M  V30 37 1 1 33
M  V30 38 1 2 34
M  V30 39 1 9 35
M  V30 40 1 10 36
M  V30 41 1 11 37
M  V30 42 1 13 38
M  V30 43 1 13 39
M  V30 44 1 14 40
M  V30 45 1 18 41
M  V30 46 1 22 42
M  V30 47 1 28 43
M  V30 48 1 30 44
M  V30 49 1 30 45
M  V30 50 1 30 46
M  V30 END BOND
M  V30 END CTAB
M  END
>  <Dataset>  (290) 
ChEMBL_Kinases

>  <Ligand_Instance>  (290) 
nan

>  <PDB_ID>  (290) 
nan

>  <Standardized_SMILES>  (290) 
CNc1nc2sc(-c3cccc(CNC(=O)c4csnn4)c3)nc2c2c1ncn2C

>  <Name>  (290) 
nan

>  <Pocket>  (290) 
nan

>  <ATP_Site>  (290) 
nan

>  <Peripheral>  (290) 
nan

>  <Num_H_Atoms_ProtBoundConf>  (290) 
nan

>  <Num_Resolved_Atoms>  (290) 
nan

>  <Num_Not_Resolved_Atoms>  (290) 
nan

$$$$
CHEMBL3732670
     RDKit          3D

  0  0  0  0  0  0  0  0  0  0999 V3000
M  V30 BEGIN CTAB
M  V30 COUNTS 55 59 0 0 0
M  V30 BEGIN ATOM
M  V30 1 N 0.186433 -1.100041 -1.196572 0
M  V30 2 C 0.562172 -2.304995 -0.556813 0 CFG=2
M  V30 3 C 1.181983 -2.159018 0.817881 0
M  V30 4 N 0.283752 -1.518424 1.725756 0
M  V30 5 C 0.012498 -0.125329 1.710433 0
M  V30 6 N 0.702453 0.571696 0.804793 0
M  V30 7 C 0.682449 1.863667 0.571134 0
M  V30 8 C 1.449400 2.617312 -0.405128 0
M  V30 9 C 1.270669 3.973061 -0.559451 0
M  V30 10 C 1.985969 4.720663 -1.470567 0
M  V30 11 N 2.899560 4.111556 -2.246973 0
M  V30 12 C 3.133802 2.797365 -2.159079 0
M  V30 13 C 2.404966 2.084460 -1.242625 0
M  V30 14 F 2.665837 0.757961 -1.167120 0
M  V30 15 N -0.158569 2.533216 1.373140 0
M  V30 16 C -0.852070 1.917972 2.266652 0
M  V30 17 S -2.034900 2.559255 3.453989 0
M  V30 18 C -2.442088 0.997973 4.217023 0
M  V30 19 C -1.631539 0.031032 3.508547 0
M  V30 20 C -0.850405 0.557659 2.535152 0
M  V30 21 C -1.998905 -1.224509 4.170897 0
M  V30 22 C -1.655893 -1.045286 5.670412 0
M  V30 23 C -2.747505 -0.238563 6.344841 0
M  V30 24 C -3.384845 0.706521 5.316953 0
M  V30 25 C 1.473103 -3.104825 -1.458972 0
M  V30 26 C 0.808263 -3.452864 -2.727934 0
M  V30 27 C 0.090122 -4.634549 -2.608545 0
M  V30 28 C -0.625866 -5.191605 -3.667797 0
M  V30 29 C -0.611617 -4.530904 -4.879067 0
M  V30 30 C 0.090708 -3.372197 -5.002209 0
M  V30 31 C 0.789121 -2.837469 -3.953163 0
M  V30 32 H 0.688150 -0.818347 -2.036484 0
M  V30 33 H -0.825112 -0.858261 -1.162795 0
M  V30 34 H -0.378459 -2.928065 -0.392585 0
M  V30 35 H 1.573654 -3.113792 1.147541 0
M  V30 36 H 2.094939 -1.504082 0.662360 0
M  V30 37 H -0.033721 -2.320403 2.286227 0
M  V30 38 H 0.540426 4.494422 0.052584 0
M  V30 39 H 1.787114 5.798906 -1.535760 0
M  V30 40 H 3.872514 2.316244 -2.789678 0
M  V30 41 H -3.126476 -1.377859 4.095703 0
M  V30 42 H -1.462152 -2.099792 3.856108 0
M  V30 43 H -1.442068 -2.003669 6.155913 0
M  V30 44 H -0.734680 -0.429219 5.684050 0
M  V30 45 H -2.342539 0.404481 7.153054 0
M  V30 46 H -3.551320 -0.848239 6.772025 0
M  V30 47 H -4.238177 0.164277 4.871954 0
M  V30 48 H -3.642592 1.642442 5.803100 0
M  V30 49 H 1.908215 -3.995945 -0.952998 0
M  V30 50 H 2.372876 -2.488384 -1.757023 0
M  V30 51 H -0.006345 -5.258962 -1.709103 0
M  V30 52 H -1.189879 -6.093726 -3.623165 0
M  V30 53 H -1.126433 -4.868526 -5.759597 0
M  V30 54 H 0.166881 -2.776191 -5.907811 0
M  V30 55 H 1.361204 -1.939034 -3.991960 0
M  V30 END ATOM
M  V30 BEGIN BOND
M  V30 1 1 1 2
M  V30 2 1 2 3
M  V30 3 1 3 4
M  V30 4 1 4 5
M  V30 5 2 5 6
M  V30 6 1 6 7
M  V30 7 1 7 8
M  V30 8 2 8 9
M  V30 9 1 9 10
M  V30 10 2 10 11
M  V30 11 1 11 12
M  V30 12 2 12 13
M  V30 13 1 13 14
M  V30 14 2 7 15
M  V30 15 1 15 16
M  V30 16 1 16 17
M  V30 17 1 17 18
M  V30 18 2 18 19
M  V30 19 1 19 20
M  V30 20 1 19 21
M  V30 21 1 21 22
M  V30 22 1 22 23
M  V30 23 1 23 24
M  V30 24 1 2 25
M  V30 25 1 25 26
M  V30 26 2 26 27
M  V30 27 1 27 28
M  V30 28 2 28 29
M  V30 29 1 29 30
M  V30 30 2 30 31
M  V30 31 1 20 5
M  V30 32 1 31 26
M  V30 33 1 13 8
M  V30 34 2 20 16
M  V30 35 1 24 18
M  V30 36 1 1 32
M  V30 37 1 1 33
M  V30 38 1 2 34 CFG=1
M  V30 39 1 3 35
M  V30 40 1 3 36
M  V30 41 1 4 37
M  V30 42 1 9 38
M  V30 43 1 10 39
M  V30 44 1 12 40
M  V30 45 1 21 41
M  V30 46 1 21 42
M  V30 47 1 22 43
M  V30 48 1 22 44
M  V30 49 1 23 45
M  V30 50 1 23 46
M  V30 51 1 24 47
M  V30 52 1 24 48
M  V30 53 1 25 49
M  V30 54 1 25 50
M  V30 55 1 27 51
M  V30 56 1 28 52
M  V30 57 1 29 53
M  V30 58 1 30 54
M  V30 59 1 31 55
M  V30 END BOND
M  V30 END CTAB
M  END
>  <Dataset>  (291) 
ChEMBL_Kinases

>  <Ligand_Instance>  (291) 
nan

>  <PDB_ID>  (291) 
nan

>  <Standardized_SMILES>  (291) 
N[C@H](CNc1nc(-c2ccncc2F)nc2sc3c(c12)CCCC3)Cc1ccccc1

>  <Name>  (291) 
nan

>  <Pocket>  (291) 
nan

>  <ATP_Site>  (291) 
nan

>  <Peripheral>  (291) 
nan

>  <Num_H_Atoms_ProtBoundConf>  (291) 
nan

>  <Num_Resolved_Atoms>  (291) 
nan

>  <Num_Not_Resolved_Atoms>  (291) 
nan

$$$$
CHEMBL3732666
     RDKit          3D

  0  0  0  0  0  0  0  0  0  0999 V3000
M  V30 BEGIN CTAB
M  V30 COUNTS 51 55 0 0 0
M  V30 BEGIN ATOM
M  V30 1 O -1.558642 -4.770067 3.394722 0
M  V30 2 S -0.250690 -4.630503 2.625858 0
M  V30 3 O 0.855064 -5.151398 3.491496 0
M  V30 4 N 0.010362 -2.979789 2.193442 0
M  V30 5 C -0.936255 -2.244647 1.431674 0
M  V30 6 C -0.680362 -0.949428 1.118527 0
M  V30 7 C -1.586827 -0.224353 0.381818 0
M  V30 8 C -1.219127 1.160142 0.097973 0
M  V30 9 N -0.063525 1.685630 0.533158 0
M  V30 10 C 0.235678 2.951734 0.254340 0
M  V30 11 N 1.376579 3.683202 0.610326 0
M  V30 12 C 2.391244 3.038464 1.374632 0 CFG=2
M  V30 13 C 3.009984 1.829853 0.706387 0
M  V30 14 C 3.740696 1.205151 1.881340 0
M  V30 15 N 3.109043 1.707545 3.085607 0
M  V30 16 C 1.924162 2.443803 2.677349 0
M  V30 17 C -0.714015 3.667000 -0.500723 0
M  V30 18 S -0.743748 5.394708 -1.115103 0
M  V30 19 C -2.456263 5.246747 -1.978512 0
M  V30 20 C -2.782618 3.903584 -1.687544 0
M  V30 21 C -1.950083 3.117994 -0.970752 0
M  V30 22 N -2.107296 1.838323 -0.611396 0
M  V30 23 C -2.754509 -0.823121 -0.034675 0
M  V30 24 C -2.997658 -2.139579 0.292658 0
M  V30 25 N -2.081523 -2.805086 1.013879 0
M  V30 26 C -0.372962 -5.593925 1.172817 0
M  V30 27 C 0.854217 -6.056731 0.689383 0
M  V30 28 C 0.989314 -6.829592 -0.432191 0
M  V30 29 C -0.146305 -7.176066 -1.131357 0
M  V30 30 C -1.359210 -6.728278 -0.667666 0
M  V30 31 C -1.494512 -5.950845 0.460726 0
M  V30 32 H 0.898615 -2.536450 2.515382 0
M  V30 33 H 0.245791 -0.510818 1.461472 0
M  V30 34 H 1.537286 4.661225 0.357874 0
M  V30 35 H 3.227630 3.738936 1.658125 0
M  V30 36 H 2.231087 1.121024 0.400414 0
M  V30 37 H 3.701129 2.105437 -0.107579 0
M  V30 38 H 4.807050 1.551690 1.826308 0
M  V30 39 H 3.777455 0.097711 1.829612 0
M  V30 40 H 3.770942 2.363431 3.556366 0
M  V30 41 H 1.751223 3.262813 3.412566 0
M  V30 42 H 1.107551 1.729349 2.590582 0
M  V30 43 H -2.863391 6.003040 -2.457953 0
M  V30 44 H -3.732110 3.602943 -2.090584 0
M  V30 45 H -3.445323 -0.224078 -0.612284 0
M  V30 46 H -3.926964 -2.589787 -0.047930 0
M  V30 47 H 1.811147 -5.834550 1.175249 0
M  V30 48 H 1.932489 -7.186122 -0.805020 0
M  V30 49 H -0.114446 -7.787078 -2.030462 0
M  V30 50 H -2.304937 -6.947967 -1.148008 0
M  V30 51 H -2.404735 -5.567927 0.882335 0
M  V30 END ATOM
M  V30 BEGIN BOND
M  V30 1 2 1 2
M  V30 2 2 2 3
M  V30 3 1 2 4
M  V30 4 1 4 5
M  V30 5 2 5 6
M  V30 6 1 6 7
M  V30 7 1 7 8
M  V30 8 2 8 9
M  V30 9 1 9 10
M  V30 10 1 10 11
M  V30 11 1 11 12
M  V30 12 1 12 13
M  V30 13 1 13 14
M  V30 14 1 14 15
M  V30 15 1 15 16
M  V30 16 2 10 17
M  V30 17 1 17 18
M  V30 18 1 18 19
M  V30 19 2 19 20
M  V30 20 1 20 21
M  V30 21 2 21 22
M  V30 22 2 7 23
M  V30 23 1 23 24
M  V30 24 2 24 25
M  V30 25 1 2 26
M  V30 26 2 26 27
M  V30 27 1 27 28
M  V30 28 2 28 29
M  V30 29 1 29 30
M  V30 30 2 30 31
M  V30 31 1 25 5
M  V30 32 1 31 26
M  V30 33 1 22 8
M  V30 34 1 16 12
M  V30 35 1 21 17
M  V30 36 1 4 32
M  V30 37 1 6 33
M  V30 38 1 11 34
M  V30 39 1 12 35 CFG=1
M  V30 40 1 13 36
M  V30 41 1 13 37
M  V30 42 1 14 38
M  V30 43 1 14 39
M  V30 44 1 15 40
M  V30 45 1 16 41
M  V30 46 1 16 42
M  V30 47 1 19 43
M  V30 48 1 20 44
M  V30 49 1 23 45
M  V30 50 1 24 46
M  V30 51 1 27 47
M  V30 52 1 28 48
M  V30 53 1 29 49
M  V30 54 1 30 50
M  V30 55 1 31 51
M  V30 END BOND
M  V30 END CTAB
M  END
>  <Dataset>  (292) 
ChEMBL_Kinases

>  <Ligand_Instance>  (292) 
nan

>  <PDB_ID>  (292) 
nan

>  <Standardized_SMILES>  (292) 
O=S(=O)(Nc1cc(-c2nc(N[C@@H]3CCNC3)c3sccc3n2)ccn1)c1ccccc1

>  <Name>  (292) 
nan

>  <Pocket>  (292) 
nan

>  <ATP_Site>  (292) 
nan

>  <Peripheral>  (292) 
nan

>  <Num_H_Atoms_ProtBoundConf>  (292) 
nan

>  <Num_Resolved_Atoms>  (292) 
nan

>  <Num_Not_Resolved_Atoms>  (292) 
nan

$$$$
CHEMBL3732659
     RDKit          3D

  0  0  0  0  0  0  0  0  0  0999 V3000
M  V30 BEGIN CTAB
M  V30 COUNTS 57 62 0 0 0
M  V30 BEGIN ATOM
M  V30 1 C 6.738455 -2.123182 4.625612 0
M  V30 2 C 5.890772 -1.105679 5.023258 0
M  V30 3 C 5.065597 -0.583097 4.044986 0
M  V30 4 C 5.062684 -1.028093 2.737633 0
M  V30 5 C 4.195845 -0.487133 1.688482 0
M  V30 6 C 2.945383 -0.018397 2.030910 0
M  V30 7 C 2.126007 0.496000 1.049386 0
M  V30 8 C 2.610534 0.513442 -0.240589 0
M  V30 9 N 2.018224 0.975384 -1.472984 0
M  V30 10 C 1.356599 -0.180885 -1.970824 0
M  V30 11 C 0.017375 -0.381493 -1.709162 0
M  V30 12 C -0.531755 -1.533086 -2.227054 0
M  V30 13 C -1.972416 -1.738661 -1.938955 0
M  V30 14 N -2.680952 -0.822957 -1.238839 0
M  V30 15 C -3.961855 -1.074726 -1.017878 0
M  V30 16 N -4.884927 -0.279699 -0.337104 0
M  V30 17 C -4.432876 0.981747 0.197507 0 CFG=2
M  V30 18 C -3.338185 0.884737 1.205333 0
M  V30 19 C -3.588359 2.013275 2.179849 0
M  V30 20 N -4.869980 2.597364 1.870177 0
M  V30 21 C -5.523208 1.766556 0.887453 0
M  V30 22 C -4.456582 -2.277645 -1.537616 0
M  V30 23 S -6.195245 -2.992749 -1.443054 0
M  V30 24 C -5.722996 -4.554404 -2.431305 0
M  V30 25 C -4.387282 -4.354666 -2.695515 0
M  V30 26 C -3.735805 -3.241517 -2.267480 0
M  V30 27 N -2.458769 -2.872909 -2.423645 0
M  V30 28 C 0.238765 -2.409989 -2.957641 0
M  V30 29 C 1.569362 -2.187946 -3.204314 0
M  V30 30 N 2.081749 -1.070454 -2.696266 0
M  V30 31 N 3.852523 0.044406 -0.560265 0
M  V30 32 C 4.677310 -0.467987 0.395525 0
M  V30 33 C 5.943122 -2.061715 2.392597 0
M  V30 34 C 6.789722 -2.615302 3.344844 0
M  V30 35 H 7.402945 -2.549665 5.392659 0
M  V30 36 H 5.840094 -0.706382 6.032054 0
M  V30 37 H 4.357749 0.215192 4.226590 0
M  V30 38 H 2.531298 -0.014610 3.020503 0
M  V30 39 H 1.137702 0.903232 1.105973 0
M  V30 40 H 1.976307 1.881550 -2.018719 0
M  V30 41 H -0.548948 0.343118 -1.124994 0
M  V30 42 H -5.866170 -0.511262 -0.180074 0
M  V30 43 H -4.101267 1.637524 -0.660631 0
M  V30 44 H -2.358847 1.117768 0.694433 0
M  V30 45 H -3.306427 -0.109429 1.667444 0
M  V30 46 H -2.800490 2.804942 2.122816 0
M  V30 47 H -3.626176 1.620683 3.211601 0
M  V30 48 H -5.447035 2.860661 2.678449 0
M  V30 49 H -6.079746 2.426189 0.192170 0
M  V30 50 H -6.255276 1.114838 1.393453 0
M  V30 51 H -6.415605 -5.265464 -2.627655 0
M  V30 52 H -3.916625 -5.143388 -3.258184 0
M  V30 53 H -0.228202 -3.298171 -3.344121 0
M  V30 54 H 2.167094 -2.890962 -3.783734 0
M  V30 55 H 5.669385 -0.851638 0.196358 0
M  V30 56 H 6.008262 -2.478802 1.374582 0
M  V30 57 H 7.483154 -3.428216 3.077059 0
M  V30 END ATOM
M  V30 BEGIN BOND
M  V30 1 2 1 2
M  V30 2 1 2 3
M  V30 3 2 3 4
M  V30 4 1 4 5
M  V30 5 2 5 6
M  V30 6 1 6 7
M  V30 7 2 7 8
M  V30 8 1 8 9
M  V30 9 1 9 10
M  V30 10 2 10 11
M  V30 11 1 11 12
M  V30 12 1 12 13
M  V30 13 2 13 14
M  V30 14 1 14 15
M  V30 15 1 15 16
M  V30 16 1 16 17
M  V30 17 1 17 18
M  V30 18 1 18 19
M  V30 19 1 19 20
M  V30 20 1 20 21
M  V30 21 2 15 22
M  V30 22 1 22 23
M  V30 23 1 23 24
M  V30 24 2 24 25
M  V30 25 1 25 26
M  V30 26 2 26 27
M  V30 27 2 12 28
M  V30 28 1 28 29
M  V30 29 2 29 30
M  V30 30 1 8 31
M  V30 31 2 31 32
M  V30 32 1 4 33
M  V30 33 2 33 34
M  V30 34 1 34 1
M  V30 35 1 32 5
M  V30 36 1 30 10
M  V30 37 1 27 13
M  V30 38 1 21 17
M  V30 39 1 26 22
M  V30 40 1 1 35
M  V30 41 1 2 36
M  V30 42 1 3 37
M  V30 43 1 6 38
M  V30 44 1 7 39
M  V30 45 1 9 40
M  V30 46 1 11 41
M  V30 47 1 16 42
M  V30 48 1 17 43 CFG=3
M  V30 49 1 18 44
M  V30 50 1 18 45
M  V30 51 1 19 46
M  V30 52 1 19 47
M  V30 53 1 20 48
M  V30 54 1 21 49
M  V30 55 1 21 50
M  V30 56 1 24 51
M  V30 57 1 25 52
M  V30 58 1 28 53
M  V30 59 1 29 54
M  V30 60 1 32 55
M  V30 61 1 33 56
M  V30 62 1 34 57
M  V30 END BOND
M  V30 END CTAB
M  END
>  <Dataset>  (293) 
ChEMBL_Kinases

>  <Ligand_Instance>  (293) 
nan

>  <PDB_ID>  (293) 
nan

>  <Standardized_SMILES>  (293) 
c1ccc(-c2ccc(Nc3cc(-c4nc(N[C@@H]5CCNC5)c5sccc5n4)ccn3)nc2)cc1

>  <Name>  (293) 
nan

>  <Pocket>  (293) 
nan

>  <ATP_Site>  (293) 
nan

>  <Peripheral>  (293) 
nan

>  <Num_H_Atoms_ProtBoundConf>  (293) 
nan

>  <Num_Resolved_Atoms>  (293) 
nan

>  <Num_Not_Resolved_Atoms>  (293) 
nan

$$$$
CHEMBL3732646
     RDKit          3D

  0  0  0  0  0  0  0  0  0  0999 V3000
M  V30 BEGIN CTAB
M  V30 COUNTS 41 45 0 0 0
M  V30 BEGIN ATOM
M  V30 1 C 1.675894 -4.732115 4.064225 0
M  V30 2 C 2.734772 -5.280973 3.397626 0
M  V30 3 N 3.048888 -4.617494 2.270137 0
M  V30 4 C 2.368675 -3.538973 1.881531 0
M  V30 5 S 2.597025 -2.446958 0.375848 0
M  V30 6 C 1.203891 -1.328474 0.806879 0
M  V30 7 C 0.745376 -0.216029 0.111205 0
M  V30 8 N 1.436904 0.103440 -1.086891 0
M  V30 9 C 1.612008 -0.709179 -2.292113 0
M  V30 10 C 1.395999 0.136513 -3.524657 0
M  V30 11 N 0.732703 1.386786 -3.269729 0
M  V30 12 C 1.337703 2.185851 -2.239114 0
M  V30 13 C 2.093163 1.412720 -1.208454 0
M  V30 14 N -0.296502 0.430838 0.646889 0
M  V30 15 C -0.791261 -0.056327 1.795081 0
M  V30 16 C -1.943827 0.625790 2.425341 0
M  V30 17 C -2.507151 0.186889 3.602428 0
M  V30 18 C -3.586782 0.897150 4.112576 0
M  V30 19 N -4.064540 1.978138 3.475598 0
M  V30 20 C -3.498635 2.386210 2.330073 0
M  V30 21 C -2.422981 1.727899 1.766292 0
M  V30 22 N -0.322605 -1.116280 2.419388 0
M  V30 23 C 0.713376 -1.851965 1.990797 0
M  V30 24 C 1.283711 -2.957192 2.542718 0
M  V30 25 C 0.955919 -3.628494 3.695600 0
M  V30 26 H 1.382965 -5.237534 4.988170 0
M  V30 27 H 3.327670 -6.140820 3.646072 0
M  V30 28 H 2.682255 -1.035013 -2.304313 0
M  V30 29 H 0.987959 -1.615463 -2.291902 0
M  V30 30 H 0.712003 -0.440401 -4.196605 0
M  V30 31 H 2.320661 0.294724 -4.108057 0
M  V30 32 H -0.301979 1.290029 -3.157758 0
M  V30 33 H 2.043138 2.960836 -2.659423 0
M  V30 34 H 0.550292 2.789694 -1.715661 0
M  V30 35 H 2.048948 1.950095 -0.254686 0
M  V30 36 H 3.128728 1.208416 -1.549582 0
M  V30 37 H -2.069281 -0.680317 4.047221 0
M  V30 38 H -4.010205 0.530861 5.038276 0
M  V30 39 H -3.885595 3.261200 1.814768 0
M  V30 40 H -2.006409 2.102046 0.840050 0
M  V30 41 H 0.139963 -3.312171 4.329236 0
M  V30 END ATOM
M  V30 BEGIN BOND
M  V30 1 2 1 2
M  V30 2 1 2 3
M  V30 3 2 3 4
M  V30 4 1 4 5
M  V30 5 1 5 6
M  V30 6 2 6 7
M  V30 7 1 7 8
M  V30 8 1 8 9
M  V30 9 1 9 10
M  V30 10 1 10 11
M  V30 11 1 11 12
M  V30 12 1 12 13
M  V30 13 1 7 14
M  V30 14 2 14 15
M  V30 15 1 15 16
M  V30 16 2 16 17
M  V30 17 1 17 18
M  V30 18 2 18 19
M  V30 19 1 19 20
M  V30 20 2 20 21
M  V30 21 1 15 22
M  V30 22 2 22 23
M  V30 23 1 23 24
M  V30 24 2 24 25
M  V30 25 1 25 1
M  V30 26 1 24 4
M  V30 27 1 23 6
M  V30 28 1 13 8
M  V30 29 1 21 16
M  V30 30 1 1 26
M  V30 31 1 2 27
M  V30 32 1 9 28
M  V30 33 1 9 29
M  V30 34 1 10 30
M  V30 35 1 10 31
M  V30 36 1 11 32
M  V30 37 1 12 33
M  V30 38 1 12 34
M  V30 39 1 13 35
M  V30 40 1 13 36
M  V30 41 1 17 37
M  V30 42 1 18 38
M  V30 43 1 20 39
M  V30 44 1 21 40
M  V30 45 1 25 41
M  V30 END BOND
M  V30 END CTAB
M  END
>  <Dataset>  (294) 
ChEMBL_Kinases

>  <Ligand_Instance>  (294) 
nan

>  <PDB_ID>  (294) 
nan

>  <Standardized_SMILES>  (294) 
c1cnc2sc3c(N4CCNCC4)nc(-c4ccncc4)nc3c2c1

>  <Name>  (294) 
nan

>  <Pocket>  (294) 
nan

>  <ATP_Site>  (294) 
nan

>  <Peripheral>  (294) 
nan

>  <Num_H_Atoms_ProtBoundConf>  (294) 
nan

>  <Num_Resolved_Atoms>  (294) 
nan

>  <Num_Not_Resolved_Atoms>  (294) 
nan

$$$$
CHEMBL3732634
     RDKit          3D

  0  0  0  0  0  0  0  0  0  0999 V3000
M  V30 BEGIN CTAB
M  V30 COUNTS 57 60 0 0 0
M  V30 BEGIN ATOM
M  V30 1 C 4.089641 -1.451821 2.951542 0
M  V30 2 C 2.969099 -0.644550 2.331567 0
M  V30 3 C 1.817778 -0.658491 3.251090 0
M  V30 4 C 3.509909 0.807353 2.350650 0
M  V30 5 C 2.678647 -0.978548 0.933142 0
M  V30 6 C 2.269508 -2.334144 0.551974 0 CFG=2
M  V30 7 N 2.126954 -2.268535 -0.949240 0
M  V30 8 C 0.859259 -2.777841 0.940400 0
M  V30 9 N -0.185395 -2.004027 0.347624 0
M  V30 10 C -1.060640 -0.966020 -0.059881 0
M  V30 11 N -0.751201 0.133816 0.625369 0
M  V30 12 C -1.367449 1.305566 0.622386 0
M  V30 13 C -1.080304 2.531719 1.332510 0
M  V30 14 C -1.844944 3.641428 1.210332 0
M  V30 15 C -1.572961 4.810041 1.888556 0
M  V30 16 N -0.505217 4.851884 2.705341 0
M  V30 17 C 0.307372 3.794810 2.884759 0
M  V30 18 C -0.005045 2.650693 2.186148 0
M  V30 19 N -2.424595 1.312441 -0.192985 0
M  V30 20 C -2.800291 0.248549 -0.916856 0
M  V30 21 S -4.138332 -0.050596 -2.056438 0
M  V30 22 C -3.714528 -1.735007 -2.414995 0
M  V30 23 C -2.594941 -2.009302 -1.676069 0
M  V30 24 C -2.147257 -0.968329 -0.907509 0
M  V30 25 C -2.072636 -3.373482 -1.936275 0
M  V30 26 C -2.592169 -3.919616 -3.247637 0
M  V30 27 C -4.089668 -3.926423 -3.217530 0
M  V30 28 C -4.578605 -2.486812 -3.332104 0
M  V30 29 H 5.045171 -1.318863 2.386604 0
M  V30 30 H 4.270967 -0.973604 3.944830 0
M  V30 31 H 3.831797 -2.495909 3.157739 0
M  V30 32 H 1.825669 0.207805 3.970720 0
M  V30 33 H 1.728862 -1.605292 3.852950 0
M  V30 34 H 0.875354 -0.540891 2.697834 0
M  V30 35 H 2.938814 1.459220 1.673902 0
M  V30 36 H 4.533715 0.715296 1.932473 0
M  V30 37 H 3.584702 1.157448 3.386004 0
M  V30 38 H 1.939740 -0.237947 0.506393 0
M  V30 39 H 3.601181 -0.742771 0.289044 0
M  V30 40 H 2.986945 -3.133020 0.718233 0
M  V30 41 H 2.217862 -3.234229 -1.328755 0
M  V30 42 H 2.839330 -1.617035 -1.327022 0
M  V30 43 H 0.788574 -2.778170 2.054102 0
M  V30 44 H 0.763334 -3.867422 0.678221 0
M  V30 45 H -0.673067 -2.787596 -0.050846 0
M  V30 46 H -2.719344 3.634103 0.552379 0
M  V30 47 H -2.228677 5.661050 1.742928 0
M  V30 48 H 1.162398 3.857944 3.550856 0
M  V30 49 H 0.661855 1.817751 2.345170 0
M  V30 50 H -0.945960 -3.400687 -2.026292 0
M  V30 51 H -2.401473 -4.039343 -1.131315 0
M  V30 52 H -2.240239 -4.962736 -3.307722 0
M  V30 53 H -2.273117 -3.305785 -4.112627 0
M  V30 54 H -4.538911 -4.552043 -4.009566 0
M  V30 55 H -4.441281 -4.336844 -2.248206 0
M  V30 56 H -4.531407 -2.138778 -4.380476 0
M  V30 57 H -5.642772 -2.490159 -3.032336 0
M  V30 END ATOM
M  V30 BEGIN BOND
M  V30 1 1 1 2
M  V30 2 1 2 3
M  V30 3 1 2 4
M  V30 4 1 2 5
M  V30 5 1 5 6
M  V30 6 1 6 7
M  V30 7 1 6 8
M  V30 8 1 8 9
M  V30 9 1 9 10
M  V30 10 2 10 11
M  V30 11 1 11 12
M  V30 12 1 12 13
M  V30 13 2 13 14
M  V30 14 1 14 15
M  V30 15 2 15 16
M  V30 16 1 16 17
M  V30 17 2 17 18
M  V30 18 2 12 19
M  V30 19 1 19 20
M  V30 20 1 20 21
M  V30 21 1 21 22
M  V30 22 2 22 23
M  V30 23 1 23 24
M  V30 24 1 23 25
M  V30 25 1 25 26
M  V30 26 1 26 27
M  V30 27 1 27 28
M  V30 28 1 24 10
M  V30 29 1 18 13
M  V30 30 2 24 20
M  V30 31 1 28 22
M  V30 32 1 1 29
M  V30 33 1 1 30
M  V30 34 1 1 31
M  V30 35 1 3 32
M  V30 36 1 3 33
M  V30 37 1 3 34
M  V30 38 1 4 35
M  V30 39 1 4 36
M  V30 40 1 4 37
M  V30 41 1 5 38
M  V30 42 1 5 39
M  V30 43 1 6 40 CFG=3
M  V30 44 1 7 41
M  V30 45 1 7 42
M  V30 46 1 8 43
M  V30 47 1 8 44
M  V30 48 1 9 45
M  V30 49 1 14 46
M  V30 50 1 15 47
M  V30 51 1 17 48
M  V30 52 1 18 49
M  V30 53 1 25 50
M  V30 54 1 25 51
M  V30 55 1 26 52
M  V30 56 1 26 53
M  V30 57 1 27 54
M  V30 58 1 27 55
M  V30 59 1 28 56
M  V30 60 1 28 57
M  V30 END BOND
M  V30 END CTAB
M  END
>  <Dataset>  (295) 
ChEMBL_Kinases

>  <Ligand_Instance>  (295) 
nan

>  <PDB_ID>  (295) 
nan

>  <Standardized_SMILES>  (295) 
CC(C)(C)C[C@H](N)CNc1nc(-c2ccncc2)nc2sc3c(c12)CCCC3

>  <Name>  (295) 
nan

>  <Pocket>  (295) 
nan

>  <ATP_Site>  (295) 
nan

>  <Peripheral>  (295) 
nan

>  <Num_H_Atoms_ProtBoundConf>  (295) 
nan

>  <Num_Resolved_Atoms>  (295) 
nan

>  <Num_Not_Resolved_Atoms>  (295) 
nan

$$$$
CHEMBL3732623
     RDKit          3D

  0  0  0  0  0  0  0  0  0  0999 V3000
M  V30 BEGIN CTAB
M  V30 COUNTS 64 68 0 0 0
M  V30 BEGIN ATOM
M  V30 1 C 3.007214 3.172650 2.865817 0
M  V30 2 C 3.161118 1.786353 2.296514 0
M  V30 3 C 4.195323 1.027893 3.094230 0
M  V30 4 C 3.753181 1.887323 0.883184 0
M  V30 5 C 1.914774 1.066074 2.266410 0
M  V30 6 S 1.354751 0.524540 0.644866 0
M  V30 7 C -0.170593 -0.271988 1.254359 0
M  V30 8 C -1.084393 -0.907931 0.452816 0
M  V30 9 N -0.896774 -0.987684 -0.938716 0
M  V30 10 C -1.915307 -1.675206 -1.672605 0
M  V30 11 C -1.616546 -1.705008 -3.170985 0 CFG=1
M  V30 12 N -1.525546 -0.361315 -3.707799 0
M  V30 13 C -0.408600 -2.523310 -3.501137 0
M  V30 14 C -0.131697 -2.540279 -4.978946 0
M  V30 15 C 0.689556 -1.565771 -5.517380 0
M  V30 16 C 1.002076 -1.500868 -6.868465 0
M  V30 17 C 0.466731 -2.458467 -7.725323 0
M  V30 18 C -0.360398 -3.441599 -7.189332 0
M  V30 19 C -0.654139 -3.484395 -5.851156 0
M  V30 20 N -2.136318 -1.427840 1.102072 0
M  V30 21 C -2.176198 -1.270940 2.435218 0
M  V30 22 C -3.326663 -1.842411 3.125020 0
M  V30 23 C -3.591531 -1.818269 4.459463 0
M  V30 24 C -4.682257 -2.362468 5.098426 0
M  V30 25 N -5.592454 -2.991914 4.308943 0
M  V30 26 C -5.382603 -3.046763 2.982415 0
M  V30 27 C -4.271935 -2.488629 2.361856 0
M  V30 28 N -1.224311 -0.632234 3.093962 0
M  V30 29 C -0.119489 -0.058842 2.614471 0
M  V30 30 C 0.954736 0.626804 3.108667 0
M  V30 31 C 0.983974 0.831982 4.540500 0
M  V30 32 C 0.038105 0.468966 5.512189 0
M  V30 33 C 0.339191 0.807587 6.810137 0
M  V30 34 N 1.531296 1.414851 6.664439 0
M  V30 35 N 1.826031 1.392923 5.389140 0
M  V30 36 H 2.003821 3.271124 3.324782 0
M  V30 37 H 3.020982 3.890273 2.019643 0
M  V30 38 H 3.827380 3.427443 3.538142 0
M  V30 39 H 4.704165 1.694489 3.832085 0
M  V30 40 H 3.725915 0.204738 3.710348 0
M  V30 41 H 4.939687 0.494024 2.460428 0
M  V30 42 H 4.587900 2.601041 0.956364 0
M  V30 43 H 2.962901 2.139170 0.174350 0
M  V30 44 H 4.168533 0.890359 0.632571 0
M  V30 45 H -0.075459 -0.579585 -1.428976 0
M  V30 46 H -2.095447 -2.709556 -1.344984 0
M  V30 47 H -2.854235 -1.051747 -1.599133 0
M  V30 48 H -2.533986 -2.159265 -3.621889 0
M  V30 49 H -2.060386 -0.264512 -4.614285 0
M  V30 50 H -1.879924 0.331613 -3.013521 0
M  V30 51 H 0.473112 -2.091898 -3.000701 0
M  V30 52 H -0.557577 -3.549387 -3.154302 0
M  V30 53 H 1.104859 -0.818538 -4.835793 0
M  V30 54 H 1.653913 -0.711191 -7.234946 0
M  V30 55 H 0.701341 -2.422262 -8.786489 0
M  V30 56 H -0.795556 -4.205079 -7.830124 0
M  V30 57 H -1.292886 -4.235969 -5.408324 0
M  V30 58 H -2.883384 -1.324792 5.105749 0
M  V30 59 H -4.802093 -2.289410 6.170210 0
M  V30 60 H -6.117112 -3.550966 2.374521 0
M  V30 61 H -4.213694 -2.599174 1.274228 0
M  V30 62 H -0.920636 -0.059232 5.332667 0
M  V30 63 H -0.240531 0.626116 7.700619 0
M  V30 64 H 2.708560 1.822980 5.157205 0
M  V30 END ATOM
M  V30 BEGIN BOND
M  V30 1 1 1 2
M  V30 2 1 2 3
M  V30 3 1 2 4
M  V30 4 1 2 5
M  V30 5 1 5 6
M  V30 6 1 6 7
M  V30 7 2 7 8
M  V30 8 1 8 9
M  V30 9 1 9 10
M  V30 10 1 10 11
M  V30 11 1 11 12
M  V30 12 1 11 13
M  V30 13 1 13 14
M  V30 14 2 14 15
M  V30 15 1 15 16
M  V30 16 2 16 17
M  V30 17 1 17 18
M  V30 18 2 18 19
M  V30 19 1 8 20
M  V30 20 2 20 21
M  V30 21 1 21 22
M  V30 22 2 22 23
M  V30 23 1 23 24
M  V30 24 2 24 25
M  V30 25 1 25 26
M  V30 26 2 26 27
M  V30 27 1 21 28
M  V30 28 2 28 29
M  V30 29 1 29 30
M  V30 30 1 30 31
M  V30 31 2 31 32
M  V30 32 1 32 33
M  V30 33 2 33 34
M  V30 34 1 34 35
M  V30 35 2 30 5
M  V30 36 1 35 31
M  V30 37 1 29 7
M  V30 38 1 19 14
M  V30 39 1 27 22
M  V30 40 1 1 36
M  V30 41 1 1 37
M  V30 42 1 1 38
M  V30 43 1 3 39
M  V30 44 1 3 40
M  V30 45 1 3 41
M  V30 46 1 4 42
M  V30 47 1 4 43
M  V30 48 1 4 44
M  V30 49 1 9 45
M  V30 50 1 10 46
M  V30 51 1 10 47
M  V30 52 1 11 48 CFG=3
M  V30 53 1 12 49
M  V30 54 1 12 50
M  V30 55 1 13 51
M  V30 56 1 13 52
M  V30 57 1 15 53
M  V30 58 1 16 54
M  V30 59 1 17 55
M  V30 60 1 18 56
M  V30 61 1 19 57
M  V30 62 1 23 58
M  V30 63 1 24 59
M  V30 64 1 26 60
M  V30 65 1 27 61
M  V30 66 1 32 62
M  V30 67 1 33 63
M  V30 68 1 35 64
M  V30 END BOND
M  V30 END CTAB
M  END
>  <Dataset>  (296) 
ChEMBL_Kinases

>  <Ligand_Instance>  (296) 
nan

>  <PDB_ID>  (296) 
nan

>  <Standardized_SMILES>  (296) 
CC(C)(C)c1sc2c(NC[C@@H](N)Cc3ccccc3)nc(-c3ccncc3)nc2c1-c1ccn[nH]1

>  <Name>  (296) 
nan

>  <Pocket>  (296) 
nan

>  <ATP_Site>  (296) 
nan

>  <Peripheral>  (296) 
nan

>  <Num_H_Atoms_ProtBoundConf>  (296) 
nan

>  <Num_Resolved_Atoms>  (296) 
nan

>  <Num_Not_Resolved_Atoms>  (296) 
nan

$$$$
CHEMBL3732611
     RDKit          3D

  0  0  0  0  0  0  0  0  0  0999 V3000
M  V30 BEGIN CTAB
M  V30 COUNTS 33 34 0 0 0
M  V30 BEGIN ATOM
M  V30 1 O -0.383144 -0.381156 3.174207 0
M  V30 2 C -0.138734 -1.335967 2.359079 0
M  V30 3 C 0.822626 -2.244179 3.003646 0
M  V30 4 N 1.157863 -3.341395 2.119423 0
M  V30 5 C 1.858951 -3.167234 0.894295 0
M  V30 6 C 2.173098 -4.217393 0.023397 0
M  V30 7 C 2.850723 -4.072037 -1.144948 0
M  V30 8 C 3.274059 -2.836656 -1.537660 0
M  V30 9 Cl 4.143660 -2.641453 -3.034429 0
M  V30 10 C 3.010513 -1.759964 -0.749391 0
M  V30 11 C 2.321517 -1.928904 0.432338 0
M  V30 12 N -0.815072 -1.288197 1.108488 0
M  V30 13 N -1.677066 -0.210333 0.878104 0
M  V30 14 C -1.293178 0.927818 0.435288 0
M  V30 15 C -2.164436 2.070171 0.184590 0
M  V30 16 C -1.713795 3.284217 -0.294171 0
M  V30 17 Cl 0.017228 3.457517 -0.619528 0
M  V30 18 C -2.555030 4.347318 -0.522816 0
M  V30 19 N -3.869182 4.221861 -0.277855 0
M  V30 20 C -4.388610 3.086254 0.185076 0
M  V30 21 C -3.524095 2.031477 0.407324 0
M  V30 22 Cl -4.214896 0.530921 1.019729 0
M  V30 23 H 0.389806 -2.708485 3.938296 0
M  V30 24 H 1.722736 -1.673171 3.313395 0
M  V30 25 H 0.901744 -4.331129 2.332764 0
M  V30 26 H 1.848053 -5.229965 0.306088 0
M  V30 27 H 3.052246 -4.922412 -1.755679 0
M  V30 28 H 3.333995 -0.770134 -1.035965 0
M  V30 29 H 2.123663 -1.055192 1.043405 0
M  V30 30 H -0.526668 -2.140575 0.540731 0
M  V30 31 H -0.239330 1.064007 0.226854 0
M  V30 32 H -2.117770 5.262974 -0.898933 0
M  V30 33 H -5.440493 2.989324 0.379966 0
M  V30 END ATOM
M  V30 BEGIN BOND
M  V30 1 2 1 2
M  V30 2 1 2 3
M  V30 3 1 3 4
M  V30 4 1 4 5
M  V30 5 2 5 6
M  V30 6 1 6 7
M  V30 7 2 7 8
M  V30 8 1 8 9
M  V30 9 1 8 10
M  V30 10 2 10 11
M  V30 11 1 2 12
M  V30 12 1 12 13
M  V30 13 2 13 14
M  V30 14 1 14 15
M  V30 15 2 15 16
M  V30 16 1 16 17
M  V30 17 1 16 18
M  V30 18 2 18 19
M  V30 19 1 19 20
M  V30 20 2 20 21
M  V30 21 1 21 22
M  V30 22 1 11 5
M  V30 23 1 21 15
M  V30 24 1 3 23
M  V30 25 1 3 24
M  V30 26 1 4 25
M  V30 27 1 6 26
M  V30 28 1 7 27
M  V30 29 1 10 28
M  V30 30 1 11 29
M  V30 31 1 12 30
M  V30 32 1 14 31
M  V30 33 1 18 32
M  V30 34 1 20 33
M  V30 END BOND
M  V30 END CTAB
M  END
>  <Dataset>  (297) 
ChEMBL_Kinases

>  <Ligand_Instance>  (297) 
nan

>  <PDB_ID>  (297) 
nan

>  <Standardized_SMILES>  (297) 
O=C(CNc1ccc(Cl)cc1)N/N=C/c1c(Cl)cncc1Cl

>  <Name>  (297) 
nan

>  <Pocket>  (297) 
nan

>  <ATP_Site>  (297) 
nan

>  <Peripheral>  (297) 
nan

>  <Num_H_Atoms_ProtBoundConf>  (297) 
nan

>  <Num_Resolved_Atoms>  (297) 
nan

>  <Num_Not_Resolved_Atoms>  (297) 
nan

$$$$
CHEMBL574588
     RDKit          3D

  0  0  0  0  0  0  0  0  0  0999 V3000
M  V30 BEGIN CTAB
M  V30 COUNTS 40 43 0 0 0
M  V30 BEGIN ATOM
M  V30 1 C 2.194288 -6.751182 0.072958 0
M  V30 2 C 1.769370 -5.327695 0.046415 0
M  V30 3 C 1.675767 -4.607995 1.235686 0
M  V30 4 C 1.265269 -3.326327 0.934893 0
M  V30 5 C 1.126974 -3.326598 -0.437904 0
M  V30 6 C 0.707062 -2.180533 -1.231196 0
M  V30 7 C 0.597815 -2.278863 -2.605110 0
M  V30 8 C 0.193270 -1.169240 -3.353007 0
M  V30 9 C -0.101583 0.039987 -2.718840 0
M  V30 10 O -0.495573 1.219200 -3.157034 0
M  V30 11 C -0.643143 2.054206 -2.162919 0
M  V30 12 C -0.334646 1.426419 -0.949510 0
M  V30 13 C -0.362806 1.980717 0.403259 0
M  V30 14 C 0.695573 1.730530 1.272794 0
M  V30 15 C 0.666226 2.261020 2.564128 0
M  V30 16 C -0.403167 3.035169 2.995475 0
M  V30 17 S -0.318886 3.641066 4.637191 0 CHG=1 VAL=3
M  V30 18 C -1.068062 2.467863 5.751047 0
M  V30 19 O -1.217828 5.058950 4.712852 0 CHG=-1 VAL=1
M  V30 20 C -1.442987 3.271886 2.118365 0
M  V30 21 C -1.439894 2.759838 0.836206 0
M  V30 22 C 0.004845 0.147181 -1.346807 0
M  V30 23 C 0.406449 -0.968251 -0.645213 0
M  V30 24 O 1.425239 -4.499891 -0.931602 0
M  V30 25 H 3.027493 -6.879737 0.790752 0
M  V30 26 H 1.368323 -7.425292 0.369111 0
M  V30 27 H 2.515441 -7.091952 -0.944839 0
M  V30 28 H 1.876395 -4.936350 2.259810 0
M  V30 29 H 1.096111 -2.522919 1.620841 0
M  V30 30 H 0.826217 -3.220914 -3.112109 0
M  V30 31 H 0.096309 -1.209836 -4.434857 0
M  V30 32 H -0.955855 3.103079 -2.178166 0
M  V30 33 H 1.543817 1.148237 1.010448 0
M  V30 34 H 1.508362 2.053540 3.234849 0
M  V30 35 H -0.266397 1.748520 6.078063 0
M  V30 36 H -1.815297 1.827549 5.227719 0
M  V30 37 H -1.489444 2.974654 6.631924 0
M  V30 38 H -2.254431 3.888552 2.519162 0
M  V30 39 H -2.275260 2.967446 0.175403 0
M  V30 40 H 0.502123 -0.930476 0.415589 0
M  V30 END ATOM
M  V30 BEGIN BOND
M  V30 1 1 1 2
M  V30 2 2 2 3
M  V30 3 1 3 4
M  V30 4 2 4 5
M  V30 5 1 5 6
M  V30 6 2 6 7
M  V30 7 1 7 8
M  V30 8 2 8 9
M  V30 9 1 9 10
M  V30 10 1 10 11
M  V30 11 2 11 12
M  V30 12 1 12 13
M  V30 13 2 13 14
M  V30 14 1 14 15
M  V30 15 2 15 16
M  V30 16 1 16 17
M  V30 17 1 17 18
M  V30 18 1 17 19 CFG=3
M  V30 19 1 16 20
M  V30 20 2 20 21
M  V30 21 1 12 22
M  V30 22 2 22 23
M  V30 23 1 5 24
M  V30 24 1 24 2
M  V30 25 1 23 6
M  V30 26 1 22 9
M  V30 27 1 21 13
M  V30 28 1 1 25
M  V30 29 1 1 26
M  V30 30 1 1 27
M  V30 31 1 3 28
M  V30 32 1 4 29
M  V30 33 1 7 30
M  V30 34 1 8 31
M  V30 35 1 11 32
M  V30 36 1 14 33
M  V30 37 1 15 34
M  V30 38 1 18 35
M  V30 39 1 18 36
M  V30 40 1 18 37
M  V30 41 1 20 38
M  V30 42 1 21 39
M  V30 43 1 23 40
M  V30 END BOND
M  V30 END CTAB
M  END
>  <Dataset>  (298) 
ChEMBL_Kinases

>  <Ligand_Instance>  (298) 
nan

>  <PDB_ID>  (298) 
nan

>  <Standardized_SMILES>  (298) 
Cc1ccc(-c2ccc3occ(-c4ccc([S@+](C)[O-])cc4)c3c2)o1

>  <Name>  (298) 
nan

>  <Pocket>  (298) 
nan

>  <ATP_Site>  (298) 
nan

>  <Peripheral>  (298) 
nan

>  <Num_H_Atoms_ProtBoundConf>  (298) 
nan

>  <Num_Resolved_Atoms>  (298) 
nan

>  <Num_Not_Resolved_Atoms>  (298) 
nan

$$$$
CHEMBL3732596
     RDKit          3D

  0  0  0  0  0  0  0  0  0  0999 V3000
M  V30 BEGIN CTAB
M  V30 COUNTS 50 54 0 0 0
M  V30 BEGIN ATOM
M  V30 1 N -2.446915 1.133507 4.172508 0
M  V30 2 C -2.688752 1.954165 3.005720 0
M  V30 3 C -1.398077 2.131426 2.265048 0
M  V30 4 N -0.802429 0.899247 1.806205 0
M  V30 5 C 0.426129 0.890865 1.094909 0
M  V30 6 N 0.953097 2.084675 0.871191 0
M  V30 7 C 2.074065 2.377967 0.221429 0
M  V30 8 C 2.617780 3.699119 -0.002166 0
M  V30 9 C 3.800472 3.840187 -0.700476 0
M  V30 10 C 4.354505 5.095849 -0.935342 0
M  V30 11 N 3.698019 6.150400 -0.459872 0
M  V30 12 C 2.544917 6.022053 0.221669 0
M  V30 13 C 1.938065 4.799256 0.490765 0
M  V30 14 N 2.706757 1.290605 -0.242484 0
M  V30 15 C 2.200142 0.052117 -0.034096 0
M  V30 16 S 2.855683 -1.579698 -0.558707 0
M  V30 17 C 1.539246 -2.493383 0.160672 0
M  V30 18 C 0.734430 -1.589077 0.717701 0
M  V30 19 C 1.032521 -0.255200 0.643294 0
M  V30 20 C -0.443200 -2.172709 1.406557 0
M  V30 21 C -0.374042 -3.659911 1.448192 0
M  V30 22 N 0.094430 -4.304496 0.252960 0
M  V30 23 C -0.729326 -5.117981 -0.553815 0
M  V30 24 O -0.121221 -5.581692 -1.548868 0
M  V30 25 C -1.470861 -5.984500 -1.480741 0
M  V30 26 C -2.474249 -6.949448 -0.930415 0
M  V30 27 C -2.934895 -5.703705 -1.712199 0
M  V30 28 C 1.483344 -3.969321 0.065601 0
M  V30 29 H -3.240661 0.495015 4.374396 0
M  V30 30 H -1.528206 0.664730 4.063580 0
M  V30 31 H -3.089775 2.946908 3.289613 0
M  V30 32 H -3.469046 1.449450 2.381086 0
M  V30 33 H -1.616697 2.825992 1.412722 0
M  V30 34 H -0.708449 2.694594 2.946219 0
M  V30 35 H -1.444780 0.144491 2.099344 0
M  V30 36 H 4.283758 2.926809 -1.061099 0
M  V30 37 H 5.282557 5.066816 -1.494108 0
M  V30 38 H 2.095686 6.934942 0.561813 0
M  V30 39 H 1.015497 4.715187 1.037468 0
M  V30 40 H -1.404641 -1.883443 0.954336 0
M  V30 41 H -0.479779 -1.864431 2.487556 0
M  V30 42 H 0.326961 -3.959524 2.283066 0
M  V30 43 H -1.350776 -4.097084 1.777400 0
M  V30 44 H -0.915036 -6.387346 -2.359264 0
M  V30 45 H -2.636649 -7.919731 -1.427355 0
M  V30 46 H -2.583865 -6.898876 0.184173 0
M  V30 47 H -3.329220 -4.862011 -1.132657 0
M  V30 48 H -3.365805 -5.894781 -2.721810 0
M  V30 49 H 1.743641 -4.332984 -0.969898 0
M  V30 50 H 2.147172 -4.466475 0.797445 0
M  V30 END ATOM
M  V30 BEGIN BOND
M  V30 1 1 1 2
M  V30 2 1 2 3
M  V30 3 1 3 4
M  V30 4 1 4 5
M  V30 5 2 5 6
M  V30 6 1 6 7
M  V30 7 1 7 8
M  V30 8 2 8 9
M  V30 9 1 9 10
M  V30 10 2 10 11
M  V30 11 1 11 12
M  V30 12 2 12 13
M  V30 13 2 7 14
M  V30 14 1 14 15
M  V30 15 1 15 16
M  V30 16 1 16 17
M  V30 17 2 17 18
M  V30 18 1 18 19
M  V30 19 1 18 20
M  V30 20 1 20 21
M  V30 21 1 21 22
M  V30 22 1 22 23
M  V30 23 2 23 24
M  V30 24 1 23 25
M  V30 25 1 25 26
M  V30 26 1 26 27
M  V30 27 1 22 28
M  V30 28 1 19 5
M  V30 29 1 27 25
M  V30 30 1 13 8
M  V30 31 2 19 15
M  V30 32 1 28 17
M  V30 33 1 1 29
M  V30 34 1 1 30
M  V30 35 1 2 31
M  V30 36 1 2 32
M  V30 37 1 3 33
M  V30 38 1 3 34
M  V30 39 1 4 35
M  V30 40 1 9 36
M  V30 41 1 10 37
M  V30 42 1 12 38
M  V30 43 1 13 39
M  V30 44 1 20 40
M  V30 45 1 20 41
M  V30 46 1 21 42
M  V30 47 1 21 43
M  V30 48 1 25 44
M  V30 49 1 26 45
M  V30 50 1 26 46
M  V30 51 1 27 47
M  V30 52 1 27 48
M  V30 53 1 28 49
M  V30 54 1 28 50
M  V30 END BOND
M  V30 END CTAB
M  END
>  <Dataset>  (299) 
ChEMBL_Kinases

>  <Ligand_Instance>  (299) 
nan

>  <PDB_ID>  (299) 
nan

>  <Standardized_SMILES>  (299) 
NCCNc1nc(-c2ccncc2)nc2sc3c(c12)CCN(C(=O)C1CC1)C3

>  <Name>  (299) 
nan

>  <Pocket>  (299) 
nan

>  <ATP_Site>  (299) 
nan

>  <Peripheral>  (299) 
nan

>  <Num_H_Atoms_ProtBoundConf>  (299) 
nan

>  <Num_Resolved_Atoms>  (299) 
nan

>  <Num_Not_Resolved_Atoms>  (299) 
nan

$$$$
CHEMBL3732559
     RDKit          3D

  0  0  0  0  0  0  0  0  0  0999 V3000
M  V30 BEGIN CTAB
M  V30 COUNTS 39 42 0 0 0
M  V30 BEGIN ATOM
M  V30 1 C -2.664343 -4.468956 -0.027491 0
M  V30 2 C -1.922198 -3.356634 0.489265 0
M  V30 3 S -0.544989 -2.510732 -0.502575 0
M  V30 4 C -0.152612 -1.347204 0.696198 0
M  V30 5 C 0.773534 -0.326088 0.767885 0
M  V30 6 N 1.603439 -0.111079 -0.329251 0
M  V30 7 C 1.751828 -0.684429 -1.614827 0 CFG=1
M  V30 8 C 0.597679 -0.491315 -2.562536 0
M  V30 9 C 1.138172 0.513635 -3.577298 0
M  V30 10 N 2.561020 0.380493 -3.565702 0
M  V30 11 C 2.973235 -0.308780 -2.380841 0
M  V30 12 N 0.869862 0.452714 1.867849 0
M  V30 13 C 0.029622 0.192502 2.884033 0
M  V30 14 C 0.075969 0.999205 4.114675 0
M  V30 15 C 1.004445 2.013603 4.172320 0
M  V30 16 C 1.029008 2.756915 5.337408 0
M  V30 17 N 0.211690 2.550697 6.401931 0
M  V30 18 C -0.694356 1.552431 6.332081 0
M  V30 19 C -0.756855 0.776609 5.179150 0
M  V30 20 N -0.879677 -0.793616 2.839696 0
M  V30 21 C -1.015517 -1.596314 1.769224 0
M  V30 22 C -1.923276 -2.609168 1.691619 0
M  V30 23 Br -3.215625 -3.188197 2.966976 0
M  V30 24 H -2.813964 -5.208703 0.804979 0
M  V30 25 H -2.158094 -4.939730 -0.888683 0
M  V30 26 H -3.680534 -4.161798 -0.347123 0
M  V30 27 H 2.316874 0.669915 -0.214635 0
M  V30 28 H 1.820946 -1.806097 -1.463971 0
M  V30 29 H -0.294715 -0.039704 -2.142001 0
M  V30 30 H 0.333651 -1.405707 -3.119146 0
M  V30 31 H 0.723266 0.261483 -4.591249 0
M  V30 32 H 0.784764 1.535840 -3.351212 0
M  V30 33 H 2.854869 -0.117285 -4.431598 0
M  V30 34 H 3.695671 0.299754 -1.764294 0
M  V30 35 H 3.596411 -1.189220 -2.700099 0
M  V30 36 H 1.663202 2.205138 3.355413 0
M  V30 37 H 1.764397 3.560410 5.383159 0
M  V30 38 H -1.386118 1.324539 7.146419 0
M  V30 39 H -1.483715 -0.025934 5.120364 0
M  V30 END ATOM
M  V30 BEGIN BOND
M  V30 1 1 1 2
M  V30 2 1 2 3
M  V30 3 1 3 4
M  V30 4 2 4 5
M  V30 5 1 5 6
M  V30 6 1 6 7
M  V30 7 1 7 8
M  V30 8 1 8 9
M  V30 9 1 9 10
M  V30 10 1 10 11
M  V30 11 1 5 12
M  V30 12 2 12 13
M  V30 13 1 13 14
M  V30 14 2 14 15
M  V30 15 1 15 16
M  V30 16 2 16 17
M  V30 17 1 17 18
M  V30 18 2 18 19
M  V30 19 1 13 20
M  V30 20 2 20 21
M  V30 21 1 21 22
M  V30 22 1 22 23
M  V30 23 2 22 2
M  V30 24 1 21 4
M  V30 25 1 11 7
M  V30 26 1 19 14
M  V30 27 1 1 24
M  V30 28 1 1 25
M  V30 29 1 1 26
M  V30 30 1 6 27
M  V30 31 1 7 28 CFG=1
M  V30 32 1 8 29
M  V30 33 1 8 30
M  V30 34 1 9 31
M  V30 35 1 9 32
M  V30 36 1 10 33
M  V30 37 1 11 34
M  V30 38 1 11 35
M  V30 39 1 15 36
M  V30 40 1 16 37
M  V30 41 1 18 38
M  V30 42 1 19 39
M  V30 END BOND
M  V30 END CTAB
M  END
>  <Dataset>  (300) 
ChEMBL_Kinases

>  <Ligand_Instance>  (300) 
nan

>  <PDB_ID>  (300) 
nan

>  <Standardized_SMILES>  (300) 
Cc1sc2c(N[C@H]3CCNC3)nc(-c3ccncc3)nc2c1Br

>  <Name>  (300) 
nan

>  <Pocket>  (300) 
nan

>  <ATP_Site>  (300) 
nan

>  <Peripheral>  (300) 
nan

>  <Num_H_Atoms_ProtBoundConf>  (300) 
nan

>  <Num_Resolved_Atoms>  (300) 
nan

>  <Num_Not_Resolved_Atoms>  (300) 
nan

$$$$
CHEMBL521970
     RDKit          3D

  0  0  0  0  0  0  0  0  0  0999 V3000
M  V30 BEGIN CTAB
M  V30 COUNTS 53 56 0 0 0
M  V30 BEGIN ATOM
M  V30 1 C 2.657530 -4.058609 1.969701 0
M  V30 2 O 2.541394 -2.820566 2.598904 0
M  V30 3 C 3.554065 -1.933238 2.878843 0
M  V30 4 C 4.813727 -2.367960 2.467333 0
M  V30 5 C 5.930418 -1.597423 2.673270 0
M  V30 6 C 5.769005 -0.392143 3.293840 0
M  V30 7 C 4.546423 0.076693 3.716444 0
M  V30 8 C 3.419373 -0.691684 3.512959 0
M  V30 9 C 2.000261 -0.435549 3.866843 0
M  V30 10 N 1.176696 -0.079817 2.734285 0
M  V30 11 C 1.460514 1.075420 1.955747 0
M  V30 12 N 2.509535 1.848521 2.279826 0
M  V30 13 C 2.850998 2.958248 1.601497 0
M  V30 14 N 2.134494 3.355858 0.534528 0
M  V30 15 C 1.064979 2.638244 0.139666 0
M  V30 16 C 0.286633 2.988115 -0.944910 0
M  V30 17 C -0.815513 2.252396 -1.356321 0
M  V30 18 C -1.128211 1.107638 -0.618102 0
M  V30 19 C -2.279715 0.294082 -1.006490 0
M  V30 20 C -3.444168 0.757803 -1.585301 0
M  V30 21 C -4.458213 -0.125786 -1.904441 0
M  V30 22 C -4.347415 -1.485073 -1.660384 0
M  V30 23 N -5.376951 -2.419086 -1.978889 0
M  V30 24 C -5.188440 -3.830614 -1.693389 0
M  V30 25 C -6.605890 -1.970441 -2.582830 0
M  V30 26 C -3.174392 -1.930375 -1.080434 0
M  V30 27 C -2.132654 -1.060497 -0.747184 0
M  V30 28 C -0.338086 0.776500 0.461298 0
M  V30 29 C 0.747632 1.510230 0.858395 0
M  V30 30 H 1.702868 -4.614044 2.204991 0
M  V30 31 H 2.768687 -3.940261 0.858046 0
M  V30 32 H 3.497819 -4.670261 2.299493 0
M  V30 33 H 4.988501 -3.319545 1.970250 0
M  V30 34 H 6.909609 -1.925003 2.358446 0
M  V30 35 H 6.599948 0.268609 3.490502 0
M  V30 36 H 4.321651 1.008562 4.215316 0
M  V30 37 H 1.607050 -1.303119 4.393246 0
M  V30 38 H 1.938552 0.440382 4.573511 0
M  V30 39 H 0.382563 -0.727627 2.548355 0
M  V30 40 H 3.716332 3.551590 1.909274 0
M  V30 41 H 0.581641 3.886181 -1.475473 0
M  V30 42 H -1.406065 2.561815 -2.219395 0
M  V30 43 H -3.500761 1.821299 -1.763008 0
M  V30 44 H -5.364829 0.254714 -2.357487 0
M  V30 45 H -4.334679 -4.166912 -2.306162 0
M  V30 46 H -4.898966 -3.939584 -0.620905 0
M  V30 47 H -6.117169 -4.386774 -1.925807 0
M  V30 48 H -7.413502 -2.705905 -2.403347 0
M  V30 49 H -6.541715 -1.833977 -3.678489 0
M  V30 50 H -6.988846 -1.011770 -2.168719 0
M  V30 51 H -3.104263 -3.013067 -0.894116 0
M  V30 52 H -1.283593 -1.571406 -0.300705 0
M  V30 53 H -0.648797 -0.118768 0.975085 0
M  V30 END ATOM
M  V30 BEGIN BOND
M  V30 1 1 1 2
M  V30 2 1 2 3
M  V30 3 2 3 4
M  V30 4 1 4 5
M  V30 5 2 5 6
M  V30 6 1 6 7
M  V30 7 2 7 8
M  V30 8 1 8 9
M  V30 9 1 9 10
M  V30 10 1 10 11
M  V30 11 2 11 12
M  V30 12 1 12 13
M  V30 13 2 13 14
M  V30 14 1 14 15
M  V30 15 2 15 16
M  V30 16 1 16 17
M  V30 17 2 17 18
M  V30 18 1 18 19
M  V30 19 2 19 20
M  V30 20 1 20 21
M  V30 21 2 21 22
M  V30 22 1 22 23
M  V30 23 1 23 24
M  V30 24 1 23 25
M  V30 25 1 22 26
M  V30 26 2 26 27
M  V30 27 1 18 28
M  V30 28 2 28 29
M  V30 29 1 8 3
M  V30 30 1 29 11
M  V30 31 1 29 15
M  V30 32 1 27 19
M  V30 33 1 1 30
M  V30 34 1 1 31
M  V30 35 1 1 32
M  V30 36 1 4 33
M  V30 37 1 5 34
M  V30 38 1 6 35
M  V30 39 1 7 36
M  V30 40 1 9 37
M  V30 41 1 9 38
M  V30 42 1 10 39
M  V30 43 1 13 40
M  V30 44 1 16 41
M  V30 45 1 17 42
M  V30 46 1 20 43
M  V30 47 1 21 44
M  V30 48 1 24 45
M  V30 49 1 24 46
M  V30 50 1 24 47
M  V30 51 1 25 48
M  V30 52 1 25 49
M  V30 53 1 25 50
M  V30 54 1 26 51
M  V30 55 1 27 52
M  V30 56 1 28 53
M  V30 END BOND
M  V30 END CTAB
M  END
>  <Dataset>  (301) 
ChEMBL_Kinases

>  <Ligand_Instance>  (301) 
nan

>  <PDB_ID>  (301) 
nan

>  <Standardized_SMILES>  (301) 
COc1ccccc1CNc1ncnc2ccc(-c3ccc(N(C)C)cc3)cc12

>  <Name>  (301) 
nan

>  <Pocket>  (301) 
nan

>  <ATP_Site>  (301) 
nan

>  <Peripheral>  (301) 
nan

>  <Num_H_Atoms_ProtBoundConf>  (301) 
nan

>  <Num_Resolved_Atoms>  (301) 
nan

>  <Num_Not_Resolved_Atoms>  (301) 
nan

$$$$
CHEMBL3732036
     RDKit          3D

  0  0  0  0  0  0  0  0  0  0999 V3000
M  V30 BEGIN CTAB
M  V30 COUNTS 58 62 0 0 0
M  V30 BEGIN ATOM
M  V30 1 C -0.378205 -4.336175 4.398258 0
M  V30 2 C 0.410684 -3.066503 4.068417 0
M  V30 3 C 1.832020 -3.429438 3.724153 0
M  V30 4 C 2.673067 -2.229736 3.388888 0
M  V30 5 N 2.270604 -1.443556 2.306686 0
M  V30 6 C 2.344640 -1.964937 1.006745 0
M  V30 7 C 1.933902 -0.998258 -0.071998 0
M  V30 8 N 0.784662 -0.201519 0.309949 0
M  V30 9 C -0.220786 0.379022 -0.511324 0
M  V30 10 N 0.067066 1.698658 -0.592285 0
M  V30 11 C -0.641743 2.585751 -1.325650 0
M  V30 12 C -0.370168 4.013829 -1.445002 0
M  V30 13 C 0.719376 4.499498 -0.736266 0
M  V30 14 C 0.947126 5.852118 -0.872749 0
M  V30 15 N 0.197025 6.691330 -1.627513 0
M  V30 16 C -0.870599 6.193960 -2.316842 0
M  V30 17 C -1.150768 4.844128 -2.220602 0
M  V30 18 N -1.688454 2.086694 -2.000942 0
M  V30 19 C -2.004657 0.800766 -1.947895 0
M  V30 20 S -3.260067 -0.203633 -2.654001 0
M  V30 21 C -2.748357 -1.773609 -1.906605 0
M  V30 22 C -1.654948 -1.424605 -1.170096 0
M  V30 23 C -1.298756 -0.105002 -1.211678 0
M  V30 24 C -1.246416 -2.696747 -0.543309 0
M  V30 25 C -1.086227 -3.711774 -1.686794 0
M  V30 26 C -2.513864 -4.221065 -1.909445 0
M  V30 27 C -3.422308 -3.056663 -2.113582 0
M  V30 28 C 0.516848 0.119489 1.709771 0
M  V30 29 C 1.769509 -0.148145 2.515525 0
M  V30 30 H -1.083898 -4.151510 5.220369 0
M  V30 31 H -0.949314 -4.668354 3.521747 0
M  V30 32 H 0.313676 -5.163292 4.647070 0
M  V30 33 H 0.314274 -2.403848 4.950103 0
M  V30 34 H -0.121178 -2.585168 3.223307 0
M  V30 35 H 2.259400 -3.914794 4.625551 0
M  V30 36 H 1.807981 -4.184481 2.927423 0
M  V30 37 H 3.736933 -2.576919 3.259131 0
M  V30 38 H 2.714854 -1.581615 4.291732 0
M  V30 39 H 1.895987 -2.974306 0.875191 0
M  V30 40 H 3.445147 -2.158244 0.806253 0
M  V30 41 H 1.770624 -1.517758 -1.038097 0
M  V30 42 H 2.775030 -0.296341 -0.237348 0
M  V30 43 H 1.380067 3.908178 -0.105077 0
M  V30 44 H 1.796160 6.294753 -0.335021 0
M  V30 45 H -1.531993 6.798959 -2.950872 0
M  V30 46 H -2.002842 4.453977 -2.772409 0
M  V30 47 H -2.053877 -3.042606 0.152824 0
M  V30 48 H -0.272198 -2.667894 -0.052074 0
M  V30 49 H -0.391075 -4.514204 -1.444551 0
M  V30 50 H -0.740810 -3.125645 -2.561164 0
M  V30 51 H -2.774586 -4.795523 -0.984881 0
M  V30 52 H -2.500800 -4.960817 -2.729710 0
M  V30 53 H -4.335128 -3.214532 -1.499097 0
M  V30 54 H -3.799411 -3.119934 -3.179212 0
M  V30 55 H 0.359742 1.233762 1.786021 0
M  V30 56 H -0.301987 -0.452248 2.143169 0
M  V30 57 H 2.553657 0.586467 2.199316 0
M  V30 58 H 1.569967 0.002208 3.583755 0
M  V30 END ATOM
M  V30 BEGIN BOND
M  V30 1 1 1 2
M  V30 2 1 2 3
M  V30 3 1 3 4
M  V30 4 1 4 5
M  V30 5 1 5 6
M  V30 6 1 6 7
M  V30 7 1 7 8
M  V30 8 1 8 9
M  V30 9 2 9 10
M  V30 10 1 10 11
M  V30 11 1 11 12
M  V30 12 2 12 13
M  V30 13 1 13 14
M  V30 14 2 14 15
M  V30 15 1 15 16
M  V30 16 2 16 17
M  V30 17 2 11 18
M  V30 18 1 18 19
M  V30 19 1 19 20
M  V30 20 1 20 21
M  V30 21 2 21 22
M  V30 22 1 22 23
M  V30 23 1 22 24
M  V30 24 1 24 25
M  V30 25 1 25 26
M  V30 26 1 26 27
M  V30 27 1 8 28
M  V30 28 1 28 29
M  V30 29 1 29 5
M  V30 30 1 23 9
M  V30 31 1 17 12
M  V30 32 2 23 19
M  V30 33 1 27 21
M  V30 34 1 1 30
M  V30 35 1 1 31
M  V30 36 1 1 32
M  V30 37 1 2 33
M  V30 38 1 2 34
M  V30 39 1 3 35
M  V30 40 1 3 36
M  V30 41 1 4 37
M  V30 42 1 4 38
M  V30 43 1 6 39
M  V30 44 1 6 40
M  V30 45 1 7 41
M  V30 46 1 7 42
M  V30 47 1 13 43
M  V30 48 1 14 44
M  V30 49 1 16 45
M  V30 50 1 17 46
M  V30 51 1 24 47
M  V30 52 1 24 48
M  V30 53 1 25 49
M  V30 54 1 25 50
M  V30 55 1 26 51
M  V30 56 1 26 52
M  V30 57 1 27 53
M  V30 58 1 27 54
M  V30 59 1 28 55
M  V30 60 1 28 56
M  V30 61 1 29 57
M  V30 62 1 29 58
M  V30 END BOND
M  V30 END CTAB
M  END
>  <Dataset>  (302) 
ChEMBL_Kinases

>  <Ligand_Instance>  (302) 
nan

>  <PDB_ID>  (302) 
nan

>  <Standardized_SMILES>  (302) 
CCCCN1CCN(c2nc(-c3ccncc3)nc3sc4c(c23)CCCC4)CC1

>  <Name>  (302) 
nan

>  <Pocket>  (302) 
nan

>  <ATP_Site>  (302) 
nan

>  <Peripheral>  (302) 
nan

>  <Num_H_Atoms_ProtBoundConf>  (302) 
nan

>  <Num_Resolved_Atoms>  (302) 
nan

>  <Num_Not_Resolved_Atoms>  (302) 
nan

$$$$
CHEMBL3732034
     RDKit          3D

  0  0  0  0  0  0  0  0  0  0999 V3000
M  V30 BEGIN CTAB
M  V30 COUNTS 59 64 0 0 0
M  V30 BEGIN ATOM
M  V30 1 Cl 1.808324 1.937801 3.264021 0
M  V30 2 C 3.327064 1.055491 3.327519 0
M  V30 3 C 3.812178 0.727312 4.596853 0
M  V30 4 C 5.008742 0.032074 4.640508 0
M  V30 5 C 5.729170 -0.343307 3.499611 0
M  V30 6 C 5.188268 0.015891 2.259931 0
M  V30 7 C 3.982053 0.719123 2.158476 0
M  V30 8 C 3.440005 1.085112 0.825455 0
M  V30 9 N 2.348772 0.275032 0.413820 0
M  V30 10 C 1.784377 0.576235 -0.862058 0
M  V30 11 C 0.907932 -0.567823 -1.349467 0
M  V30 12 N 0.171078 -1.046055 -0.163372 0
M  V30 13 C -1.245356 -0.974946 -0.102032 0
M  V30 14 N -1.656727 -0.111716 0.829404 0
M  V30 15 C -2.910292 0.206440 1.124781 0
M  V30 16 C -3.344931 1.150570 2.143985 0
M  V30 17 C -2.412702 1.813260 2.914533 0
M  V30 18 C -2.810332 2.717152 3.889962 0
M  V30 19 N -4.117987 2.950373 4.087486 0
M  V30 20 C -5.050384 2.300138 3.330643 0
M  V30 21 C -4.691316 1.392586 2.349498 0
M  V30 22 N -3.831696 -0.431086 0.384101 0
M  V30 23 C -3.482310 -1.307391 -0.563512 0
M  V30 24 S -4.409184 -2.320108 -1.716522 0
M  V30 25 C -3.002790 -3.097844 -2.507275 0
M  V30 26 C -1.933241 -2.547190 -1.854763 0
M  V30 27 C -2.178512 -1.634295 -0.865541 0
M  V30 28 C -0.684411 -3.132631 -2.408550 0
M  V30 29 C -0.950864 -4.546895 -2.879921 0
M  V30 30 C -1.848168 -4.502258 -4.076761 0
M  V30 31 C -3.197376 -4.048086 -3.566115 0
M  V30 32 C 0.971096 -1.595328 0.943778 0
M  V30 33 C 2.394918 -1.103123 0.772498 0
M  V30 34 H 3.296024 0.991987 5.509130 0
M  V30 35 H 5.443528 -0.257708 5.596212 0
M  V30 36 H 6.657557 -0.883946 3.572696 0
M  V30 37 H 5.732761 -0.265314 1.344595 0
M  V30 38 H 4.272217 1.079927 0.103472 0
M  V30 39 H 3.072326 2.146197 0.846544 0
M  V30 40 H 1.172609 1.513475 -0.725773 0
M  V30 41 H 2.562063 0.868787 -1.595812 0
M  V30 42 H 1.579023 -1.369754 -1.670521 0
M  V30 43 H 0.224990 -0.172945 -2.104182 0
M  V30 44 H -1.348863 1.664256 2.799107 0
M  V30 45 H -2.085221 3.235642 4.492850 0
M  V30 46 H -6.068724 2.562374 3.573278 0
M  V30 47 H -5.462288 0.902429 1.774951 0
M  V30 48 H 0.086968 -3.277114 -1.590525 0
M  V30 49 H -0.248259 -2.573570 -3.240571 0
M  V30 50 H -0.000602 -5.049693 -3.054709 0
M  V30 51 H -1.550879 -5.035902 -2.055341 0
M  V30 52 H -1.502356 -3.740856 -4.802227 0
M  V30 53 H -1.979765 -5.461213 -4.584751 0
M  V30 54 H -3.810147 -3.680013 -4.416039 0
M  V30 55 H -3.714917 -4.955713 -3.176088 0
M  V30 56 H 0.601404 -1.261706 1.912418 0
M  V30 57 H 0.877358 -2.696598 0.868160 0
M  V30 58 H 2.883306 -1.168833 1.765584 0
M  V30 59 H 2.863360 -1.773641 0.026117 0
M  V30 END ATOM
M  V30 BEGIN BOND
M  V30 1 1 1 2
M  V30 2 2 2 3
M  V30 3 1 3 4
M  V30 4 2 4 5
M  V30 5 1 5 6
M  V30 6 2 6 7
M  V30 7 1 7 8
M  V30 8 1 8 9
M  V30 9 1 9 10
M  V30 10 1 10 11
M  V30 11 1 11 12
M  V30 12 1 12 13
M  V30 13 2 13 14
M  V30 14 1 14 15
M  V30 15 1 15 16
M  V30 16 2 16 17
M  V30 17 1 17 18
M  V30 18 2 18 19
M  V30 19 1 19 20
M  V30 20 2 20 21
M  V30 21 2 15 22
M  V30 22 1 22 23
M  V30 23 1 23 24
M  V30 24 1 24 25
M  V30 25 2 25 26
M  V30 26 1 26 27
M  V30 27 1 26 28
M  V30 28 1 28 29
M  V30 29 1 29 30
M  V30 30 1 30 31
M  V30 31 1 12 32
M  V30 32 1 32 33
M  V30 33 1 7 2
M  V30 34 1 33 9
M  V30 35 1 27 13
M  V30 36 1 21 16
M  V30 37 2 27 23
M  V30 38 1 31 25
M  V30 39 1 3 34
M  V30 40 1 4 35
M  V30 41 1 5 36
M  V30 42 1 6 37
M  V30 43 1 8 38
M  V30 44 1 8 39
M  V30 45 1 10 40
M  V30 46 1 10 41
M  V30 47 1 11 42
M  V30 48 1 11 43
M  V30 49 1 17 44
M  V30 50 1 18 45
M  V30 51 1 20 46
M  V30 52 1 21 47
M  V30 53 1 28 48
M  V30 54 1 28 49
M  V30 55 1 29 50
M  V30 56 1 29 51
M  V30 57 1 30 52
M  V30 58 1 30 53
M  V30 59 1 31 54
M  V30 60 1 31 55
M  V30 61 1 32 56
M  V30 62 1 32 57
M  V30 63 1 33 58
M  V30 64 1 33 59
M  V30 END BOND
M  V30 END CTAB
M  END
>  <Dataset>  (303) 
ChEMBL_Kinases

>  <Ligand_Instance>  (303) 
nan

>  <PDB_ID>  (303) 
nan

>  <Standardized_SMILES>  (303) 
Clc1ccccc1CN1CCN(c2nc(-c3ccncc3)nc3sc4c(c23)CCCC4)CC1

>  <Name>  (303) 
nan

>  <Pocket>  (303) 
nan

>  <ATP_Site>  (303) 
nan

>  <Peripheral>  (303) 
nan

>  <Num_H_Atoms_ProtBoundConf>  (303) 
nan

>  <Num_Resolved_Atoms>  (303) 
nan

>  <Num_Not_Resolved_Atoms>  (303) 
nan

$$$$
CHEMBL3732021
     RDKit          3D

  0  0  0  0  0  0  0  0  0  0999 V3000
M  V30 BEGIN CTAB
M  V30 COUNTS 72 76 0 0 0
M  V30 BEGIN ATOM
M  V30 1 C 2.755857 2.633587 3.588717 0
M  V30 2 O 2.423140 1.659724 2.591193 0
M  V30 3 C 3.403158 1.374434 1.663004 0
M  V30 4 C 4.653499 1.978027 1.664312 0
M  V30 5 C 5.563663 1.615430 0.682300 0
M  V30 6 C 5.228506 0.655981 -0.294710 0
M  V30 7 C 3.958679 0.043883 -0.294826 0
M  V30 8 O 4.043050 -0.777800 -1.355241 0
M  V30 9 C 3.095189 -1.650439 -1.839129 0
M  V30 10 C 3.655121 -3.054732 -2.068957 0
M  V30 11 C 2.628563 -1.089250 -3.194699 0
M  V30 12 C 3.112561 0.442610 0.693355 0
M  V30 13 C 1.810590 -0.176406 0.684964 0
M  V30 14 C 1.750237 -1.357062 1.492273 0
M  V30 15 C 2.669062 -2.112356 2.334333 0
M  V30 16 S -0.037317 -1.933885 1.310390 0
M  V30 17 C -0.529336 -0.647045 0.248863 0
M  V30 18 C -1.698601 -0.217242 -0.433329 0
M  V30 19 N -2.687539 -1.165491 -0.114022 0
M  V30 20 C -3.686596 -2.121802 0.207461 0
M  V30 21 C -4.862950 -1.629944 1.003821 0 CFG=1
M  V30 22 N -5.590931 -0.585850 0.323973 0
M  V30 23 C -5.800852 -2.792336 1.171591 0
M  V30 24 C -5.162435 -3.952682 1.889452 0
M  V30 25 C -5.252558 -3.986813 3.279235 0
M  V30 26 C -4.704311 -5.013895 4.055578 0
M  V30 27 C -4.039928 -6.045198 3.394506 0
M  V30 28 C -3.948882 -6.015280 2.021598 0
M  V30 29 C -4.498789 -4.987278 1.261369 0
M  V30 30 N -1.715597 0.871509 -1.198348 0
M  V30 31 C -0.588448 1.579361 -1.324646 0
M  V30 32 C -0.643850 2.767165 -2.174861 0
M  V30 33 C -1.815216 3.110985 -2.805338 0
M  V30 34 C -1.781297 4.254335 -3.596815 0
M  V30 35 N -0.624945 4.938083 -3.693737 0
M  V30 36 C 0.505502 4.592257 -3.076212 0
M  V30 37 C 0.560509 3.463242 -2.265070 0
M  V30 38 N 0.511581 1.179116 -0.686732 0
M  V30 39 C 0.606767 0.100966 0.097126 0
M  V30 40 H 3.628174 2.173544 4.123203 0
M  V30 41 H 3.025462 3.607476 3.146682 0
M  V30 42 H 1.901994 2.762304 4.260084 0
M  V30 43 H 4.802783 2.695245 2.455879 0
M  V30 44 H 6.480306 2.181729 0.831263 0
M  V30 45 H 6.127176 0.588952 -0.908137 0
M  V30 46 H 2.172574 -1.777081 -1.260539 0
M  V30 47 H 2.767929 -3.713042 -2.206509 0
M  V30 48 H 4.202985 -3.018634 -3.011664 0
M  V30 49 H 4.259575 -3.400771 -1.208089 0
M  V30 50 H 1.616045 -1.447611 -3.434750 0
M  V30 51 H 2.666336 0.010199 -3.126594 0
M  V30 52 H 3.328508 -1.516848 -3.940231 0
M  V30 53 H 2.801380 -3.182419 2.053347 0
M  V30 54 H 2.383769 -2.090135 3.423053 0
M  V30 55 H 3.668168 -1.641666 2.259289 0
M  V30 56 H -3.486932 -0.703988 -0.663990 0
M  V30 57 H -3.207962 -2.907876 0.907309 0
M  V30 58 H -4.005077 -2.770177 -0.658973 0
M  V30 59 H -4.457626 -1.264889 1.971317 0
M  V30 60 H -5.227700 0.376923 0.488950 0
M  V30 61 H -5.516973 -0.757280 -0.695786 0
M  V30 62 H -6.674674 -2.444146 1.771322 0
M  V30 63 H -6.081797 -3.138817 0.156004 0
M  V30 64 H -5.769225 -3.191303 3.815479 0
M  V30 65 H -4.779785 -5.030267 5.130924 0
M  V30 66 H -3.605501 -6.857937 3.984887 0
M  V30 67 H -3.436110 -6.812445 1.483083 0
M  V30 68 H -4.434000 -4.955272 0.182091 0
M  V30 69 H -2.708823 2.495387 -2.669622 0
M  V30 70 H -2.693387 4.538152 -4.099313 0
M  V30 71 H 1.417091 5.185037 -3.187532 0
M  V30 72 H 1.452733 3.141619 -1.744546 0
M  V30 END ATOM
M  V30 BEGIN BOND
M  V30 1 1 1 2
M  V30 2 1 2 3
M  V30 3 2 3 4
M  V30 4 1 4 5
M  V30 5 2 5 6
M  V30 6 1 6 7
M  V30 7 1 7 8
M  V30 8 1 8 9
M  V30 9 1 9 10
M  V30 10 1 9 11
M  V30 11 2 7 12
M  V30 12 1 12 13
M  V30 13 2 13 14
M  V30 14 1 14 15
M  V30 15 1 14 16
M  V30 16 1 16 17
M  V30 17 2 17 18
M  V30 18 1 18 19
M  V30 19 1 19 20
M  V30 20 1 20 21
M  V30 21 1 21 22
M  V30 22 1 21 23
M  V30 23 1 23 24
M  V30 24 2 24 25
M  V30 25 1 25 26
M  V30 26 2 26 27
M  V30 27 1 27 28
M  V30 28 2 28 29
M  V30 29 1 18 30
M  V30 30 2 30 31
M  V30 31 1 31 32
M  V30 32 2 32 33
M  V30 33 1 33 34
M  V30 34 2 34 35
M  V30 35 1 35 36
M  V30 36 2 36 37
M  V30 37 1 31 38
M  V30 38 2 38 39
M  V30 39 1 12 3
M  V30 40 1 39 13
M  V30 41 1 39 17
M  V30 42 1 29 24
M  V30 43 1 37 32
M  V30 44 1 1 40
M  V30 45 1 1 41
M  V30 46 1 1 42
M  V30 47 1 4 43
M  V30 48 1 5 44
M  V30 49 1 6 45
M  V30 50 1 9 46
M  V30 51 1 10 47
M  V30 52 1 10 48
M  V30 53 1 10 49
M  V30 54 1 11 50
M  V30 55 1 11 51
M  V30 56 1 11 52
M  V30 57 1 15 53
M  V30 58 1 15 54
M  V30 59 1 15 55
M  V30 60 1 19 56
M  V30 61 1 20 57
M  V30 62 1 20 58
M  V30 63 1 21 59 CFG=1
M  V30 64 1 22 60
M  V30 65 1 22 61
M  V30 66 1 23 62
M  V30 67 1 23 63
M  V30 68 1 25 64
M  V30 69 1 26 65
M  V30 70 1 27 66
M  V30 71 1 28 67
M  V30 72 1 29 68
M  V30 73 1 33 69
M  V30 74 1 34 70
M  V30 75 1 36 71
M  V30 76 1 37 72
M  V30 END BOND
M  V30 END CTAB
M  END
>  <Dataset>  (304) 
ChEMBL_Kinases

>  <Ligand_Instance>  (304) 
nan

>  <PDB_ID>  (304) 
nan

>  <Standardized_SMILES>  (304) 
COc1cccc(OC(C)C)c1-c1c(C)sc2c(NC[C@@H](N)Cc3ccccc3)nc(-c3ccncc3)nc12

>  <Name>  (304) 
nan

>  <Pocket>  (304) 
nan

>  <ATP_Site>  (304) 
nan

>  <Peripheral>  (304) 
nan

>  <Num_H_Atoms_ProtBoundConf>  (304) 
nan

>  <Num_Resolved_Atoms>  (304) 
nan

>  <Num_Not_Resolved_Atoms>  (304) 
nan

$$$$
CHEMBL522129
     RDKit          3D

  0  0  0  0  0  0  0  0  0  0999 V3000
M  V30 BEGIN CTAB
M  V30 COUNTS 40 44 0 0 0
M  V30 BEGIN ATOM
M  V30 1 Cl 4.469649 -4.871620 3.435975 0
M  V30 2 C 4.034556 -4.293142 1.844121 0
M  V30 3 C 4.289132 -5.033745 0.709471 0
M  V30 4 C 3.950850 -4.591254 -0.563719 0
M  V30 5 C 3.337731 -3.359626 -0.665089 0
M  V30 6 C 3.079617 -2.612450 0.465704 0
M  V30 7 C 2.428710 -1.319379 0.286393 0
M  V30 8 C 2.581857 -0.492504 -0.805938 0
M  V30 9 C 1.899516 0.725916 -0.857829 0
M  V30 10 C 1.055773 1.129208 0.185171 0
M  V30 11 O 0.521485 2.362566 -0.134634 0
M  V30 12 C -0.415509 2.928948 0.711264 0
M  V30 13 C -0.132125 4.130022 1.310385 0
M  V30 14 N -0.919265 4.820485 2.153408 0
M  V30 15 C -2.105783 4.275833 2.436914 0
M  V30 16 C -2.408231 3.048065 1.830889 0
M  V30 17 S -3.962333 2.042490 2.012740 0
M  V30 18 C -3.385034 0.760245 0.908543 0
M  V30 19 C -4.162549 -0.420133 0.575425 0
M  V30 20 N -5.491374 -0.398117 0.328930 0
M  V30 21 N -5.891264 -1.637719 0.057268 0
M  V30 22 N -4.850970 -2.443481 0.125299 0
M  V30 23 N -3.781179 -1.706023 0.443413 0
M  V30 24 C -2.151921 1.160291 0.515392 0
M  V30 25 C -1.628414 2.322912 0.970085 0
M  V30 26 C 0.919413 0.289135 1.262824 0
M  V30 27 C 1.587082 -0.906776 1.316747 0
M  V30 28 C 3.415332 -3.049528 1.739563 0
M  V30 29 H 4.774145 -6.009688 0.780646 0
M  V30 30 H 4.166580 -5.201817 -1.437103 0
M  V30 31 H 3.074000 -3.013960 -1.656693 0
M  V30 32 H 3.243458 -0.855170 -1.577087 0
M  V30 33 H 2.133610 1.258227 -1.793681 0
M  V30 34 H 0.842775 4.593836 1.087541 0
M  V30 35 H -2.852129 4.709874 3.098774 0
M  V30 36 H -4.711116 -3.464981 -0.010262 0
M  V30 37 H -1.616994 0.494424 -0.180525 0
M  V30 38 H 0.254996 0.704832 1.998931 0
M  V30 39 H 1.416420 -1.496011 2.200404 0
M  V30 40 H 3.192984 -2.428631 2.596167 0
M  V30 END ATOM
M  V30 BEGIN BOND
M  V30 1 1 1 2
M  V30 2 2 2 3
M  V30 3 1 3 4
M  V30 4 2 4 5
M  V30 5 1 5 6
M  V30 6 1 6 7
M  V30 7 2 7 8
M  V30 8 1 8 9
M  V30 9 2 9 10
M  V30 10 1 10 11
M  V30 11 1 11 12
M  V30 12 2 12 13
M  V30 13 1 13 14
M  V30 14 2 14 15
M  V30 15 1 15 16
M  V30 16 1 16 17
M  V30 17 1 17 18
M  V30 18 1 18 19
M  V30 19 1 19 20
M  V30 20 2 20 21
M  V30 21 1 21 22
M  V30 22 1 22 23
M  V30 23 2 18 24
M  V30 24 1 24 25
M  V30 25 1 10 26
M  V30 26 2 26 27
M  V30 27 2 6 28
M  V30 28 1 28 2
M  V30 29 1 27 7
M  V30 30 1 25 12
M  V30 31 2 25 16
M  V30 32 2 23 19
M  V30 33 1 3 29
M  V30 34 1 4 30
M  V30 35 1 5 31
M  V30 36 1 8 32
M  V30 37 1 9 33
M  V30 38 1 13 34
M  V30 39 1 15 35
M  V30 40 1 22 36
M  V30 41 1 24 37
M  V30 42 1 26 38
M  V30 43 1 27 39
M  V30 44 1 28 40
M  V30 END BOND
M  V30 END CTAB
M  END
>  <Dataset>  (305) 
ChEMBL_Kinases

>  <Ligand_Instance>  (305) 
nan

>  <PDB_ID>  (305) 
nan

>  <Standardized_SMILES>  (305) 
Clc1cccc(-c2ccc(Oc3cncc4sc(-c5nn[nH]n5)cc34)cc2)c1

>  <Name>  (305) 
nan

>  <Pocket>  (305) 
nan

>  <ATP_Site>  (305) 
nan

>  <Peripheral>  (305) 
nan

>  <Num_H_Atoms_ProtBoundConf>  (305) 
nan

>  <Num_Resolved_Atoms>  (305) 
nan

>  <Num_Not_Resolved_Atoms>  (305) 
nan

$$$$
CHEMBL3732003
     RDKit          3D

  0  0  0  0  0  0  0  0  0  0999 V3000
M  V30 BEGIN CTAB
M  V30 COUNTS 66 71 0 0 0
M  V30 BEGIN ATOM
M  V30 1 N 3.607906 0.238512 3.773326 0
M  V30 2 C 2.955272 0.299966 2.447216 0 CFG=1
M  V30 3 C 1.538810 -0.116499 2.530229 0
M  V30 4 N 0.761830 -0.081682 1.336847 0
M  V30 5 C -0.057218 0.299498 0.207295 0
M  V30 6 N -0.595299 1.492265 -0.071053 0
M  V30 7 C -1.371331 1.908924 -1.016691 0
M  V30 8 C -1.815809 3.276504 -1.098850 0
M  V30 9 C -2.643089 3.723878 -2.095504 0
M  V30 10 C -3.123985 4.977420 -2.287173 0
M  V30 11 N -2.714219 5.863997 -1.358929 0
M  V30 12 C -1.897839 5.490277 -0.349430 0
M  V30 13 C -1.411723 4.215566 -0.158284 0
M  V30 14 N -1.686579 0.947168 -1.871834 0
M  V30 15 C -1.186141 -0.272658 -1.659086 0
M  V30 16 S -1.565681 -1.685841 -2.776495 0
M  V30 17 C -0.604331 -2.838687 -1.862741 0
M  V30 18 C -0.052189 -2.076290 -0.765135 0
M  V30 19 C -0.367649 -0.748198 -0.677610 0
M  V30 20 C 0.836102 -2.957197 0.027016 0
M  V30 21 C 0.101221 -4.190733 0.473955 0
M  V30 22 N -0.690353 -4.841380 -0.542713 0
M  V30 23 C -1.563661 -5.729198 0.132957 0
M  V30 24 O -1.317924 -5.645809 1.369125 0
M  V30 25 C -2.568680 -6.586213 -0.479372 0
M  V30 26 C -3.279525 -6.065656 -1.557007 0
M  V30 27 C -4.270756 -6.811564 -2.196775 0
M  V30 28 C -4.460120 -8.065029 -1.665670 0
M  V30 29 C -3.802067 -8.647028 -0.608604 0
M  V30 30 C -2.822461 -7.857815 -0.007700 0
M  V30 31 C -0.261398 -4.307216 -1.861046 0
M  V30 32 C 3.359271 1.532251 1.772356 0
M  V30 33 C 3.027721 2.816927 2.422593 0
M  V30 34 C 1.924021 3.567446 2.004872 0
M  V30 35 C 1.647161 4.750676 2.643933 0
M  V30 36 C 2.395549 5.248769 3.679172 0
M  V30 37 C 3.451589 4.448876 4.019374 0
M  V30 38 C 3.853904 3.241007 3.475167 0
M  V30 39 H 3.433792 -0.761855 4.093138 0
M  V30 40 H 4.632119 0.332282 3.571485 0
M  V30 41 H 3.505224 -0.550053 1.900273 0
M  V30 42 H 1.604895 -1.256128 2.771802 0
M  V30 43 H 1.019023 0.206134 3.482792 0
M  V30 44 H 0.822885 0.913086 1.713810 0
M  V30 45 H -2.937317 2.949874 -2.824902 0
M  V30 46 H -3.774905 5.273985 -3.095281 0
M  V30 47 H -1.630795 6.297833 0.348185 0
M  V30 48 H -0.767549 3.995387 0.671953 0
M  V30 49 H 1.660574 -3.334484 -0.645506 0
M  V30 50 H 1.251453 -2.470063 0.905992 0
M  V30 51 H -0.494299 -3.863316 1.372760 0
M  V30 52 H 0.831161 -4.931404 0.935206 0
M  V30 53 H -3.098144 -5.062783 -1.953237 0
M  V30 54 H -4.851167 -6.454511 -3.041486 0
M  V30 55 H -5.229049 -8.663514 -2.150955 0
M  V30 56 H -4.018066 -9.648236 -0.249739 0
M  V30 57 H -2.301613 -8.294588 0.821295 0
M  V30 58 H 0.815910 -4.481557 -2.018392 0
M  V30 59 H -0.830934 -4.765757 -2.667302 0
M  V30 60 H 4.479210 1.451868 1.601888 0
M  V30 61 H 2.982251 1.608337 0.702501 0
M  V30 62 H 1.385261 3.126237 1.180854 0
M  V30 63 H 0.765327 5.307109 2.281948 0
M  V30 64 H 2.177506 6.173833 4.170915 0
M  V30 65 H 4.085234 4.809020 4.849254 0
M  V30 66 H 4.708464 2.703729 3.840256 0
M  V30 END ATOM
M  V30 BEGIN BOND
M  V30 1 1 1 2
M  V30 2 1 2 3
M  V30 3 1 3 4
M  V30 4 1 4 5
M  V30 5 2 5 6
M  V30 6 1 6 7
M  V30 7 1 7 8
M  V30 8 2 8 9
M  V30 9 1 9 10
M  V30 10 2 10 11
M  V30 11 1 11 12
M  V30 12 2 12 13
M  V30 13 2 7 14
M  V30 14 1 14 15
M  V30 15 1 15 16
M  V30 16 1 16 17
M  V30 17 2 17 18
M  V30 18 1 18 19
M  V30 19 1 18 20
M  V30 20 1 20 21
M  V30 21 1 21 22
M  V30 22 1 22 23
M  V30 23 2 23 24
M  V30 24 1 23 25
M  V30 25 2 25 26
M  V30 26 1 26 27
M  V30 27 2 27 28
M  V30 28 1 28 29
M  V30 29 2 29 30
M  V30 30 1 22 31
M  V30 31 1 2 32
M  V30 32 1 32 33
M  V30 33 2 33 34
M  V30 34 1 34 35
M  V30 35 2 35 36
M  V30 36 1 36 37
M  V30 37 2 37 38
M  V30 38 1 19 5
M  V30 39 1 30 25
M  V30 40 1 38 33
M  V30 41 1 13 8
M  V30 42 2 19 15
M  V30 43 1 31 17
M  V30 44 1 1 39
M  V30 45 1 1 40
M  V30 46 1 2 41 CFG=3
M  V30 47 1 3 42
M  V30 48 1 3 43
M  V30 49 1 4 44
M  V30 50 1 9 45
M  V30 51 1 10 46
M  V30 52 1 12 47
M  V30 53 1 13 48
M  V30 54 1 20 49
M  V30 55 1 20 50
M  V30 56 1 21 51
M  V30 57 1 21 52
M  V30 58 1 26 53
M  V30 59 1 27 54
M  V30 60 1 28 55
M  V30 61 1 29 56
M  V30 62 1 30 57
M  V30 63 1 31 58
M  V30 64 1 31 59
M  V30 65 1 32 60
M  V30 66 1 32 61
M  V30 67 1 34 62
M  V30 68 1 35 63
M  V30 69 1 36 64
M  V30 70 1 37 65
M  V30 71 1 38 66
M  V30 END BOND
M  V30 END CTAB
M  END
>  <Dataset>  (306) 
ChEMBL_Kinases

>  <Ligand_Instance>  (306) 
nan

>  <PDB_ID>  (306) 
nan

>  <Standardized_SMILES>  (306) 
N[C@@H](CNc1nc(-c2ccncc2)nc2sc3c(c12)CCN(C(=O)c1ccccc1)C3)Cc1ccccc1

>  <Name>  (306) 
nan

>  <Pocket>  (306) 
nan

>  <ATP_Site>  (306) 
nan

>  <Peripheral>  (306) 
nan

>  <Num_H_Atoms_ProtBoundConf>  (306) 
nan

>  <Num_Resolved_Atoms>  (306) 
nan

>  <Num_Not_Resolved_Atoms>  (306) 
nan

$$$$
CHEMBL3732001
     RDKit          3D

  0  0  0  0  0  0  0  0  0  0999 V3000
M  V30 BEGIN CTAB
M  V30 COUNTS 36 37 0 0 0
M  V30 BEGIN ATOM
M  V30 1 C 1.336534 -5.889067 3.175225 0
M  V30 2 C 0.893566 -4.766359 2.279021 0
M  V30 3 C -0.399836 -4.288689 2.330976 0
M  V30 4 C -0.776627 -3.247283 1.486297 0
M  V30 5 C 0.160463 -2.723607 0.619801 0
M  V30 6 C 1.464581 -3.162967 0.527229 0
M  V30 7 N 2.419354 -2.609386 -0.371981 0
M  V30 8 C 2.035906 -1.519082 -1.246787 0
M  V30 9 C 1.605507 -0.297967 -0.514146 0
M  V30 10 O 1.430781 0.201366 0.626314 0
M  V30 11 N 1.237103 0.740563 -1.444394 0
M  V30 12 N 0.794405 1.995550 -0.948324 0
M  V30 13 C -0.486868 2.201725 -0.766316 0
M  V30 14 C -1.101098 3.441212 -0.261653 0
M  V30 15 C -2.484974 3.515314 -0.119400 0
M  V30 16 C -3.011281 4.691080 0.354637 0
M  V30 17 N -2.275125 5.783312 0.693067 0
M  V30 18 C -0.939278 5.634777 0.527577 0
M  V30 19 C -0.291139 4.494523 0.056400 0
M  V30 20 C 1.774520 -4.194253 1.388430 0
M  V30 21 H 2.420788 -5.772733 3.317976 0
M  V30 22 H 1.037320 -6.865937 2.747996 0
M  V30 23 H 0.812000 -5.706820 4.134992 0
M  V30 24 H -1.067525 -4.753996 3.036202 0
M  V30 25 H -1.795873 -2.889730 1.545205 0
M  V30 26 H -0.180016 -1.921699 -0.013345 0
M  V30 27 H 3.376255 -3.026038 -0.358457 0
M  V30 28 H 1.163089 -1.865230 -1.833506 0
M  V30 29 H 2.916361 -1.314839 -1.890834 0
M  V30 30 H 1.215871 0.796003 -2.504583 0
M  V30 31 H -1.132809 1.357312 -1.021585 0
M  V30 32 H -3.121644 2.676396 -0.373416 0
M  V30 33 H -4.081011 4.778270 0.475552 0
M  V30 34 H -0.296096 6.484035 0.784849 0
M  V30 35 H 0.784723 4.501560 -0.030521 0
M  V30 36 H 2.775742 -4.604186 1.386486 0
M  V30 END ATOM
M  V30 BEGIN BOND
M  V30 1 1 1 2
M  V30 2 2 2 3
M  V30 3 1 3 4
M  V30 4 2 4 5
M  V30 5 1 5 6
M  V30 6 1 6 7
M  V30 7 1 7 8
M  V30 8 1 8 9
M  V30 9 2 9 10
M  V30 10 1 9 11
M  V30 11 1 11 12
M  V30 12 2 12 13
M  V30 13 1 13 14
M  V30 14 2 14 15
M  V30 15 1 15 16
M  V30 16 2 16 17
M  V30 17 1 17 18
M  V30 18 2 18 19
M  V30 19 2 6 20
M  V30 20 1 20 2
M  V30 21 1 19 14
M  V30 22 1 1 21
M  V30 23 1 1 22
M  V30 24 1 1 23
M  V30 25 1 3 24
M  V30 26 1 4 25
M  V30 27 1 5 26
M  V30 28 1 7 27
M  V30 29 1 8 28
M  V30 30 1 8 29
M  V30 31 1 11 30
M  V30 32 1 13 31
M  V30 33 1 15 32
M  V30 34 1 16 33
M  V30 35 1 18 34
M  V30 36 1 19 35
M  V30 37 1 20 36
M  V30 END BOND
M  V30 END CTAB
M  END
>  <Dataset>  (307) 
ChEMBL_Kinases

>  <Ligand_Instance>  (307) 
nan

>  <PDB_ID>  (307) 
nan

>  <Standardized_SMILES>  (307) 
Cc1cccc(NCC(=O)N/N=C/c2ccncc2)c1

>  <Name>  (307) 
nan

>  <Pocket>  (307) 
nan

>  <ATP_Site>  (307) 
nan

>  <Peripheral>  (307) 
nan

>  <Num_H_Atoms_ProtBoundConf>  (307) 
nan

>  <Num_Resolved_Atoms>  (307) 
nan

>  <Num_Not_Resolved_Atoms>  (307) 
nan

$$$$
CHEMBL3732000
     RDKit          3D

  0  0  0  0  0  0  0  0  0  0999 V3000
M  V30 BEGIN CTAB
M  V30 COUNTS 59 64 0 0 0
M  V30 BEGIN ATOM
M  V30 1 N 1.705455 -3.667589 2.254022 0
M  V30 2 C 0.774894 -2.638173 1.834633 0 CFG=2
M  V30 3 C 0.267431 -1.820228 3.002229 0
M  V30 4 N -0.642515 -0.822130 2.513656 0
M  V30 5 C -0.230776 0.289436 1.726920 0
M  V30 6 N 1.062492 0.319594 1.436280 0
M  V30 7 C 1.735559 1.180942 0.712271 0
M  V30 8 C 3.156357 1.169750 0.427868 0
M  V30 9 C 3.925391 0.158073 0.968037 0
M  V30 10 C 5.268309 0.214826 0.656077 0
M  V30 11 N 5.843692 1.158429 -0.110440 0
M  V30 12 C 5.067515 2.130786 -0.622101 0
M  V30 13 C 3.713819 2.154463 -0.363369 0
M  V30 14 N 0.954947 2.152108 0.216909 0
M  V30 15 C -0.364596 2.175041 0.477928 0
M  V30 16 S -1.599036 3.333927 -0.068390 0
M  V30 17 C -2.955496 2.561543 0.736886 0
M  V30 18 C -2.417886 1.479202 1.373671 0
M  V30 19 C -1.066019 1.270154 1.239517 0
M  V30 20 C -3.370875 0.661343 2.198695 0
M  V30 21 C -4.619127 1.466676 2.471435 0
M  V30 22 C -5.202438 1.907714 1.168351 0
M  V30 23 C -4.339921 3.049416 0.647152 0
M  V30 24 C -0.383960 -3.217868 1.052001 0
M  V30 25 C 0.038323 -3.922886 -0.179406 0
M  V30 26 C 0.111215 -5.312099 -0.335583 0
M  V30 27 N 0.531050 -5.672256 -1.565156 0
M  V30 28 C 0.734570 -4.509250 -2.218817 0
M  V30 29 C 1.167416 -4.314908 -3.516577 0
M  V30 30 C 1.300168 -2.998135 -3.972638 0
M  V30 31 C 1.004381 -1.939569 -3.140339 0
M  V30 32 C 0.571773 -2.142436 -1.843195 0
M  V30 33 C 0.438237 -3.429095 -1.386794 0
M  V30 34 H 1.255328 -4.560359 2.529204 0
M  V30 35 H 2.263089 -3.243114 3.035317 0
M  V30 36 H 1.335565 -1.970753 1.164887 0
M  V30 37 H 1.181112 -1.274557 3.403591 0
M  V30 38 H -0.087881 -2.443150 3.826920 0
M  V30 39 H -1.562727 -1.155629 2.859754 0
M  V30 40 H 3.519827 -0.626034 1.590737 0
M  V30 41 H 5.894824 -0.572119 1.070760 0
M  V30 42 H 5.524665 2.908491 -1.250785 0
M  V30 43 H 3.066636 2.922998 -0.761171 0
M  V30 44 H -3.611015 -0.305669 1.776068 0
M  V30 45 H -2.939941 0.513077 3.230569 0
M  V30 46 H -5.354181 0.837765 2.991449 0
M  V30 47 H -4.404719 2.326806 3.144854 0
M  V30 48 H -6.244385 2.236804 1.204437 0
M  V30 49 H -5.141937 1.053769 0.455984 0
M  V30 50 H -4.676073 3.248115 -0.390628 0
M  V30 51 H -4.527980 3.969072 1.234584 0
M  V30 52 H -0.982513 -3.922282 1.655282 0
M  V30 53 H -1.025665 -2.365086 0.749581 0
M  V30 54 H -0.140870 -6.033441 0.442953 0
M  V30 55 H 0.652119 -6.654935 -1.881222 0
M  V30 56 H 1.396142 -5.162216 -4.157853 0
M  V30 57 H 1.642948 -2.918237 -4.995951 0
M  V30 58 H 1.118325 -0.939604 -3.526538 0
M  V30 59 H 0.337827 -1.311451 -1.184970 0
M  V30 END ATOM
M  V30 BEGIN BOND
M  V30 1 1 1 2
M  V30 2 1 2 3
M  V30 3 1 3 4
M  V30 4 1 4 5
M  V30 5 2 5 6
M  V30 6 1 6 7
M  V30 7 1 7 8
M  V30 8 2 8 9
M  V30 9 1 9 10
M  V30 10 2 10 11
M  V30 11 1 11 12
M  V30 12 2 12 13
M  V30 13 2 7 14
M  V30 14 1 14 15
M  V30 15 1 15 16
M  V30 16 1 16 17
M  V30 17 2 17 18
M  V30 18 1 18 19
M  V30 19 1 18 20
M  V30 20 1 20 21
M  V30 21 1 21 22
M  V30 22 1 22 23
M  V30 23 1 2 24
M  V30 24 1 24 25
M  V30 25 2 25 26
M  V30 26 1 26 27
M  V30 27 1 27 28
M  V30 28 2 28 29
M  V30 29 1 29 30
M  V30 30 2 30 31
M  V30 31 1 31 32
M  V30 32 2 32 33
M  V30 33 1 19 5
M  V30 34 1 33 25
M  V30 35 1 13 8
M  V30 36 2 19 15
M  V30 37 1 33 28
M  V30 38 1 23 17
M  V30 39 1 1 34
M  V30 40 1 1 35
M  V30 41 1 2 36 CFG=3
M  V30 42 1 3 37
M  V30 43 1 3 38
M  V30 44 1 4 39
M  V30 45 1 9 40
M  V30 46 1 10 41
M  V30 47 1 12 42
M  V30 48 1 13 43
M  V30 49 1 20 44
M  V30 50 1 20 45
M  V30 51 1 21 46
M  V30 52 1 21 47
M  V30 53 1 22 48
M  V30 54 1 22 49
M  V30 55 1 23 50
M  V30 56 1 23 51
M  V30 57 1 24 52
M  V30 58 1 24 53
M  V30 59 1 26 54
M  V30 60 1 27 55
M  V30 61 1 29 56
M  V30 62 1 30 57
M  V30 63 1 31 58
M  V30 64 1 32 59
M  V30 END BOND
M  V30 END CTAB
M  END
>  <Dataset>  (308) 
ChEMBL_Kinases

>  <Ligand_Instance>  (308) 
nan

>  <PDB_ID>  (308) 
nan

>  <Standardized_SMILES>  (308) 
N[C@H](CNc1nc(-c2ccncc2)nc2sc3c(c12)CCCC3)Cc1c[nH]c2ccccc12

>  <Name>  (308) 
nan

>  <Pocket>  (308) 
nan

>  <ATP_Site>  (308) 
nan

>  <Peripheral>  (308) 
nan

>  <Num_H_Atoms_ProtBoundConf>  (308) 
nan

>  <Num_Resolved_Atoms>  (308) 
nan

>  <Num_Not_Resolved_Atoms>  (308) 
nan

$$$$
CHEMBL3731978
     RDKit          3D

  0  0  0  0  0  0  0  0  0  0999 V3000
M  V30 BEGIN CTAB
M  V30 COUNTS 59 63 0 0 0
M  V30 BEGIN ATOM
M  V30 1 C 2.797195 2.095202 3.444151 0
M  V30 2 O 2.561968 0.768467 3.049870 0
M  V30 3 C 3.027461 -0.302572 3.790248 0
M  V30 4 C 3.735302 -0.031959 4.935276 0
M  V30 5 N 4.204848 -1.045093 5.680759 0
M  V30 6 C 4.009477 -2.331135 5.350409 0
M  V30 7 C 3.303877 -2.549998 4.209815 0
M  V30 8 C 2.780207 -1.591966 3.376633 0
M  V30 9 C 2.048704 -1.918993 2.175889 0
M  V30 10 N 1.441445 -1.166579 1.295904 0
M  V30 11 C 0.797754 -1.543377 0.194463 0
M  V30 12 N 0.227611 -0.484274 -0.553969 0
M  V30 13 C 0.326716 0.894866 -0.178438 0
M  V30 14 C -0.385265 1.243419 1.107922 0 CFG=1
M  V30 15 N -0.155516 2.671104 1.309661 0
M  V30 16 C -1.840210 0.906360 1.128659 0
M  V30 17 C -2.664695 1.566174 0.114953 0
M  V30 18 C -3.003793 1.148158 -1.153978 0
M  V30 19 C -3.791440 1.878901 -2.009173 0
M  V30 20 C -4.298403 3.089823 -1.648471 0
M  V30 21 C -3.993235 3.560386 -0.389772 0
M  V30 22 C -3.200913 2.811433 0.453200 0
M  V30 23 C 0.700789 -2.864904 -0.154805 0
M  V30 24 C 0.119655 -3.541925 -1.194377 0
M  V30 25 C 0.180389 -4.891296 -1.278088 0
M  V30 26 S 1.112196 -5.364675 0.171086 0
M  V30 27 C 1.341230 -3.647872 0.777293 0
M  V30 28 N 1.984357 -3.225721 1.885158 0
M  V30 29 C -0.323043 -5.859115 -2.208661 0
M  V30 30 C -1.467845 -5.205448 -2.966794 0
M  V30 31 C -0.936664 -3.886901 -3.407414 0
M  V30 32 C -0.599578 -2.909055 -2.347027 0
M  V30 33 H 2.121339 2.778243 2.932605 0
M  V30 34 H 2.554058 2.163320 4.524538 0
M  V30 35 H 3.857710 2.396906 3.277297 0
M  V30 36 H 3.973694 0.944939 5.330984 0
M  V30 37 H 4.386160 -3.152768 5.948155 0
M  V30 38 H 3.146168 -3.605627 3.942951 0
M  V30 39 H -0.325748 -0.455134 -1.422838 0
M  V30 40 H 0.141526 1.634010 -0.973295 0
M  V30 41 H 1.429061 1.040968 0.078720 0
M  V30 42 H 0.087664 0.698303 1.941777 0
M  V30 43 H -0.778098 3.201544 0.627372 0
M  V30 44 H 0.816275 2.895044 0.934580 0
M  V30 45 H -1.951350 -0.199192 1.067822 0
M  V30 46 H -2.218192 1.181100 2.132131 0
M  V30 47 H -2.603980 0.185522 -1.434856 0
M  V30 48 H -3.983445 1.440760 -2.975844 0
M  V30 49 H -4.906896 3.632005 -2.336744 0
M  V30 50 H -4.400699 4.521189 -0.115000 0
M  V30 51 H -3.032882 3.296776 1.427563 0
M  V30 52 H 0.393043 -6.200920 -2.983673 0
M  V30 53 H -0.680352 -6.770343 -1.691437 0
M  V30 54 H -1.744449 -5.785904 -3.856223 0
M  V30 55 H -2.369132 -5.086318 -2.361492 0
M  V30 56 H -0.102406 -4.069017 -4.117087 0
M  V30 57 H -1.744682 -3.411814 -4.033225 0
M  V30 58 H -1.487303 -2.412853 -1.971224 0
M  V30 59 H 0.051204 -2.147109 -2.844392 0
M  V30 END ATOM
M  V30 BEGIN BOND
M  V30 1 1 1 2
M  V30 2 1 2 3
M  V30 3 2 3 4
M  V30 4 1 4 5
M  V30 5 2 5 6
M  V30 6 1 6 7
M  V30 7 2 7 8
M  V30 8 1 8 9
M  V30 9 2 9 10
M  V30 10 1 10 11
M  V30 11 1 11 12
M  V30 12 1 12 13
M  V30 13 1 13 14
M  V30 14 1 14 15
M  V30 15 1 14 16
M  V30 16 1 16 17
M  V30 17 2 17 18
M  V30 18 1 18 19
M  V30 19 2 19 20
M  V30 20 1 20 21
M  V30 21 2 21 22
M  V30 22 2 11 23
M  V30 23 1 23 24
M  V30 24 2 24 25
M  V30 25 1 25 26
M  V30 26 1 26 27
M  V30 27 2 27 28
M  V30 28 1 25 29
M  V30 29 1 29 30
M  V30 30 1 30 31
M  V30 31 1 31 32
M  V30 32 1 8 3
M  V30 33 1 28 9
M  V30 34 1 22 17
M  V30 35 1 27 23
M  V30 36 1 32 24
M  V30 37 1 1 33
M  V30 38 1 1 34
M  V30 39 1 1 35
M  V30 40 1 4 36
M  V30 41 1 6 37
M  V30 42 1 7 38
M  V30 43 1 12 39
M  V30 44 1 13 40
M  V30 45 1 13 41
M  V30 46 1 14 42 CFG=1
M  V30 47 1 15 43
M  V30 48 1 15 44
M  V30 49 1 16 45
M  V30 50 1 16 46
M  V30 51 1 18 47
M  V30 52 1 19 48
M  V30 53 1 20 49
M  V30 54 1 21 50
M  V30 55 1 22 51
M  V30 56 1 29 52
M  V30 57 1 29 53
M  V30 58 1 30 54
M  V30 59 1 30 55
M  V30 60 1 31 56
M  V30 61 1 31 57
M  V30 62 1 32 58
M  V30 63 1 32 59
M  V30 END BOND
M  V30 END CTAB
M  END
>  <Dataset>  (309) 
ChEMBL_Kinases

>  <Ligand_Instance>  (309) 
nan

>  <PDB_ID>  (309) 
nan

>  <Standardized_SMILES>  (309) 
COc1cnccc1-c1nc(NC[C@@H](N)Cc2ccccc2)c2c3c(sc2n1)CCCC3

>  <Name>  (309) 
nan

>  <Pocket>  (309) 
nan

>  <ATP_Site>  (309) 
nan

>  <Peripheral>  (309) 
nan

>  <Num_H_Atoms_ProtBoundConf>  (309) 
nan

>  <Num_Resolved_Atoms>  (309) 
nan

>  <Num_Not_Resolved_Atoms>  (309) 
nan

$$$$
CHEMBL3731958
     RDKit          3D

  0  0  0  0  0  0  0  0  0  0999 V3000
M  V30 BEGIN CTAB
M  V30 COUNTS 46 49 0 0 0
M  V30 BEGIN ATOM
M  V30 1 C -2.984164 -3.587280 -0.117498 0
M  V30 2 C -1.852975 -3.911018 -1.038036 0
M  V30 3 N -1.801352 -4.767263 -2.075421 0
M  V30 4 N -0.599241 -4.746440 -2.622112 0
M  V30 5 C 0.135777 -3.860025 -1.922897 0
M  V30 6 C 1.557492 -3.558172 -2.241464 0
M  V30 7 C -0.604908 -3.301319 -0.909987 0
M  V30 8 C -0.180752 -2.305505 0.066409 0
M  V30 9 N -0.313263 -1.012775 -0.171730 0
M  V30 10 C 0.027051 0.011010 0.621013 0
M  V30 11 N -0.253380 1.321799 0.086464 0
M  V30 12 C -0.830899 1.495815 -1.200512 0
M  V30 13 C 0.057511 1.042825 -2.336496 0
M  V30 14 N 1.297419 1.827006 -2.279236 0
M  V30 15 C 0.587700 -0.286206 1.843970 0
M  V30 16 C 0.999343 0.617905 2.785792 0
M  V30 17 C 1.539958 0.091707 3.951974 0
M  V30 18 S 1.449237 -1.740844 3.678095 0
M  V30 19 C 0.721396 -1.624376 2.082894 0
M  V30 20 N 0.364369 -2.602399 1.255419 0
M  V30 21 C 2.059881 0.822466 5.108383 0
M  V30 22 C 1.012798 1.799213 5.596143 0
M  V30 23 C 0.393817 2.380116 4.378133 0
M  V30 24 C 1.102106 2.051165 3.080708 0
M  V30 25 H -2.631992 -3.573675 0.940622 0
M  V30 26 H -3.356080 -2.576553 -0.326390 0
M  V30 27 H -3.802551 -4.316080 -0.259676 0
M  V30 28 H -0.366442 -5.345923 -3.441904 0
M  V30 29 H 1.798485 -2.516920 -1.908286 0
M  V30 30 H 2.199802 -4.287857 -1.742118 0
M  V30 31 H 1.771341 -3.582617 -3.327200 0
M  V30 32 H -0.113646 2.264571 0.460201 0
M  V30 33 H -1.719049 0.801949 -1.246722 0
M  V30 34 H -1.236872 2.491906 -1.346530 0
M  V30 35 H -0.442137 1.205728 -3.292337 0
M  V30 36 H 0.262108 -0.031062 -2.216651 0
M  V30 37 H 1.910709 1.383199 -1.554450 0
M  V30 38 H 1.112157 2.816804 -2.075301 0
M  V30 39 H 2.327403 0.143439 5.945741 0
M  V30 40 H 2.984317 1.397540 4.869897 0
M  V30 41 H 1.449895 2.597593 6.219948 0
M  V30 42 H 0.229172 1.270837 6.203153 0
M  V30 43 H -0.675903 2.068283 4.285424 0
M  V30 44 H 0.374479 3.484119 4.470221 0
M  V30 45 H 0.741514 2.760873 2.357156 0
M  V30 46 H 2.186668 2.339970 3.253094 0
M  V30 END ATOM
M  V30 BEGIN BOND
M  V30 1 1 1 2
M  V30 2 2 2 3
M  V30 3 1 3 4
M  V30 4 1 4 5
M  V30 5 1 5 6
M  V30 6 2 5 7
M  V30 7 1 7 8
M  V30 8 2 8 9
M  V30 9 1 9 10
M  V30 10 1 10 11
M  V30 11 1 11 12
M  V30 12 1 12 13
M  V30 13 1 13 14
M  V30 14 2 10 15
M  V30 15 1 15 16
M  V30 16 2 16 17
M  V30 17 1 17 18
M  V30 18 1 18 19
M  V30 19 2 19 20
M  V30 20 1 17 21
M  V30 21 1 21 22
M  V30 22 1 22 23
M  V30 23 1 23 24
M  V30 24 1 7 2
M  V30 25 1 20 8
M  V30 26 1 19 15
M  V30 27 1 24 16
M  V30 28 1 1 25
M  V30 29 1 1 26
M  V30 30 1 1 27
M  V30 31 1 4 28
M  V30 32 1 6 29
M  V30 33 1 6 30
M  V30 34 1 6 31
M  V30 35 1 11 32
M  V30 36 1 12 33
M  V30 37 1 12 34
M  V30 38 1 13 35
M  V30 39 1 13 36
M  V30 40 1 14 37
M  V30 41 1 14 38
M  V30 42 1 21 39
M  V30 43 1 21 40
M  V30 44 1 22 41
M  V30 45 1 22 42
M  V30 46 1 23 43
M  V30 47 1 23 44
M  V30 48 1 24 45
M  V30 49 1 24 46
M  V30 END BOND
M  V30 END CTAB
M  END
>  <Dataset>  (310) 
ChEMBL_Kinases

>  <Ligand_Instance>  (310) 
nan

>  <PDB_ID>  (310) 
nan

>  <Standardized_SMILES>  (310) 
Cc1n[nH]c(C)c1-c1nc(NCCN)c2c3c(sc2n1)CCCC3

>  <Name>  (310) 
nan

>  <Pocket>  (310) 
nan

>  <ATP_Site>  (310) 
nan

>  <Peripheral>  (310) 
nan

>  <Num_H_Atoms_ProtBoundConf>  (310) 
nan

>  <Num_Resolved_Atoms>  (310) 
nan

>  <Num_Not_Resolved_Atoms>  (310) 
nan

$$$$
CHEMBL3731951
     RDKit          3D

  0  0  0  0  0  0  0  0  0  0999 V3000
M  V30 BEGIN CTAB
M  V30 COUNTS 68 71 0 0 0
M  V30 BEGIN ATOM
M  V30 1 C 5.486621 0.172821 4.124276 0
M  V30 2 C 6.260920 -0.964770 3.521690 0
M  V30 3 C 6.702455 -1.943836 4.614016 0
M  V30 4 C 7.521865 -0.406473 2.914657 0
M  V30 5 Si 5.313397 -1.912944 2.264777 0 VAL=4
M  V30 6 C 5.036398 -3.703556 2.798841 0
M  V30 7 C 6.269125 -1.943160 0.645051 0
M  V30 8 C 3.713495 -1.072048 2.047374 0
M  V30 9 C 2.636575 -0.493484 1.903984 0
M  V30 10 C 1.362505 0.171088 1.717023 0
M  V30 11 C 1.080853 1.207829 2.602197 0
M  V30 12 S -0.631910 1.790272 2.027883 0
M  V30 13 C -0.717549 0.643206 0.774639 0
M  V30 14 C -1.760273 0.421027 -0.175515 0
M  V30 15 N -2.899614 1.250954 -0.102772 0
M  V30 16 C -3.988185 1.084987 -1.022607 0
M  V30 17 C -4.666921 -0.255264 -0.945680 0 CFG=1
M  V30 18 N -5.227210 -0.503634 0.373947 0
M  V30 19 C -5.836316 -0.347835 -1.908124 0
M  V30 20 C -6.864443 0.681915 -1.619948 0
M  V30 21 C -7.854218 0.360937 -0.744857 0
M  V30 22 C -8.882494 1.234329 -0.386864 0
M  V30 23 C -8.879875 2.490140 -0.962200 0
M  V30 24 C -7.886120 2.859725 -1.862326 0
M  V30 25 C -6.896316 1.945100 -2.173272 0
M  V30 26 N -1.631970 -0.563142 -1.111741 0
M  V30 27 C -0.464068 -1.271321 -1.043952 0
M  V30 28 C -0.290971 -2.344946 -2.042489 0
M  V30 29 C 0.854977 -3.112618 -2.052210 0
M  V30 30 C 0.971455 -4.115657 -3.016022 0
M  V30 31 N 0.005207 -4.332443 -3.907280 0
M  V30 32 C -1.099426 -3.566506 -3.870951 0
M  V30 33 C -1.300932 -2.540042 -2.941273 0
M  V30 34 N 0.496662 -1.057288 -0.158775 0
M  V30 35 C 0.405577 -0.095753 0.779523 0
M  V30 36 H 4.768654 0.624841 3.400855 0
M  V30 37 H 4.983334 -0.191646 5.046248 0
M  V30 38 H 6.163097 0.998841 4.463479 0
M  V30 39 H 6.169743 -1.685616 5.573134 0
M  V30 40 H 6.408249 -2.986404 4.373038 0
M  V30 41 H 7.797270 -1.940794 4.766348 0
M  V30 42 H 7.979669 0.286302 3.665410 0
M  V30 43 H 8.227075 -1.179004 2.589018 0
M  V30 44 H 7.205579 0.219716 2.030274 0
M  V30 45 H 5.995539 -4.226045 2.695917 0
M  V30 46 H 4.328201 -4.104554 2.015998 0
M  V30 47 H 4.566421 -3.759568 3.785009 0
M  V30 48 H 7.347742 -2.031214 0.825267 0
M  V30 49 H 5.848461 -2.773211 0.006967 0
M  V30 50 H 6.079796 -1.007644 0.068649 0
M  V30 51 H 1.665040 1.637370 3.452204 0
M  V30 52 H -2.979313 1.998086 0.613423 0
M  V30 53 H -3.570802 1.200543 -2.055618 0
M  V30 54 H -4.720861 1.929271 -0.941675 0
M  V30 55 H -3.939615 -1.037725 -1.161158 0
M  V30 56 H -5.442621 0.405909 0.829532 0
M  V30 57 H -4.470200 -0.948960 0.940697 0
M  V30 58 H -6.261179 -1.364485 -1.802592 0
M  V30 59 H -5.485494 -0.160893 -2.957505 0
M  V30 60 H -7.889229 -0.623734 -0.269461 0
M  V30 61 H -9.649586 0.922384 0.320138 0
M  V30 62 H -9.684755 3.171437 -0.680901 0
M  V30 63 H -7.889561 3.846209 -2.310104 0
M  V30 64 H -6.115138 2.210825 -2.870267 0
M  V30 65 H 1.627541 -2.914273 -1.313675 0
M  V30 66 H 1.873312 -4.732812 -3.037147 0
M  V30 67 H -1.887972 -3.758523 -4.614039 0
M  V30 68 H -2.204897 -1.973099 -2.973715 0
M  V30 END ATOM
M  V30 BEGIN BOND
M  V30 1 1 1 2
M  V30 2 1 2 3
M  V30 3 1 2 4
M  V30 4 1 2 5
M  V30 5 1 5 6
M  V30 6 1 5 7
M  V30 7 1 5 8
M  V30 8 3 8 9
M  V30 9 1 9 10
M  V30 10 2 10 11
M  V30 11 1 11 12
M  V30 12 1 12 13
M  V30 13 2 13 14
M  V30 14 1 14 15
M  V30 15 1 15 16
M  V30 16 1 16 17
M  V30 17 1 17 18
M  V30 18 1 17 19
M  V30 19 1 19 20
M  V30 20 2 20 21
M  V30 21 1 21 22
M  V30 22 2 22 23
M  V30 23 1 23 24
M  V30 24 2 24 25
M  V30 25 1 14 26
M  V30 26 2 26 27
M  V30 27 1 27 28
M  V30 28 2 28 29
M  V30 29 1 29 30
M  V30 30 2 30 31
M  V30 31 1 31 32
M  V30 32 2 32 33
M  V30 33 1 27 34
M  V30 34 2 34 35
M  V30 35 1 35 10
M  V30 36 1 35 13
M  V30 37 1 25 20
M  V30 38 1 33 28
M  V30 39 1 1 36
M  V30 40 1 1 37
M  V30 41 1 1 38
M  V30 42 1 3 39
M  V30 43 1 3 40
M  V30 44 1 3 41
M  V30 45 1 4 42
M  V30 46 1 4 43
M  V30 47 1 4 44
M  V30 48 1 6 45
M  V30 49 1 6 46
M  V30 50 1 6 47
M  V30 51 1 7 48
M  V30 52 1 7 49
M  V30 53 1 7 50
M  V30 54 1 11 51
M  V30 55 1 15 52
M  V30 56 1 16 53
M  V30 57 1 16 54
M  V30 58 1 17 55 CFG=3
M  V30 59 1 18 56
M  V30 60 1 18 57
M  V30 61 1 19 58
M  V30 62 1 19 59
M  V30 63 1 21 60
M  V30 64 1 22 61
M  V30 65 1 23 62
M  V30 66 1 24 63
M  V30 67 1 25 64
M  V30 68 1 29 65
M  V30 69 1 30 66
M  V30 70 1 32 67
M  V30 71 1 33 68
M  V30 END BOND
M  V30 END CTAB
M  END
>  <Dataset>  (311) 
ChEMBL_Kinases

>  <Ligand_Instance>  (311) 
nan

>  <PDB_ID>  (311) 
nan

>  <Standardized_SMILES>  (311) 
CC(C)(C)[Si](C)(C)C#Cc1csc2c(NC[C@@H](N)Cc3ccccc3)nc(-c3ccncc3)nc12

>  <Name>  (311) 
nan

>  <Pocket>  (311) 
nan

>  <ATP_Site>  (311) 
nan

>  <Peripheral>  (311) 
nan

>  <Num_H_Atoms_ProtBoundConf>  (311) 
nan

>  <Num_Resolved_Atoms>  (311) 
nan

>  <Num_Not_Resolved_Atoms>  (311) 
nan

$$$$
CHEMBL3732290
     RDKit          3D

  0  0  0  0  0  0  0  0  0  0999 V3000
M  V30 BEGIN CTAB
M  V30 COUNTS 64 67 0 0 0
M  V30 BEGIN ATOM
M  V30 1 C 4.470335 2.649687 8.422229 0
M  V30 2 C 4.304804 2.551137 6.920521 0
M  V30 3 C 4.104930 1.112582 6.507875 0
M  V30 4 C 3.933581 0.948590 5.020459 0 CFG=1
M  V30 5 O 3.755774 -0.420094 4.748380 0
M  V30 6 C 2.658235 1.633090 4.580139 0 CFG=2
M  V30 7 O 1.566351 1.128483 5.285492 0
M  V30 8 C 2.526146 1.343193 3.150919 0
M  V30 9 C 2.415265 1.079791 1.959508 0
M  V30 10 C 2.263010 0.760121 0.567063 0
M  V30 11 C 3.336810 1.117418 -0.294247 0
M  V30 12 S 2.713645 0.521244 -1.982107 0
M  V30 13 C 1.216349 -0.084213 -1.384501 0
M  V30 14 C 0.191516 -0.694194 -2.076066 0
M  V30 15 N 0.312650 -0.890952 -3.460109 0
M  V30 16 C -0.744223 -1.521511 -4.207727 0
M  V30 17 C -2.036689 -0.742907 -4.206410 0 CFG=1
M  V30 18 N -1.827655 0.584286 -4.795751 0
M  V30 19 C -3.087263 -1.409477 -5.068873 0
M  V30 20 C -3.410613 -2.782803 -4.606152 0
M  V30 21 C -4.414525 -3.021703 -3.684733 0
M  V30 22 C -4.739993 -4.284272 -3.234240 0
M  V30 23 C -3.996905 -5.312064 -3.762003 0
M  V30 24 C -2.971436 -5.158416 -4.691632 0
M  V30 25 C -2.692598 -3.856810 -5.105748 0
M  V30 26 N -0.920073 -1.103643 -1.407561 0
M  V30 27 C -0.893797 -0.855697 -0.082884 0
M  V30 28 C -2.079486 -1.280869 0.695192 0
M  V30 29 C -2.172882 -1.084337 2.050466 0
M  V30 30 C -3.292752 -1.491401 2.754329 0
M  V30 31 N -4.291296 -2.087166 2.072230 0
M  V30 32 C -4.216085 -2.287644 0.743365 0
M  V30 33 C -3.102464 -1.889316 0.007142 0
M  V30 34 N 0.088598 -0.272123 0.573680 0
M  V30 35 C 1.207093 0.150676 -0.038211 0
M  V30 36 H 5.508513 2.916895 8.686758 0
M  V30 37 H 4.229438 1.682838 8.911498 0
M  V30 38 H 3.791330 3.388321 8.852568 0
M  V30 39 H 5.236107 2.953770 6.449028 0
M  V30 40 H 3.472255 3.197628 6.628906 0
M  V30 41 H 3.161149 0.769053 7.002599 0
M  V30 42 H 4.974462 0.531919 6.871332 0
M  V30 43 H 4.794570 1.367469 4.466342 0
M  V30 44 H 2.780130 -0.643721 4.751283 0
M  V30 45 H 2.685510 2.724264 4.756020 0
M  V30 46 H 1.308216 1.752854 6.011910 0
M  V30 47 H 4.310403 1.625504 -0.039086 0
M  V30 48 H 1.181130 -0.578251 -3.968815 0
M  V30 49 H -0.429933 -1.602724 -5.268257 0
M  V30 50 H -0.971064 -2.519144 -3.765931 0
M  V30 51 H -2.363262 -0.598067 -3.180345 0
M  V30 52 H -1.264329 1.173814 -4.161232 0
M  V30 53 H -2.767298 0.958784 -5.033727 0
M  V30 54 H -2.746049 -1.466515 -6.115224 0
M  V30 55 H -4.031823 -0.831637 -5.069279 0
M  V30 56 H -4.974827 -2.184826 -3.294735 0
M  V30 57 H -5.526492 -4.467308 -2.512861 0
M  V30 58 H -4.192817 -6.340720 -3.456434 0
M  V30 59 H -2.418205 -6.000505 -5.074682 0
M  V30 60 H -1.901492 -3.677565 -5.830694 0
M  V30 61 H -1.366001 -0.608407 2.570640 0
M  V30 62 H -3.308785 -1.310591 3.814313 0
M  V30 63 H -5.044064 -2.772120 0.231243 0
M  V30 64 H -3.090659 -2.075076 -1.069455 0
M  V30 END ATOM
M  V30 BEGIN BOND
M  V30 1 1 1 2
M  V30 2 1 2 3
M  V30 3 1 3 4
M  V30 4 1 4 5
M  V30 5 1 4 6
M  V30 6 1 6 7
M  V30 7 1 6 8
M  V30 8 3 8 9
M  V30 9 1 9 10
M  V30 10 2 10 11
M  V30 11 1 11 12
M  V30 12 1 12 13
M  V30 13 2 13 14
M  V30 14 1 14 15
M  V30 15 1 15 16
M  V30 16 1 16 17
M  V30 17 1 17 18
M  V30 18 1 17 19
M  V30 19 1 19 20
M  V30 20 2 20 21
M  V30 21 1 21 22
M  V30 22 2 22 23
M  V30 23 1 23 24
M  V30 24 2 24 25
M  V30 25 1 14 26
M  V30 26 2 26 27
M  V30 27 1 27 28
M  V30 28 2 28 29
M  V30 29 1 29 30
M  V30 30 2 30 31
M  V30 31 1 31 32
M  V30 32 2 32 33
M  V30 33 1 27 34
M  V30 34 2 34 35
M  V30 35 1 35 10
M  V30 36 1 35 13
M  V30 37 1 25 20
M  V30 38 1 33 28
M  V30 39 1 1 36
M  V30 40 1 1 37
M  V30 41 1 1 38
M  V30 42 1 2 39
M  V30 43 1 2 40
M  V30 44 1 3 41
M  V30 45 1 3 42
M  V30 46 1 4 43 CFG=3
M  V30 47 1 5 44
M  V30 48 1 6 45 CFG=3
M  V30 49 1 7 46
M  V30 50 1 11 47
M  V30 51 1 15 48
M  V30 52 1 16 49
M  V30 53 1 16 50
M  V30 54 1 17 51 CFG=1
M  V30 55 1 18 52
M  V30 56 1 18 53
M  V30 57 1 19 54
M  V30 58 1 19 55
M  V30 59 1 21 56
M  V30 60 1 22 57
M  V30 61 1 23 58
M  V30 62 1 24 59
M  V30 63 1 25 60
M  V30 64 1 29 61
M  V30 65 1 30 62
M  V30 66 1 32 63
M  V30 67 1 33 64
M  V30 END BOND
M  V30 END CTAB
M  END
>  <Dataset>  (312) 
ChEMBL_Kinases

>  <Ligand_Instance>  (312) 
nan

>  <PDB_ID>  (312) 
nan

>  <Standardized_SMILES>  (312) 
CCC[C@@H](O)[C@H](O)C#Cc1csc2c(NC[C@@H](N)Cc3ccccc3)nc(-c3ccncc3)nc12

>  <Name>  (312) 
nan

>  <Pocket>  (312) 
nan

>  <ATP_Site>  (312) 
nan

>  <Peripheral>  (312) 
nan

>  <Num_H_Atoms_ProtBoundConf>  (312) 
nan

>  <Num_Resolved_Atoms>  (312) 
nan

>  <Num_Not_Resolved_Atoms>  (312) 
nan

$$$$
CHEMBL3731922
     RDKit          3D

  0  0  0  0  0  0  0  0  0  0999 V3000
M  V30 BEGIN CTAB
M  V30 COUNTS 53 57 0 0 0
M  V30 BEGIN ATOM
M  V30 1 N -2.381996 -1.133423 0.067910 0
M  V30 2 C -2.713413 -2.017433 1.161050 0 CFG=2
M  V30 3 C -1.529765 -2.263167 2.113327 0
M  V30 4 N -0.967209 -1.048666 2.646153 0
M  V30 5 C 0.270462 -1.006472 1.912797 0
M  V30 6 N 0.362633 0.371530 2.350956 0
M  V30 7 C 1.328657 1.220532 2.065206 0
M  V30 8 C 1.537647 2.672978 2.423353 0
M  V30 9 C 2.632270 3.461105 2.001975 0
M  V30 10 C 2.500488 4.737174 2.506685 0
M  V30 11 N 1.556760 5.266756 3.274812 0
M  V30 12 C 0.522589 4.459514 3.651806 0
M  V30 13 C 0.509852 3.135308 3.216688 0
M  V30 14 F -0.577185 2.475509 3.671343 0
M  V30 15 N 2.426183 0.847556 1.268074 0
M  V30 16 C 2.464009 -0.384340 0.808919 0
M  V30 17 C 3.138874 -1.242962 0.096356 0
M  V30 18 C 4.384415 -0.625811 -0.441440 0
M  V30 19 C 4.748569 -0.659781 -1.784437 0
M  V30 20 C 5.898681 -0.009157 -1.932479 0
M  V30 21 N 6.431240 0.510809 -0.829423 0
M  V30 22 C 5.461141 0.111288 0.112633 0
M  V30 23 C 2.912558 -2.569926 -0.234725 0
M  V30 24 S 1.260404 -2.620663 0.744005 0
M  V30 25 C 1.351449 -0.967441 1.273702 0
M  V30 26 C -3.056830 -3.369258 0.498644 0
M  V30 27 C -4.178609 -3.325879 -0.427938 0
M  V30 28 C -4.203012 -2.903430 -1.717292 0
M  V30 29 C -5.127716 -2.853413 -2.694172 0
M  V30 30 C -6.276652 -3.391828 -2.113990 0
M  V30 31 C -6.622670 -3.921086 -0.846728 0
M  V30 32 C -5.418975 -3.813818 -0.084075 0
M  V30 33 H -1.434823 -1.312540 -0.346849 0
M  V30 34 H -2.497679 -0.112015 0.318699 0
M  V30 35 H -3.587601 -1.672516 1.678352 0
M  V30 36 H -2.049200 -2.779551 3.020463 0
M  V30 37 H -0.878883 -3.070245 1.793889 0
M  V30 38 H -1.557942 -0.623885 3.347105 0
M  V30 39 H 3.369577 2.992272 1.382479 0
M  V30 40 H 3.334225 5.392165 2.200365 0
M  V30 41 H -0.227361 4.918755 4.267501 0
M  V30 42 H 4.090488 -1.188061 -2.502408 0
M  V30 43 H 6.304883 0.050116 -2.902075 0
M  V30 44 H 7.226791 1.046616 -0.483836 0
M  V30 45 H 5.451745 0.295704 1.173642 0
M  V30 46 H 3.572657 -3.222202 -0.839964 0
M  V30 47 H -3.325014 -4.126912 1.283112 0
M  V30 48 H -2.126168 -3.780681 0.042913 0
M  V30 49 H -3.230356 -2.504901 -2.082268 0
M  V30 50 H -5.222820 -2.538251 -3.703001 0
M  V30 51 H -7.191274 -3.443026 -2.747331 0
M  V30 52 H -7.566319 -4.292508 -0.548309 0
M  V30 53 H -5.513709 -4.184423 0.955429 0
M  V30 END ATOM
M  V30 BEGIN BOND
M  V30 1 1 1 2
M  V30 2 1 2 3
M  V30 3 1 3 4
M  V30 4 1 4 5
M  V30 5 2 5 6
M  V30 6 1 6 7
M  V30 7 1 7 8
M  V30 8 2 8 9
M  V30 9 1 9 10
M  V30 10 2 10 11
M  V30 11 1 11 12
M  V30 12 2 12 13
M  V30 13 1 13 14
M  V30 14 2 7 15
M  V30 15 1 15 16
M  V30 16 1 16 17
M  V30 17 1 17 18
M  V30 18 1 18 19
M  V30 19 2 19 20
M  V30 20 1 20 21
M  V30 21 1 21 22
M  V30 22 2 17 23
M  V30 23 1 23 24
M  V30 24 1 24 25
M  V30 25 1 2 26
M  V30 26 1 26 27
M  V30 27 2 27 28
M  V30 28 1 28 29
M  V30 29 2 29 30
M  V30 30 1 30 31
M  V30 31 2 31 32
M  V30 32 1 25 5
M  V30 33 1 32 27
M  V30 34 1 13 8
M  V30 35 2 25 16
M  V30 36 2 22 18
M  V30 37 1 1 33
M  V30 38 1 1 34
M  V30 39 1 2 35 CFG=1
M  V30 40 1 3 36
M  V30 41 1 3 37
M  V30 42 1 4 38
M  V30 43 1 9 39
M  V30 44 1 10 40
M  V30 45 1 12 41
M  V30 46 1 19 42
M  V30 47 1 20 43
M  V30 48 1 21 44
M  V30 49 1 22 45
M  V30 50 1 23 46
M  V30 51 1 26 47
M  V30 52 1 26 48
M  V30 53 1 28 49
M  V30 54 1 29 50
M  V30 55 1 30 51
M  V30 56 1 31 52
M  V30 57 1 32 53
M  V30 END BOND
M  V30 END CTAB
M  END
>  <Dataset>  (313) 
ChEMBL_Kinases

>  <Ligand_Instance>  (313) 
nan

>  <PDB_ID>  (313) 
nan

>  <Standardized_SMILES>  (313) 
N[C@H](CNc1nc(-c2ccncc2F)nc2c(-c3cc[nH]c3)csc12)Cc1ccccc1

>  <Name>  (313) 
nan

>  <Pocket>  (313) 
nan

>  <ATP_Site>  (313) 
nan

>  <Peripheral>  (313) 
nan

>  <Num_H_Atoms_ProtBoundConf>  (313) 
nan

>  <Num_Resolved_Atoms>  (313) 
nan

>  <Num_Not_Resolved_Atoms>  (313) 
nan

$$$$
CHEMBL3731918
     RDKit          3D

  0  0  0  0  0  0  0  0  0  0999 V3000
M  V30 BEGIN CTAB
M  V30 COUNTS 38 40 0 0 0
M  V30 BEGIN ATOM
M  V30 1 C -2.285884 -2.803276 3.944633 0
M  V30 2 C -1.871325 -2.873265 2.519002 0
M  V30 3 C -2.469594 -3.887842 1.716988 0
M  V30 4 S -1.685865 -3.643611 0.014555 0
M  V30 5 C -0.660929 -2.230298 0.563610 0
M  V30 6 C 0.232211 -1.478239 -0.174818 0
M  V30 7 N 0.394780 -1.835077 -1.529678 0
M  V30 8 C 1.263562 -1.171396 -2.433400 0
M  V30 9 C 0.937931 0.251024 -2.747974 0 CFG=1
M  V30 10 C -0.463504 0.274487 -3.366696 0
M  V30 11 N 0.954334 1.156362 -1.651171 0
M  V30 12 N 0.869184 -0.485317 0.456832 0
M  V30 13 C 0.573207 -0.311373 1.775124 0
M  V30 14 C 1.236943 0.767612 2.545562 0
M  V30 15 C 2.138100 1.550617 1.861705 0
M  V30 16 C 2.778028 2.567622 2.545359 0
M  V30 17 N 2.549327 2.814027 3.847964 0
M  V30 18 C 1.652408 2.025897 4.506270 0
M  V30 19 C 0.982667 0.997387 3.881773 0
M  V30 20 N -0.295224 -1.057723 2.454889 0
M  V30 21 C -0.975677 -2.072292 1.897163 0
M  V30 22 H -3.261484 -2.298650 4.094361 0
M  V30 23 H -2.265154 -3.828441 4.387974 0
M  V30 24 H -1.533961 -2.229044 4.524790 0
M  V30 25 H -3.259671 -4.652137 2.118364 0
M  V30 26 H -0.116563 -2.619404 -1.971978 0
M  V30 27 H 1.493776 -1.748641 -3.371772 0
M  V30 28 H 2.276386 -1.141396 -1.919305 0
M  V30 29 H 1.652925 0.643595 -3.528845 0
M  V30 30 H -0.873998 1.310280 -3.315628 0
M  V30 31 H -1.081271 -0.388900 -2.734651 0
M  V30 32 H -0.433238 -0.098153 -4.417676 0
M  V30 33 H -0.017387 1.456835 -1.359341 0
M  V30 34 H 1.463654 2.057732 -1.819844 0
M  V30 35 H 2.377324 1.415890 0.811204 0
M  V30 36 H 3.486827 3.181560 2.002572 0
M  V30 37 H 1.443067 2.198493 5.564266 0
M  V30 38 H 0.268806 0.363924 4.389997 0
M  V30 END ATOM
M  V30 BEGIN BOND
M  V30 1 1 1 2
M  V30 2 2 2 3
M  V30 3 1 3 4
M  V30 4 1 4 5
M  V30 5 2 5 6
M  V30 6 1 6 7
M  V30 7 1 7 8
M  V30 8 1 8 9
M  V30 9 1 9 10
M  V30 10 1 9 11
M  V30 11 1 6 12
M  V30 12 2 12 13
M  V30 13 1 13 14
M  V30 14 2 14 15
M  V30 15 1 15 16
M  V30 16 2 16 17
M  V30 17 1 17 18
M  V30 18 2 18 19
M  V30 19 1 13 20
M  V30 20 2 20 21
M  V30 21 1 21 2
M  V30 22 1 21 5
M  V30 23 1 19 14
M  V30 24 1 1 22
M  V30 25 1 1 23
M  V30 26 1 1 24
M  V30 27 1 3 25
M  V30 28 1 7 26
M  V30 29 1 8 27
M  V30 30 1 8 28
M  V30 31 1 9 29 CFG=3
M  V30 32 1 10 30
M  V30 33 1 10 31
M  V30 34 1 10 32
M  V30 35 1 11 33
M  V30 36 1 11 34
M  V30 37 1 15 35
M  V30 38 1 16 36
M  V30 39 1 18 37
M  V30 40 1 19 38
M  V30 END BOND
M  V30 END CTAB
M  END
>  <Dataset>  (314) 
ChEMBL_Kinases

>  <Ligand_Instance>  (314) 
nan

>  <PDB_ID>  (314) 
nan

>  <Standardized_SMILES>  (314) 
Cc1csc2c(NC[C@@H](C)N)nc(-c3ccncc3)nc12

>  <Name>  (314) 
nan

>  <Pocket>  (314) 
nan

>  <ATP_Site>  (314) 
nan

>  <Peripheral>  (314) 
nan

>  <Num_H_Atoms_ProtBoundConf>  (314) 
nan

>  <Num_Resolved_Atoms>  (314) 
nan

>  <Num_Not_Resolved_Atoms>  (314) 
nan

$$$$
CHEMBL3731914
     RDKit          3D

  0  0  0  0  0  0  0  0  0  0999 V3000
M  V30 BEGIN CTAB
M  V30 COUNTS 58 62 0 0 0
M  V30 BEGIN ATOM
M  V30 1 C 0.669402 -1.852748 5.256987 0
M  V30 2 C 1.519775 -2.822572 4.531909 0
M  V30 3 C 0.605424 -3.878739 3.860165 0
M  V30 4 C 2.391808 -2.319183 3.438431 0
M  V30 5 N 1.632289 -1.704981 2.386577 0
M  V30 6 C 2.484782 -1.617139 1.170284 0
M  V30 7 C 1.874959 -0.827977 0.078139 0
M  V30 8 N 0.561898 -0.244034 0.401293 0
M  V30 9 C -0.333729 0.246146 -0.574406 0
M  V30 10 N -0.221824 1.568875 -0.636991 0
M  V30 11 C -0.875781 2.373285 -1.486436 0
M  V30 12 C -0.783573 3.821652 -1.577245 0
M  V30 13 C 0.067439 4.414656 -0.646033 0
M  V30 14 C 0.173065 5.785560 -0.702139 0
M  V30 15 N -0.497595 6.525811 -1.595466 0
M  V30 16 C -1.334446 5.965505 -2.514328 0
M  V30 17 C -1.464509 4.592095 -2.487130 0
M  V30 18 N -1.709898 1.794924 -2.341595 0
M  V30 19 C -1.835548 0.454508 -2.289753 0
M  V30 20 S -2.878925 -0.753039 -3.265126 0
M  V30 21 C -2.298149 -2.222472 -2.390124 0
M  V30 22 C -1.414183 -1.745931 -1.479140 0
M  V30 23 C -1.176690 -0.408136 -1.424933 0
M  V30 24 C -0.970456 -2.940636 -0.736104 0
M  V30 25 C -0.657396 -4.020812 -1.780698 0
M  V30 26 C -2.023151 -4.634795 -2.103531 0
M  V30 27 C -2.806826 -3.519602 -2.759551 0
M  V30 28 C 0.033327 -0.088663 1.772527 0
M  V30 29 C 1.271466 -0.315209 2.656306 0
M  V30 30 H 1.255993 -1.042054 5.718672 0
M  V30 31 H -0.223326 -1.511269 4.715364 0
M  V30 32 H 0.198383 -2.465524 6.119226 0
M  V30 33 H 2.110100 -3.402717 5.299991 0
M  V30 34 H 0.085106 -3.446622 2.995803 0
M  V30 35 H 1.321509 -4.670405 3.539228 0
M  V30 36 H -0.094005 -4.184536 4.635973 0
M  V30 37 H 3.072447 -3.119108 3.043003 0
M  V30 38 H 3.045550 -1.510947 3.864321 0
M  V30 39 H 2.843812 -2.624010 0.873669 0
M  V30 40 H 3.379251 -1.063420 1.533837 0
M  V30 41 H 1.714250 -1.466543 -0.809919 0
M  V30 42 H 2.559735 -0.014218 -0.287737 0
M  V30 43 H 0.643104 3.893818 0.108460 0
M  V30 44 H 0.830852 6.287688 0.013488 0
M  V30 45 H -1.887782 6.536753 -3.246815 0
M  V30 46 H -2.120141 4.071991 -3.194839 0
M  V30 47 H -1.810393 -3.352268 -0.097538 0
M  V30 48 H -0.072708 -2.841992 -0.143127 0
M  V30 49 H 0.047547 -4.763820 -1.396231 0
M  V30 50 H -0.319979 -3.500432 -2.698285 0
M  V30 51 H -2.522058 -4.829478 -1.121081 0
M  V30 52 H -1.946960 -5.543975 -2.695683 0
M  V30 53 H -3.878310 -3.714760 -2.588474 0
M  V30 54 H -2.663757 -3.668916 -3.870403 0
M  V30 55 H -0.387202 0.902469 1.952660 0
M  V30 56 H -0.641876 -0.930755 2.030292 0
M  V30 57 H 2.053403 0.340333 2.156887 0
M  V30 58 H 1.149108 -0.029480 3.674634 0
M  V30 END ATOM
M  V30 BEGIN BOND
M  V30 1 1 1 2
M  V30 2 1 2 3
M  V30 3 1 2 4
M  V30 4 1 4 5
M  V30 5 1 5 6
M  V30 6 1 6 7
M  V30 7 1 7 8
M  V30 8 1 8 9
M  V30 9 2 9 10
M  V30 10 1 10 11
M  V30 11 1 11 12
M  V30 12 2 12 13
M  V30 13 1 13 14
M  V30 14 2 14 15
M  V30 15 1 15 16
M  V30 16 2 16 17
M  V30 17 2 11 18
M  V30 18 1 18 19
M  V30 19 1 19 20
M  V30 20 1 20 21
M  V30 21 2 21 22
M  V30 22 1 22 23
M  V30 23 1 22 24
M  V30 24 1 24 25
M  V30 25 1 25 26
M  V30 26 1 26 27
M  V30 27 1 8 28
M  V30 28 1 28 29
M  V30 29 1 29 5
M  V30 30 1 23 9
M  V30 31 1 17 12
M  V30 32 2 23 19
M  V30 33 1 27 21
M  V30 34 1 1 30
M  V30 35 1 1 31
M  V30 36 1 1 32
M  V30 37 1 2 33
M  V30 38 1 3 34
M  V30 39 1 3 35
M  V30 40 1 3 36
M  V30 41 1 4 37
M  V30 42 1 4 38
M  V30 43 1 6 39
M  V30 44 1 6 40
M  V30 45 1 7 41
M  V30 46 1 7 42
M  V30 47 1 13 43
M  V30 48 1 14 44
M  V30 49 1 16 45
M  V30 50 1 17 46
M  V30 51 1 24 47
M  V30 52 1 24 48
M  V30 53 1 25 49
M  V30 54 1 25 50
M  V30 55 1 26 51
M  V30 56 1 26 52
M  V30 57 1 27 53
M  V30 58 1 27 54
M  V30 59 1 28 55
M  V30 60 1 28 56
M  V30 61 1 29 57
M  V30 62 1 29 58
M  V30 END BOND
M  V30 END CTAB
M  END
>  <Dataset>  (315) 
ChEMBL_Kinases

>  <Ligand_Instance>  (315) 
nan

>  <PDB_ID>  (315) 
nan

>  <Standardized_SMILES>  (315) 
CC(C)CN1CCN(c2nc(-c3ccncc3)nc3sc4c(c23)CCCC4)CC1

>  <Name>  (315) 
nan

>  <Pocket>  (315) 
nan

>  <ATP_Site>  (315) 
nan

>  <Peripheral>  (315) 
nan

>  <Num_H_Atoms_ProtBoundConf>  (315) 
nan

>  <Num_Resolved_Atoms>  (315) 
nan

>  <Num_Not_Resolved_Atoms>  (315) 
nan

$$$$
CHEMBL3731903
     RDKit          3D

  0  0  0  0  0  0  0  0  0  0999 V3000
M  V30 BEGIN CTAB
M  V30 COUNTS 51 54 0 0 0
M  V30 BEGIN ATOM
M  V30 1 C 2.393514 -5.649595 3.012645 0
M  V30 2 C 1.484234 -4.707814 2.439689 0
M  V30 3 S 1.685148 -3.409399 1.096201 0
M  V30 4 C -0.085834 -2.813878 1.214790 0
M  V30 5 C 0.075479 -1.931061 0.289623 0
M  V30 6 N 0.245979 -0.992213 -0.694019 0
M  V30 7 C 1.592201 -0.757878 -1.184492 0
M  V30 8 C 2.024094 0.653000 -0.808008 0 CFG=1
M  V30 9 N 3.403645 0.808641 -1.319003 0
M  V30 10 C 1.168409 1.640858 -1.555013 0
M  V30 11 C 1.623115 3.021211 -1.160963 0
M  V30 12 C 2.624970 3.662643 -1.851575 0
M  V30 13 C 2.993709 4.959162 -1.474025 0
M  V30 14 C 2.314309 5.520657 -0.411897 0
M  V30 15 C 1.316693 4.891522 0.282468 0
M  V30 16 C 0.936079 3.593148 -0.083097 0
M  V30 17 N -1.276632 -1.476800 0.370307 0
M  V30 18 C -2.149387 -2.011263 1.233610 0
M  V30 19 C -3.597985 -1.602057 1.411599 0
M  V30 20 C -4.453238 -2.123210 2.346107 0
M  V30 21 C -5.711455 -1.572815 2.325824 0
M  V30 22 N -6.110047 -0.604457 1.476637 0
M  V30 23 C -5.254657 -0.109138 0.567308 0
M  V30 24 C -3.974214 -0.614203 0.530443 0
M  V30 25 N -1.845857 -2.996789 2.077898 0
M  V30 26 C -0.669702 -3.568637 2.178643 0
M  V30 27 C 0.148117 -4.464465 2.727902 0
M  V30 28 C -0.517984 -5.275939 3.781269 0
M  V30 29 H 2.607338 -6.523660 2.370972 0
M  V30 30 H 1.997536 -6.041096 3.979912 0
M  V30 31 H 3.380327 -5.188935 3.285545 0
M  V30 32 H -0.192307 -0.326345 -1.312058 0
M  V30 33 H 1.735577 -0.987410 -2.247253 0
M  V30 34 H 2.273410 -1.436236 -0.613990 0
M  V30 35 H 2.012549 0.776236 0.284062 0
M  V30 36 H 3.554432 0.243058 -2.175791 0
M  V30 37 H 4.084771 0.579417 -0.554793 0
M  V30 38 H 1.368313 1.496302 -2.657388 0
M  V30 39 H 0.094467 1.570063 -1.356166 0
M  V30 40 H 3.135982 3.195496 -2.678479 0
M  V30 41 H 3.765992 5.531200 -1.960278 0
M  V30 42 H 2.489876 6.508313 -0.018531 0
M  V30 43 H 0.751769 5.278994 1.113396 0
M  V30 44 H 0.153860 3.050709 0.432266 0
M  V30 45 H -4.070097 -2.881028 2.979246 0
M  V30 46 H -6.404120 -1.981278 3.076669 0
M  V30 47 H -5.619298 0.659138 -0.091259 0
M  V30 48 H -3.305810 -0.190990 -0.219961 0
M  V30 49 H -1.597146 -5.448630 3.629063 0
M  V30 50 H -0.028780 -6.284090 3.854770 0
M  V30 51 H -0.323639 -4.795167 4.783834 0
M  V30 END ATOM
M  V30 BEGIN BOND
M  V30 1 1 1 2
M  V30 2 1 2 3
M  V30 3 1 3 4
M  V30 4 2 4 5
M  V30 5 1 5 6
M  V30 6 1 6 7
M  V30 7 1 7 8
M  V30 8 1 8 9
M  V30 9 1 8 10
M  V30 10 1 10 11
M  V30 11 2 11 12
M  V30 12 1 12 13
M  V30 13 2 13 14
M  V30 14 1 14 15
M  V30 15 2 15 16
M  V30 16 1 5 17
M  V30 17 2 17 18
M  V30 18 1 18 19
M  V30 19 2 19 20
M  V30 20 1 20 21
M  V30 21 2 21 22
M  V30 22 1 22 23
M  V30 23 2 23 24
M  V30 24 1 18 25
M  V30 25 2 25 26
M  V30 26 1 26 27
M  V30 27 1 27 28
M  V30 28 2 27 2
M  V30 29 1 26 4
M  V30 30 1 16 11
M  V30 31 1 24 19
M  V30 32 1 1 29
M  V30 33 1 1 30
M  V30 34 1 1 31
M  V30 35 1 6 32
M  V30 36 1 7 33
M  V30 37 1 7 34
M  V30 38 1 8 35 CFG=1
M  V30 39 1 9 36
M  V30 40 1 9 37
M  V30 41 1 10 38
M  V30 42 1 10 39
M  V30 43 1 12 40
M  V30 44 1 13 41
M  V30 45 1 14 42
M  V30 46 1 15 43
M  V30 47 1 16 44
M  V30 48 1 20 45
M  V30 49 1 21 46
M  V30 50 1 23 47
M  V30 51 1 24 48
M  V30 52 1 28 49
M  V30 53 1 28 50
M  V30 54 1 28 51
M  V30 END BOND
M  V30 END CTAB
M  END
>  <Dataset>  (316) 
ChEMBL_Kinases

>  <Ligand_Instance>  (316) 
nan

>  <PDB_ID>  (316) 
nan

>  <Standardized_SMILES>  (316) 
Cc1sc2c(NC[C@@H](N)Cc3ccccc3)nc(-c3ccncc3)nc2c1C

>  <Name>  (316) 
nan

>  <Pocket>  (316) 
nan

>  <ATP_Site>  (316) 
nan

>  <Peripheral>  (316) 
nan

>  <Num_H_Atoms_ProtBoundConf>  (316) 
nan

>  <Num_Resolved_Atoms>  (316) 
nan

>  <Num_Not_Resolved_Atoms>  (316) 
nan

$$$$
CHEMBL3731902
     RDKit          3D

  0  0  0  0  0  0  0  0  0  0999 V3000
M  V30 BEGIN CTAB
M  V30 COUNTS 61 65 0 0 0
M  V30 BEGIN ATOM
M  V30 1 C 5.280513 -0.302867 1.842381 0
M  V30 2 C 4.016919 -1.046906 2.205743 0
M  V30 3 C 4.422080 -2.282826 2.972573 0
M  V30 4 C 3.300789 -1.359155 0.911172 0
M  V30 5 C 1.798008 -1.510823 1.136211 0
M  V30 6 C 1.156827 -0.212752 1.403152 0
M  V30 7 C 1.965654 0.302187 2.424752 0
M  V30 8 S 1.194050 1.959936 2.786479 0
M  V30 9 C -0.112938 1.787087 1.546652 0
M  V30 10 N -1.099852 2.618623 1.211451 0
M  V30 11 C -1.993220 2.321271 0.257116 0
M  V30 12 C -3.061280 3.231348 -0.099862 0
M  V30 13 C -3.155293 4.436360 0.565601 0
M  V30 14 C -4.222041 5.231557 0.138604 0
M  V30 15 N -5.099840 4.916211 -0.813478 0
M  V30 16 C -4.997856 3.742815 -1.452484 0
M  V30 17 C -3.974880 2.891441 -1.098038 0
M  V30 18 N -1.769528 1.137156 -0.283547 0
M  V30 19 C -0.820427 0.255542 -0.011907 0
M  V30 20 N -0.864493 -0.944585 -0.766470 0
M  V30 21 C -1.883129 -1.140611 -1.771573 0
M  V30 22 C -1.909870 -2.433422 -2.480364 0 CFG=1
M  V30 23 N -0.692520 -2.745343 -3.199163 0
M  V30 24 C -2.471592 -3.587382 -1.693842 0
M  V30 25 C -1.771783 -3.907015 -0.455268 0
M  V30 26 C -0.706387 -4.800351 -0.497520 0
M  V30 27 C 0.041031 -5.202779 0.587671 0
M  V30 28 C -0.282259 -4.685478 1.824470 0
M  V30 29 C -1.334020 -3.788747 1.939955 0
M  V30 30 C -2.037230 -3.427291 0.833608 0
M  V30 31 C 0.105931 0.525637 0.952499 0
M  V30 32 C 3.123770 -0.212953 3.111809 0
M  V30 33 H 5.159880 0.352017 0.960894 0
M  V30 34 H 5.635719 0.312106 2.686327 0
M  V30 35 H 6.025065 -1.099945 1.559530 0
M  V30 36 H 3.632783 -3.056405 2.973851 0
M  V30 37 H 5.429358 -2.654921 2.713608 0
M  V30 38 H 4.508830 -1.968720 4.052479 0
M  V30 39 H 3.661175 -2.347810 0.567721 0
M  V30 40 H 3.513285 -0.635996 0.102387 0
M  V30 41 H 1.734582 -2.159498 2.053732 0
M  V30 42 H 1.454798 -2.042637 0.244288 0
M  V30 43 H -2.485111 4.753929 1.340093 0
M  V30 44 H -4.348221 6.201594 0.630764 0
M  V30 45 H -5.719528 3.500524 -2.224723 0
M  V30 46 H -3.878404 1.929968 -1.610484 0
M  V30 47 H -0.363518 -1.836051 -0.863625 0
M  V30 48 H -1.818993 -0.338804 -2.569918 0
M  V30 49 H -2.910975 -0.974526 -1.345877 0
M  V30 50 H -2.672119 -2.288656 -3.319621 0
M  V30 51 H -0.605615 -2.108089 -4.018709 0
M  V30 52 H 0.153346 -2.786821 -2.605296 0
M  V30 53 H -3.549961 -3.358248 -1.541954 0
M  V30 54 H -2.454312 -4.504676 -2.328494 0
M  V30 55 H -0.427213 -5.228149 -1.471553 0
M  V30 56 H 0.857469 -5.905289 0.466205 0
M  V30 57 H 0.256246 -4.952272 2.721223 0
M  V30 58 H -1.644139 -3.342402 2.878090 0
M  V30 59 H -2.877020 -2.720371 0.880619 0
M  V30 60 H 3.754494 0.618979 3.471981 0
M  V30 61 H 2.805152 -0.785328 4.003510 0
M  V30 END ATOM
M  V30 BEGIN BOND
M  V30 1 1 1 2
M  V30 2 1 2 3
M  V30 3 1 2 4
M  V30 4 1 4 5
M  V30 5 1 5 6
M  V30 6 2 6 7
M  V30 7 1 7 8
M  V30 8 1 8 9
M  V30 9 2 9 10
M  V30 10 1 10 11
M  V30 11 1 11 12
M  V30 12 2 12 13
M  V30 13 1 13 14
M  V30 14 2 14 15
M  V30 15 1 15 16
M  V30 16 2 16 17
M  V30 17 2 11 18
M  V30 18 1 18 19
M  V30 19 1 19 20
M  V30 20 1 20 21
M  V30 21 1 21 22
M  V30 22 1 22 23
M  V30 23 1 22 24
M  V30 24 1 24 25
M  V30 25 2 25 26
M  V30 26 1 26 27
M  V30 27 2 27 28
M  V30 28 1 28 29
M  V30 29 2 29 30
M  V30 30 2 19 31
M  V30 31 1 7 32
M  V30 32 1 32 2
M  V30 33 1 31 6
M  V30 34 1 31 9
M  V30 35 1 17 12
M  V30 36 1 30 25
M  V30 37 1 1 33
M  V30 38 1 1 34
M  V30 39 1 1 35
M  V30 40 1 3 36
M  V30 41 1 3 37
M  V30 42 1 3 38
M  V30 43 1 4 39
M  V30 44 1 4 40
M  V30 45 1 5 41
M  V30 46 1 5 42
M  V30 47 1 13 43
M  V30 48 1 14 44
M  V30 49 1 16 45
M  V30 50 1 17 46
M  V30 51 1 20 47
M  V30 52 1 21 48
M  V30 53 1 21 49
M  V30 54 1 22 50 CFG=3
M  V30 55 1 23 51
M  V30 56 1 23 52
M  V30 57 1 24 53
M  V30 58 1 24 54
M  V30 59 1 26 55
M  V30 60 1 27 56
M  V30 61 1 28 57
M  V30 62 1 29 58
M  V30 63 1 30 59
M  V30 64 1 32 60
M  V30 65 1 32 61
M  V30 END BOND
M  V30 END CTAB
M  END
>  <Dataset>  (317) 
ChEMBL_Kinases

>  <Ligand_Instance>  (317) 
nan

>  <PDB_ID>  (317) 
nan

>  <Standardized_SMILES>  (317) 
CC1(C)CCc2c(sc3nc(-c4ccncc4)nc(NC[C@@H](N)Cc4ccccc4)c23)C1

>  <Name>  (317) 
nan

>  <Pocket>  (317) 
nan

>  <ATP_Site>  (317) 
nan

>  <Peripheral>  (317) 
nan

>  <Num_H_Atoms_ProtBoundConf>  (317) 
nan

>  <Num_Resolved_Atoms>  (317) 
nan

>  <Num_Not_Resolved_Atoms>  (317) 
nan

$$$$
CHEMBL3731899
     RDKit          3D

  0  0  0  0  0  0  0  0  0  0999 V3000
M  V30 BEGIN CTAB
M  V30 COUNTS 66 70 0 0 0
M  V30 BEGIN ATOM
M  V30 1 C 3.414185 -0.962982 4.432803 0
M  V30 2 O 2.391560 -0.272385 3.710882 0
M  V30 3 C 2.587692 1.106515 3.554378 0
M  V30 4 C 3.663014 1.794131 4.037604 0
M  V30 5 C 3.822786 3.154571 3.863841 0
M  V30 6 C 2.869440 3.875944 3.175677 0
M  V30 7 C 1.761028 3.203055 2.670580 0
M  V30 8 O 0.747032 3.838928 1.964326 0
M  V30 9 C 0.882533 5.236867 1.769284 0
M  V30 10 C 1.620155 1.823471 2.858915 0
M  V30 11 C 0.456939 1.126073 2.326922 0
M  V30 12 C -0.610452 1.059315 3.179526 0
M  V30 13 C -0.913304 1.501525 4.505249 0
M  V30 14 S -1.888657 0.116856 2.183262 0
M  V30 15 C -0.833183 -0.073220 0.741448 0
M  V30 16 C -1.068839 -0.683909 -0.463551 0
M  V30 17 N -2.326884 -1.273556 -0.685072 0
M  V30 18 C -2.738204 -1.950548 -1.865206 0
M  V30 19 C -2.022541 -3.223493 -2.152751 0 CFG=1
M  V30 20 N -0.604459 -3.103250 -2.330467 0
M  V30 21 C -2.244985 -4.279518 -1.093078 0
M  V30 22 C -3.667958 -4.655169 -0.927551 0
M  V30 23 C -4.574515 -4.071390 -0.067912 0
M  V30 24 C -5.884317 -4.469127 0.035981 0
M  V30 25 C -6.354861 -5.506857 -0.747169 0
M  V30 26 C -5.474364 -6.118565 -1.623023 0
M  V30 27 C -4.165948 -5.702506 -1.709650 0
M  V30 28 N -0.083777 -0.678299 -1.380902 0
M  V30 29 C 1.074242 -0.073041 -1.059883 0
M  V30 30 C 2.213304 -0.015337 -2.002067 0
M  V30 31 C 2.017066 -0.617109 -3.225500 0
M  V30 32 C 3.075274 -0.565580 -4.106190 0
M  V30 33 N 4.277795 0.022275 -3.867564 0
M  V30 34 C 4.434572 0.601204 -2.660303 0
M  V30 35 C 3.417937 0.592465 -1.718746 0
M  V30 36 N 1.283227 0.513191 0.113215 0
M  V30 37 C 0.366554 0.561864 1.092947 0
M  V30 38 H 3.125133 -2.028589 4.556779 0
M  V30 39 H 4.342204 -0.803456 3.870152 0
M  V30 40 H 3.481166 -0.523789 5.453834 0
M  V30 41 H 4.418375 1.260477 4.575370 0
M  V30 42 H 4.686507 3.648975 4.263250 0
M  V30 43 H 2.963472 4.923051 3.025234 0
M  V30 44 H 1.897579 5.378900 1.344143 0
M  V30 45 H 0.889076 5.767248 2.749745 0
M  V30 46 H 0.077135 5.645834 1.124215 0
M  V30 47 H 0.024399 1.545382 5.091098 0
M  V30 48 H -1.580071 0.813047 5.085231 0
M  V30 49 H -1.344044 2.522131 4.497514 0
M  V30 50 H -3.051167 -1.221163 0.086693 0
M  V30 51 H -2.535841 -1.277738 -2.759979 0
M  V30 52 H -3.843196 -2.099026 -1.850340 0
M  V30 53 H -2.436528 -3.638368 -3.100441 0
M  V30 54 H -0.082225 -3.955511 -1.987483 0
M  V30 55 H -0.340335 -3.023975 -3.337650 0
M  V30 56 H -1.690466 -5.181166 -1.402800 0
M  V30 57 H -1.830983 -3.976277 -0.110434 0
M  V30 58 H -4.211144 -3.268945 0.538484 0
M  V30 59 H -6.534971 -3.970719 0.725691 0
M  V30 60 H -7.393785 -5.811461 -0.654795 0
M  V30 61 H -5.888634 -6.927740 -2.216661 0
M  V30 62 H -3.508836 -6.216239 -2.415810 0
M  V30 63 H 1.122512 -1.122532 -3.562538 0
M  V30 64 H 2.980416 -1.023840 -5.089466 0
M  V30 65 H 5.360078 1.107000 -2.351616 0
M  V30 66 H 3.541871 1.051779 -0.760436 0
M  V30 END ATOM
M  V30 BEGIN BOND
M  V30 1 1 1 2
M  V30 2 1 2 3
M  V30 3 2 3 4
M  V30 4 1 4 5
M  V30 5 2 5 6
M  V30 6 1 6 7
M  V30 7 1 7 8
M  V30 8 1 8 9
M  V30 9 2 7 10
M  V30 10 1 10 11
M  V30 11 2 11 12
M  V30 12 1 12 13
M  V30 13 1 12 14
M  V30 14 1 14 15
M  V30 15 2 15 16
M  V30 16 1 16 17
M  V30 17 1 17 18
M  V30 18 1 18 19
M  V30 19 1 19 20
M  V30 20 1 19 21
M  V30 21 1 21 22
M  V30 22 2 22 23
M  V30 23 1 23 24
M  V30 24 2 24 25
M  V30 25 1 25 26
M  V30 26 2 26 27
M  V30 27 1 16 28
M  V30 28 2 28 29
M  V30 29 1 29 30
M  V30 30 2 30 31
M  V30 31 1 31 32
M  V30 32 2 32 33
M  V30 33 1 33 34
M  V30 34 2 34 35
M  V30 35 1 29 36
M  V30 36 2 36 37
M  V30 37 1 10 3
M  V30 38 1 37 11
M  V30 39 1 37 15
M  V30 40 1 27 22
M  V30 41 1 35 30
M  V30 42 1 1 38
M  V30 43 1 1 39
M  V30 44 1 1 40
M  V30 45 1 4 41
M  V30 46 1 5 42
M  V30 47 1 6 43
M  V30 48 1 9 44
M  V30 49 1 9 45
M  V30 50 1 9 46
M  V30 51 1 13 47
M  V30 52 1 13 48
M  V30 53 1 13 49
M  V30 54 1 17 50
M  V30 55 1 18 51
M  V30 56 1 18 52
M  V30 57 1 19 53 CFG=3
M  V30 58 1 20 54
M  V30 59 1 20 55
M  V30 60 1 21 56
M  V30 61 1 21 57
M  V30 62 1 23 58
M  V30 63 1 24 59
M  V30 64 1 25 60
M  V30 65 1 26 61
M  V30 66 1 27 62
M  V30 67 1 31 63
M  V30 68 1 32 64
M  V30 69 1 34 65
M  V30 70 1 35 66
M  V30 END BOND
M  V30 END CTAB
M  END
>  <Dataset>  (318) 
ChEMBL_Kinases

>  <Ligand_Instance>  (318) 
nan

>  <PDB_ID>  (318) 
nan

>  <Standardized_SMILES>  (318) 
COc1cccc(OC)c1-c1c(C)sc2c(NC[C@@H](N)Cc3ccccc3)nc(-c3ccncc3)nc12

>  <Name>  (318) 
nan

>  <Pocket>  (318) 
nan

>  <ATP_Site>  (318) 
nan

>  <Peripheral>  (318) 
nan

>  <Num_H_Atoms_ProtBoundConf>  (318) 
nan

>  <Num_Resolved_Atoms>  (318) 
nan

>  <Num_Not_Resolved_Atoms>  (318) 
nan

$$$$
CHEMBL3731862
     RDKit          3D

  0  0  0  0  0  0  0  0  0  0999 V3000
M  V30 BEGIN CTAB
M  V30 COUNTS 48 51 0 0 0
M  V30 BEGIN ATOM
M  V30 1 C 1.064520 -4.318036 -0.877253 0
M  V30 2 C 2.206708 -3.461222 -0.397222 0 CFG=1
M  V30 3 N 3.299059 -3.650107 -1.326132 0
M  V30 4 C 1.898716 -2.014768 -0.356695 0
M  V30 5 N 0.812522 -1.596944 0.488471 0
M  V30 6 C 0.437626 -0.232024 0.598010 0
M  V30 7 N 1.138039 0.598137 -0.145186 0
M  V30 8 C 1.025031 1.906838 -0.279125 0
M  V30 9 C 1.855129 2.731917 -1.131148 0
M  V30 10 C 2.846430 2.107357 -1.865413 0
M  V30 11 C 3.611246 2.957835 -2.666311 0
M  V30 12 N 3.428483 4.288899 -2.744847 0
M  V30 13 C 2.455270 4.880560 -2.020197 0
M  V30 14 C 1.648268 4.094017 -1.194623 0
M  V30 15 N 0.036628 2.414234 0.473964 0
M  V30 16 C -0.716898 1.606734 1.258871 0
M  V30 17 S -2.073938 2.053759 2.332103 0
M  V30 18 C -2.396675 0.409842 2.897266 0
M  V30 19 C -1.441418 -0.374893 2.225590 0
M  V30 20 C -0.579515 0.246758 1.381946 0
M  V30 21 C -1.412973 -1.814076 2.488779 0
M  V30 22 C -2.321923 -2.237003 3.635705 0
M  V30 23 C -3.769573 -2.273338 3.295200 0
M  V30 24 C -4.421387 -0.910909 3.331308 0
M  V30 25 C -3.474072 0.148618 3.852819 0
M  V30 26 H 0.475821 -3.773036 -1.628591 0
M  V30 27 H 1.492065 -5.215024 -1.389830 0
M  V30 28 H 0.438822 -4.730980 -0.062334 0
M  V30 29 H 2.548229 -3.777481 0.606665 0
M  V30 30 H 3.627404 -4.630546 -1.289091 0
M  V30 31 H 3.101044 -3.297265 -2.273157 0
M  V30 32 H 1.710627 -1.559648 -1.352013 0
M  V30 33 H 2.841996 -1.498222 -0.008485 0
M  V30 34 H 0.507734 -2.502593 0.870644 0
M  V30 35 H 3.022344 1.052636 -1.829667 0
M  V30 36 H 4.402334 2.469308 -3.254028 0
M  V30 37 H 2.243630 5.940969 -2.026527 0
M  V30 38 H 0.858834 4.504294 -0.594562 0
M  V30 39 H -0.389131 -2.092531 2.892102 0
M  V30 40 H -1.642159 -2.488818 1.684208 0
M  V30 41 H -2.029698 -3.313725 3.830197 0
M  V30 42 H -2.112379 -1.718473 4.563337 0
M  V30 43 H -3.945012 -2.787359 2.334167 0
M  V30 44 H -4.266576 -2.889506 4.076357 0
M  V30 45 H -5.328805 -0.870801 3.968289 0
M  V30 46 H -4.710377 -0.598426 2.311290 0
M  V30 47 H -4.103450 1.073739 3.913563 0
M  V30 48 H -3.154577 -0.025907 4.896313 0
M  V30 END ATOM
M  V30 BEGIN BOND
M  V30 1 1 1 2
M  V30 2 1 2 3
M  V30 3 1 2 4
M  V30 4 1 4 5
M  V30 5 1 5 6
M  V30 6 2 6 7
M  V30 7 1 7 8
M  V30 8 1 8 9
M  V30 9 2 9 10
M  V30 10 1 10 11
M  V30 11 2 11 12
M  V30 12 1 12 13
M  V30 13 2 13 14
M  V30 14 2 8 15
M  V30 15 1 15 16
M  V30 16 1 16 17
M  V30 17 1 17 18
M  V30 18 2 18 19
M  V30 19 1 19 20
M  V30 20 1 19 21
M  V30 21 1 21 22
M  V30 22 1 22 23
M  V30 23 1 23 24
M  V30 24 1 24 25
M  V30 25 1 20 6
M  V30 26 1 14 9
M  V30 27 2 20 16
M  V30 28 1 25 18
M  V30 29 1 1 26
M  V30 30 1 1 27
M  V30 31 1 1 28
M  V30 32 1 2 29 CFG=1
M  V30 33 1 3 30
M  V30 34 1 3 31
M  V30 35 1 4 32
M  V30 36 1 4 33
M  V30 37 1 5 34
M  V30 38 1 10 35
M  V30 39 1 11 36
M  V30 40 1 13 37
M  V30 41 1 14 38
M  V30 42 1 21 39
M  V30 43 1 21 40
M  V30 44 1 22 41
M  V30 45 1 22 42
M  V30 46 1 23 43
M  V30 47 1 23 44
M  V30 48 1 24 45
M  V30 49 1 24 46
M  V30 50 1 25 47
M  V30 51 1 25 48
M  V30 END BOND
M  V30 END CTAB
M  END
>  <Dataset>  (319) 
ChEMBL_Kinases

>  <Ligand_Instance>  (319) 
nan

>  <PDB_ID>  (319) 
nan

>  <Standardized_SMILES>  (319) 
C[C@@H](N)CNc1nc(-c2ccncc2)nc2sc3c(c12)CCCCC3

>  <Name>  (319) 
nan

>  <Pocket>  (319) 
nan

>  <ATP_Site>  (319) 
nan

>  <Peripheral>  (319) 
nan

>  <Num_H_Atoms_ProtBoundConf>  (319) 
nan

>  <Num_Resolved_Atoms>  (319) 
nan

>  <Num_Not_Resolved_Atoms>  (319) 
nan

$$$$
CHEMBL3731860
     RDKit          3D

  0  0  0  0  0  0  0  0  0  0999 V3000
M  V30 BEGIN CTAB
M  V30 COUNTS 48 52 0 0 0
M  V30 BEGIN ATOM
M  V30 1 C -0.191145 -3.231650 -0.818182 0
M  V30 2 C 0.398983 -2.044035 -0.453963 0
M  V30 3 C -0.165877 -1.273447 0.536059 0
M  V30 4 C 0.550250 -0.014288 0.850392 0
M  V30 5 N 1.675748 0.343865 0.206080 0
M  V30 6 C 2.263470 1.496091 0.547616 0
M  V30 7 N 3.429792 2.005459 -0.022973 0
M  V30 8 C 4.023411 1.223764 -1.044444 0 CFG=2
M  V30 9 C 3.198098 0.950965 -2.254001 0
M  V30 10 C 3.826056 -0.310197 -2.821222 0
M  V30 11 N 4.931643 -0.651139 -1.938137 0
M  V30 12 C 4.464636 -0.162760 -0.629271 0
M  V30 13 C 1.630843 2.220676 1.560179 0
M  V30 14 S 2.147945 3.864012 2.302928 0
M  V30 15 C 0.650393 3.884786 3.509575 0
M  V30 16 C 0.001444 2.709293 3.200423 0
M  V30 17 C 0.484241 1.884904 2.237022 0
M  V30 18 N -0.025031 0.714433 1.820214 0
M  V30 19 C -1.320894 -1.690080 1.162178 0
M  V30 20 C -1.882863 -2.895789 0.762874 0
M  V30 21 N -3.087725 -3.332609 1.414465 0
M  V30 22 C -3.631778 -2.473111 2.449946 0
M  V30 23 C -4.885538 -3.005670 3.073384 0
M  V30 24 C -6.103627 -3.267929 2.306924 0
M  V30 25 C -6.037382 -1.979809 3.070554 0
M  V30 26 N -1.316656 -3.634407 -0.205796 0
M  V30 27 H 0.278034 -3.819834 -1.604140 0
M  V30 28 H 1.317119 -1.728640 -0.962657 0
M  V30 29 H 3.838174 2.912478 0.288922 0
M  V30 30 H 4.958831 1.720878 -1.412772 0
M  V30 31 H 2.129582 0.780646 -2.087039 0
M  V30 32 H 3.379382 1.751936 -3.017568 0
M  V30 33 H 4.224893 -0.165834 -3.848531 0
M  V30 34 H 3.134270 -1.164561 -2.826642 0
M  V30 35 H 5.819269 -0.187548 -2.198362 0
M  V30 36 H 3.658764 -0.840991 -0.353759 0
M  V30 37 H 5.283319 -0.106348 0.101455 0
M  V30 38 H 0.541908 4.658207 4.139160 0
M  V30 39 H -0.885159 2.541579 3.788429 0
M  V30 40 H -1.721466 -1.052673 1.928032 0
M  V30 41 H -3.511421 -4.232620 1.120050 0
M  V30 42 H -2.845955 -2.336031 3.204078 0
M  V30 43 H -3.774310 -1.476960 1.964160 0
M  V30 44 H -4.761425 -3.529535 4.051060 0
M  V30 45 H -6.022568 -3.223872 1.196107 0
M  V30 46 H -6.787146 -4.083118 2.684060 0
M  V30 47 H -6.624451 -1.868936 4.008629 0
M  V30 48 H -5.914053 -1.046760 2.509231 0
M  V30 END ATOM
M  V30 BEGIN BOND
M  V30 1 2 1 2
M  V30 2 1 2 3
M  V30 3 1 3 4
M  V30 4 2 4 5
M  V30 5 1 5 6
M  V30 6 1 6 7
M  V30 7 1 7 8
M  V30 8 1 8 9
M  V30 9 1 9 10
M  V30 10 1 10 11
M  V30 11 1 11 12
M  V30 12 2 6 13
M  V30 13 1 13 14
M  V30 14 1 14 15
M  V30 15 2 15 16
M  V30 16 1 16 17
M  V30 17 2 17 18
M  V30 18 2 3 19
M  V30 19 1 19 20
M  V30 20 1 20 21
M  V30 21 1 21 22
M  V30 22 1 22 23
M  V30 23 1 23 24
M  V30 24 1 24 25
M  V30 25 2 20 26
M  V30 26 1 26 1
M  V30 27 1 18 4
M  V30 28 1 25 23
M  V30 29 1 12 8
M  V30 30 1 17 13
M  V30 31 1 1 27
M  V30 32 1 2 28
M  V30 33 1 7 29
M  V30 34 1 8 30 CFG=3
M  V30 35 1 9 31
M  V30 36 1 9 32
M  V30 37 1 10 33
M  V30 38 1 10 34
M  V30 39 1 11 35
M  V30 40 1 12 36
M  V30 41 1 12 37
M  V30 42 1 15 38
M  V30 43 1 16 39
M  V30 44 1 19 40
M  V30 45 1 21 41
M  V30 46 1 22 42
M  V30 47 1 22 43
M  V30 48 1 23 44
M  V30 49 1 24 45
M  V30 50 1 24 46
M  V30 51 1 25 47
M  V30 52 1 25 48
M  V30 END BOND
M  V30 END CTAB
M  END
>  <Dataset>  (320) 
ChEMBL_Kinases

>  <Ligand_Instance>  (320) 
nan

>  <PDB_ID>  (320) 
nan

>  <Standardized_SMILES>  (320) 
c1cc(-c2nc(N[C@@H]3CCNC3)c3sccc3n2)cc(NCC2CC2)n1

>  <Name>  (320) 
nan

>  <Pocket>  (320) 
nan

>  <ATP_Site>  (320) 
nan

>  <Peripheral>  (320) 
nan

>  <Num_H_Atoms_ProtBoundConf>  (320) 
nan

>  <Num_Resolved_Atoms>  (320) 
nan

>  <Num_Not_Resolved_Atoms>  (320) 
nan

$$$$
CHEMBL3731857
     RDKit          3D

  0  0  0  0  0  0  0  0  0  0999 V3000
M  V30 BEGIN CTAB
M  V30 COUNTS 55 59 0 0 0
M  V30 BEGIN ATOM
M  V30 1 C 1.693361 -6.850162 1.102256 0
M  V30 2 N 2.061211 -5.598444 1.746375 0
M  V30 3 C 2.778676 -5.506000 2.877200 0
M  V30 4 C 2.876901 -4.159831 3.102991 0
M  V30 5 C 2.237825 -3.438864 2.138412 0
M  V30 6 C 2.095534 -1.994901 1.991307 0
M  V30 7 C 2.684674 -1.149535 2.964336 0
M  V30 8 S 2.226559 0.571264 2.332841 0
M  V30 9 C 1.382893 -0.006570 0.972690 0
M  V30 10 C 0.701956 0.724151 -0.062783 0
M  V30 11 N 0.738539 2.111087 0.045163 0
M  V30 12 C 0.158734 3.067601 -0.811225 0
M  V30 13 C -1.324494 3.121241 -0.909528 0 CFG=1
M  V30 14 N -1.836230 1.868320 -1.379996 0
M  V30 15 C -2.052687 3.691546 0.249381 0
M  V30 16 C -1.891903 3.031108 1.540073 0
M  V30 17 C -0.964136 3.287716 2.529603 0
M  V30 18 C -0.884868 2.612265 3.722215 0
M  V30 19 C -1.782319 1.599114 3.980484 0
M  V30 20 C -2.737912 1.288399 3.035146 0
M  V30 21 C -2.771772 2.001858 1.850418 0
M  V30 22 N 0.093225 0.059405 -1.057780 0
M  V30 23 C 0.170109 -1.280443 -1.007188 0
M  V30 24 C -0.449995 -2.149716 -2.038563 0
M  V30 25 C -1.100500 -1.496952 -3.058698 0
M  V30 26 C -1.696120 -2.250022 -4.049571 0
M  V30 27 N -1.662665 -3.586792 -4.051952 0
M  V30 28 C -1.024227 -4.237340 -3.051161 0
M  V30 29 C -0.413436 -3.528625 -2.037737 0
M  V30 30 N 0.801886 -1.957306 -0.046393 0
M  V30 31 C 1.433910 -1.372470 0.981285 0
M  V30 32 N 1.758091 -4.400163 1.334486 0
M  V30 33 H 0.643915 -7.132697 1.264944 0
M  V30 34 H 2.391801 -7.653708 1.367396 0
M  V30 35 H 1.807082 -6.693554 -0.008561 0
M  V30 36 H 3.209066 -6.267210 3.512110 0
M  V30 37 H 3.404851 -3.707979 3.955333 0
M  V30 38 H 3.283405 -1.504013 3.889163 0
M  V30 39 H 1.238015 2.597188 0.823307 0
M  V30 40 H 0.510393 2.796751 -1.864223 0
M  V30 41 H 0.516059 4.115463 -0.705765 0
M  V30 42 H -1.531504 3.845361 -1.768800 0
M  V30 43 H -2.830545 1.698140 -1.082825 0
M  V30 44 H -1.736387 1.768569 -2.416997 0
M  V30 45 H -3.136900 3.737497 0.023089 0
M  V30 46 H -1.711943 4.766161 0.337421 0
M  V30 47 H -0.261754 4.102889 2.292275 0
M  V30 48 H -0.138576 2.869172 4.438326 0
M  V30 49 H -1.743709 1.050569 4.910305 0
M  V30 50 H -3.415704 0.491021 3.281563 0
M  V30 51 H -3.577331 1.653171 1.192408 0
M  V30 52 H -1.200997 -0.427933 -3.177335 0
M  V30 53 H -2.216620 -1.791838 -4.868448 0
M  V30 54 H -0.974315 -5.332785 -3.016863 0
M  V30 55 H 0.115962 -3.992108 -1.204662 0
M  V30 END ATOM
M  V30 BEGIN BOND
M  V30 1 1 1 2
M  V30 2 1 2 3
M  V30 3 2 3 4
M  V30 4 1 4 5
M  V30 5 1 5 6
M  V30 6 2 6 7
M  V30 7 1 7 8
M  V30 8 1 8 9
M  V30 9 2 9 10
M  V30 10 1 10 11
M  V30 11 1 11 12
M  V30 12 1 12 13
M  V30 13 1 13 14
M  V30 14 1 13 15
M  V30 15 1 15 16
M  V30 16 2 16 17
M  V30 17 1 17 18
M  V30 18 2 18 19
M  V30 19 1 19 20
M  V30 20 2 20 21
M  V30 21 1 10 22
M  V30 22 2 22 23
M  V30 23 1 23 24
M  V30 24 2 24 25
M  V30 25 1 25 26
M  V30 26 2 26 27
M  V30 27 1 27 28
M  V30 28 2 28 29
M  V30 29 1 23 30
M  V30 30 2 30 31
M  V30 31 2 5 32
M  V30 32 1 32 2
M  V30 33 1 31 6
M  V30 34 1 31 9
M  V30 35 1 21 16
M  V30 36 1 29 24
M  V30 37 1 1 33
M  V30 38 1 1 34
M  V30 39 1 1 35
M  V30 40 1 3 36
M  V30 41 1 4 37
M  V30 42 1 7 38
M  V30 43 1 11 39
M  V30 44 1 12 40
M  V30 45 1 12 41
M  V30 46 1 13 42 CFG=3
M  V30 47 1 14 43
M  V30 48 1 14 44
M  V30 49 1 15 45
M  V30 50 1 15 46
M  V30 51 1 17 47
M  V30 52 1 18 48
M  V30 53 1 19 49
M  V30 54 1 20 50
M  V30 55 1 21 51
M  V30 56 1 25 52
M  V30 57 1 26 53
M  V30 58 1 28 54
M  V30 59 1 29 55
M  V30 END BOND
M  V30 END CTAB
M  END
>  <Dataset>  (321) 
ChEMBL_Kinases

>  <Ligand_Instance>  (321) 
nan

>  <PDB_ID>  (321) 
nan

>  <Standardized_SMILES>  (321) 
Cn1ccc(-c2csc3c(NC[C@@H](N)Cc4ccccc4)nc(-c4ccncc4)nc23)n1

>  <Name>  (321) 
nan

>  <Pocket>  (321) 
nan

>  <ATP_Site>  (321) 
nan

>  <Peripheral>  (321) 
nan

>  <Num_H_Atoms_ProtBoundConf>  (321) 
nan

>  <Num_Resolved_Atoms>  (321) 
nan

>  <Num_Not_Resolved_Atoms>  (321) 
nan

$$$$
CHEMBL3731848
     RDKit          3D

  0  0  0  0  0  0  0  0  0  0999 V3000
M  V30 BEGIN CTAB
M  V30 COUNTS 55 59 0 0 0
M  V30 BEGIN ATOM
M  V30 1 C 0.766585 0.612995 4.786132 0
M  V30 2 C 1.983155 0.627650 3.934912 0
M  V30 3 C 2.476015 -0.686300 3.434338 0
M  V30 4 N 1.624754 -1.440387 2.621896 0
M  V30 5 C 0.462094 -2.040157 3.131603 0
M  V30 6 C -0.680322 -1.719319 2.145652 0
M  V30 7 N -0.038289 -1.664454 0.841705 0
M  V30 8 C -0.367443 -0.720669 -0.158675 0
M  V30 9 N 0.456884 0.325430 -0.154294 0
M  V30 10 C 0.365985 1.409778 -0.927298 0
M  V30 11 C 1.293138 2.516054 -0.882998 0
M  V30 12 C 1.212847 3.639325 -1.666888 0
M  V30 13 C 2.114912 4.682206 -1.602540 0
M  V30 14 N 3.109472 4.555495 -0.714779 0
M  V30 15 C 3.238002 3.467475 0.085674 0
M  V30 16 C 2.334511 2.429806 0.016959 0
M  V30 17 N -0.623542 1.529136 -1.817962 0
M  V30 18 C -1.494939 0.404038 -1.812861 0
M  V30 19 S -3.019843 0.082446 -2.870859 0
M  V30 20 C -3.359681 -1.436771 -2.183065 0
M  V30 21 C -2.391523 -1.687710 -1.221437 0
M  V30 22 C -1.429333 -0.769960 -1.005220 0
M  V30 23 C -2.599556 -3.023425 -0.631409 0
M  V30 24 C -2.776655 -4.088957 -1.701688 0
M  V30 25 C -3.862851 -3.747499 -2.639967 0
M  V30 26 C -4.462803 -2.375039 -2.479069 0
M  V30 27 C 0.998900 -2.707029 0.708442 0
M  V30 28 C 2.180713 -2.205985 1.558440 0
M  V30 29 H 0.636444 1.616062 5.303722 0
M  V30 30 H 0.773928 -0.111544 5.620395 0
M  V30 31 H -0.186634 0.474190 4.236926 0
M  V30 32 H 1.744408 1.268245 3.034005 0
M  V30 33 H 2.823205 1.106656 4.517271 0
M  V30 34 H 3.406148 -0.446454 2.829329 0
M  V30 35 H 2.795627 -1.334205 4.309031 0
M  V30 36 H 0.582401 -3.166877 3.054469 0
M  V30 37 H 0.169258 -1.867087 4.157758 0
M  V30 38 H -1.136980 -0.738019 2.387660 0
M  V30 39 H -1.413537 -2.534672 2.165643 0
M  V30 40 H 0.385520 3.700088 -2.376638 0
M  V30 41 H 2.054388 5.566158 -2.217194 0
M  V30 42 H 4.098771 3.487280 0.770401 0
M  V30 43 H 2.463729 1.577446 0.667112 0
M  V30 44 H -1.777118 -3.315954 0.055877 0
M  V30 45 H -3.526986 -3.013814 -0.033998 0
M  V30 46 H -1.792203 -4.284227 -2.175573 0
M  V30 47 H -3.045744 -5.010728 -1.146510 0
M  V30 48 H -4.636747 -4.543973 -2.667155 0
M  V30 49 H -3.433276 -3.757120 -3.685906 0
M  V30 50 H -4.988874 -2.113302 -3.394827 0
M  V30 51 H -5.187334 -2.323204 -1.639958 0
M  V30 52 H 1.382605 -2.723524 -0.338720 0
M  V30 53 H 0.650145 -3.694637 1.005904 0
M  V30 54 H 2.699760 -3.094763 1.943438 0
M  V30 55 H 2.892997 -1.631133 0.930044 0
M  V30 END ATOM
M  V30 BEGIN BOND
M  V30 1 1 1 2
M  V30 2 1 2 3
M  V30 3 1 3 4
M  V30 4 1 4 5
M  V30 5 1 5 6
M  V30 6 1 6 7
M  V30 7 1 7 8
M  V30 8 2 8 9
M  V30 9 1 9 10
M  V30 10 1 10 11
M  V30 11 2 11 12
M  V30 12 1 12 13
M  V30 13 2 13 14
M  V30 14 1 14 15
M  V30 15 2 15 16
M  V30 16 2 10 17
M  V30 17 1 17 18
M  V30 18 1 18 19
M  V30 19 1 19 20
M  V30 20 2 20 21
M  V30 21 1 21 22
M  V30 22 1 21 23
M  V30 23 1 23 24
M  V30 24 1 24 25
M  V30 25 1 25 26
M  V30 26 1 7 27
M  V30 27 1 27 28
M  V30 28 1 28 4
M  V30 29 1 22 8
M  V30 30 1 16 11
M  V30 31 2 22 18
M  V30 32 1 26 20
M  V30 33 1 1 29
M  V30 34 1 1 30
M  V30 35 1 1 31
M  V30 36 1 2 32
M  V30 37 1 2 33
M  V30 38 1 3 34
M  V30 39 1 3 35
M  V30 40 1 5 36
M  V30 41 1 5 37
M  V30 42 1 6 38
M  V30 43 1 6 39
M  V30 44 1 12 40
M  V30 45 1 13 41
M  V30 46 1 15 42
M  V30 47 1 16 43
M  V30 48 1 23 44
M  V30 49 1 23 45
M  V30 50 1 24 46
M  V30 51 1 24 47
M  V30 52 1 25 48
M  V30 53 1 25 49
M  V30 54 1 26 50
M  V30 55 1 26 51
M  V30 56 1 27 52
M  V30 57 1 27 53
M  V30 58 1 28 54
M  V30 59 1 28 55
M  V30 END BOND
M  V30 END CTAB
M  END
>  <Dataset>  (322) 
ChEMBL_Kinases

>  <Ligand_Instance>  (322) 
nan

>  <PDB_ID>  (322) 
nan

>  <Standardized_SMILES>  (322) 
CCCN1CCN(c2nc(-c3ccncc3)nc3sc4c(c23)CCCC4)CC1

>  <Name>  (322) 
nan

>  <Pocket>  (322) 
nan

>  <ATP_Site>  (322) 
nan

>  <Peripheral>  (322) 
nan

>  <Num_H_Atoms_ProtBoundConf>  (322) 
nan

>  <Num_Resolved_Atoms>  (322) 
nan

>  <Num_Not_Resolved_Atoms>  (322) 
nan

$$$$
CHEMBL3731839
     RDKit          3D

  0  0  0  0  0  0  0  0  0  0999 V3000
M  V30 BEGIN CTAB
M  V30 COUNTS 53 55 0 0 0
M  V30 BEGIN ATOM
M  V30 1 O 1.070985 -3.334902 0.595934 0
M  V30 2 C 0.900130 -3.780599 -0.588051 0
M  V30 3 C 1.692438 -3.860859 -1.858686 0
M  V30 4 N 2.979738 -3.250953 -1.595761 0
M  V30 5 C 3.178151 -1.898915 -1.217036 0
M  V30 6 C 4.468261 -1.413100 -0.975652 0
M  V30 7 C 4.715414 -0.111848 -0.608403 0
M  V30 8 C 3.645771 0.746190 -0.473594 0
M  V30 9 C 2.354107 0.284858 -0.708405 0
M  V30 10 O 1.364092 1.261182 -0.534481 0
M  V30 11 C 1.690022 2.579299 -0.153093 0
M  V30 12 C 0.468778 3.408470 -0.037060 0
M  V30 13 N -0.518144 3.006004 0.896635 0
M  V30 14 C -1.243505 1.820810 0.620392 0
M  V30 15 C -2.309548 1.590788 1.655603 0
M  V30 16 O -3.143124 2.693425 1.715157 0
M  V30 17 C -2.464487 3.832522 2.149286 0
M  V30 18 C -1.279850 4.147563 1.282620 0
M  V30 19 C 2.117636 -1.008331 -1.072762 0
M  V30 20 N -0.397099 -4.333601 -0.662967 0
M  V30 21 N -1.238709 -4.324524 0.444432 0
M  V30 22 C -1.710540 -3.298387 1.029537 0
M  V30 23 C -2.485031 -3.961259 2.072699 0
M  V30 24 C -3.795245 -4.275217 1.772584 0
M  V30 25 Cl -4.471688 -3.891531 0.212158 0
M  V30 26 C -4.554703 -4.909605 2.762682 0
M  V30 27 N -3.998938 -5.187547 3.947851 0
M  V30 28 C -2.724490 -4.872635 4.215029 0
M  V30 29 C -1.903057 -4.244067 3.292009 0
M  V30 30 Cl -0.233851 -3.835076 3.645902 0
M  V30 31 H 1.160199 -3.377840 -2.693158 0
M  V30 32 H 1.818734 -4.923824 -2.153281 0
M  V30 33 H 3.840432 -3.859398 -1.692276 0
M  V30 34 H 5.308659 -2.091705 -1.082512 0
M  V30 35 H 5.741288 0.194471 -0.437534 0
M  V30 36 H 3.924436 1.754337 -0.181381 0
M  V30 37 H 2.278311 2.492303 0.775310 0
M  V30 38 H 2.392334 3.056649 -0.891875 0
M  V30 39 H 0.798144 4.444594 0.272123 0
M  V30 40 H 0.023863 3.587741 -1.062097 0
M  V30 41 H -1.802258 1.879638 -0.358182 0
M  V30 42 H -0.587382 0.932623 0.653233 0
M  V30 43 H -2.937361 0.744258 1.297931 0
M  V30 44 H -1.894427 1.306373 2.643310 0
M  V30 45 H -2.151507 3.762154 3.196350 0
M  V30 46 H -3.175795 4.677530 2.080870 0
M  V30 47 H -0.621646 4.830393 1.877177 0
M  V30 48 H -1.588157 4.703880 0.398344 0
M  V30 49 H 1.108493 -1.314797 -1.244808 0
M  V30 50 H -0.861569 -4.787245 -1.492244 0
M  V30 51 H -1.444118 -2.333927 0.644684 0
M  V30 52 H -5.578048 -5.144033 2.499958 0
M  V30 53 H -2.340069 -5.126313 5.193102 0
M  V30 END ATOM
M  V30 BEGIN BOND
M  V30 1 2 1 2
M  V30 2 1 2 3
M  V30 3 1 3 4
M  V30 4 1 4 5
M  V30 5 2 5 6
M  V30 6 1 6 7
M  V30 7 2 7 8
M  V30 8 1 8 9
M  V30 9 1 9 10
M  V30 10 1 10 11
M  V30 11 1 11 12
M  V30 12 1 12 13
M  V30 13 1 13 14
M  V30 14 1 14 15
M  V30 15 1 15 16
M  V30 16 1 16 17
M  V30 17 1 17 18
M  V30 18 2 9 19
M  V30 19 1 2 20
M  V30 20 1 20 21
M  V30 21 2 21 22
M  V30 22 1 22 23
M  V30 23 2 23 24
M  V30 24 1 24 25
M  V30 25 1 24 26
M  V30 26 2 26 27
M  V30 27 1 27 28
M  V30 28 2 28 29
M  V30 29 1 29 30
M  V30 30 1 19 5
M  V30 31 1 29 23
M  V30 32 1 18 13
M  V30 33 1 3 31
M  V30 34 1 3 32
M  V30 35 1 4 33
M  V30 36 1 6 34
M  V30 37 1 7 35
M  V30 38 1 8 36
M  V30 39 1 11 37
M  V30 40 1 11 38
M  V30 41 1 12 39
M  V30 42 1 12 40
M  V30 43 1 14 41
M  V30 44 1 14 42
M  V30 45 1 15 43
M  V30 46 1 15 44
M  V30 47 1 17 45
M  V30 48 1 17 46
M  V30 49 1 18 47
M  V30 50 1 18 48
M  V30 51 1 19 49
M  V30 52 1 20 50
M  V30 53 1 22 51
M  V30 54 1 26 52
M  V30 55 1 28 53
M  V30 END BOND
M  V30 END CTAB
M  END
>  <Dataset>  (323) 
ChEMBL_Kinases

>  <Ligand_Instance>  (323) 
nan

>  <PDB_ID>  (323) 
nan

>  <Standardized_SMILES>  (323) 
O=C(CNc1cccc(OCCN2CCOCC2)c1)N/N=C/c1c(Cl)cncc1Cl

>  <Name>  (323) 
nan

>  <Pocket>  (323) 
nan

>  <ATP_Site>  (323) 
nan

>  <Peripheral>  (323) 
nan

>  <Num_H_Atoms_ProtBoundConf>  (323) 
nan

>  <Num_Resolved_Atoms>  (323) 
nan

>  <Num_Not_Resolved_Atoms>  (323) 
nan

$$$$
CHEMBL3731939
     RDKit          3D

  0  0  0  0  0  0  0  0  0  0999 V3000
M  V30 BEGIN CTAB
M  V30 COUNTS 41 43 0 0 0
M  V30 BEGIN ATOM
M  V30 1 C -2.199667 -5.571905 1.147297 0
M  V30 2 C -1.835637 -5.110931 2.559329 0
M  V30 3 C -1.264462 -3.763937 2.455251 0
M  V30 4 C -1.036493 -2.940398 1.342066 0
M  V30 5 C -0.475778 -1.711475 1.585197 0
M  V30 6 C -0.175759 -0.763572 0.628859 0
M  V30 7 N -0.415867 -0.940563 -0.760424 0
M  V30 8 C -0.120313 0.012201 -1.785286 0
M  V30 9 C 1.366179 0.290383 -1.808933 0 CFG=2
M  V30 10 C 1.702877 1.311418 -2.904992 0
M  V30 11 N 2.127179 -0.881004 -2.147988 0
M  V30 12 N 0.370512 0.384658 1.049246 0
M  V30 13 C 0.665929 0.735805 2.286154 0
M  V30 14 C 1.262313 2.013782 2.653980 0
M  V30 15 C 1.532864 2.289310 3.959283 0
M  V30 16 C 2.095953 3.476033 4.381269 0
M  V30 17 N 2.375592 4.376383 3.427129 0
M  V30 18 C 2.109065 4.107416 2.132011 0
M  V30 19 C 1.541218 2.924292 1.655475 0
M  V30 20 N 0.369138 -0.195655 3.208837 0
M  V30 21 C -0.179323 -1.371423 2.872590 0
M  V30 22 S -0.658152 -2.735528 3.842395 0
M  V30 23 H -1.306079 -5.796630 0.554303 0
M  V30 24 H -2.872788 -6.441986 1.284201 0
M  V30 25 H -2.772860 -4.786182 0.615059 0
M  V30 26 H -2.727251 -5.090505 3.211245 0
M  V30 27 H -1.132626 -5.853220 2.991535 0
M  V30 28 H -1.329832 -3.363769 0.392345 0
M  V30 29 H -0.853379 -1.862512 -1.061140 0
M  V30 30 H -0.662628 0.972989 -1.654601 0
M  V30 31 H -0.406626 -0.350546 -2.787790 0
M  V30 32 H 1.703423 0.768225 -0.868462 0
M  V30 33 H 1.469682 2.334636 -2.585013 0
M  V30 34 H 1.271948 1.053444 -3.871398 0
M  V30 35 H 2.820224 1.253813 -2.984333 0
M  V30 36 H 1.993955 -1.674141 -1.496753 0
M  V30 37 H 1.850083 -1.146031 -3.128838 0
M  V30 38 H 1.292182 1.537433 4.694304 0
M  V30 39 H 2.320302 3.720674 5.403174 0
M  V30 40 H 2.381647 4.917029 1.456463 0
M  V30 41 H 1.356093 2.775938 0.612037 0
M  V30 END ATOM
M  V30 BEGIN BOND
M  V30 1 1 1 2
M  V30 2 1 2 3
M  V30 3 2 3 4
M  V30 4 1 4 5
M  V30 5 2 5 6
M  V30 6 1 6 7
M  V30 7 1 7 8
M  V30 8 1 8 9
M  V30 9 1 9 10
M  V30 10 1 9 11
M  V30 11 1 6 12
M  V30 12 2 12 13
M  V30 13 1 13 14
M  V30 14 2 14 15
M  V30 15 1 15 16
M  V30 16 2 16 17
M  V30 17 1 17 18
M  V30 18 2 18 19
M  V30 19 1 13 20
M  V30 20 2 20 21
M  V30 21 1 21 22
M  V30 22 1 22 3
M  V30 23 1 21 5
M  V30 24 1 19 14
M  V30 25 1 1 23
M  V30 26 1 1 24
M  V30 27 1 1 25
M  V30 28 1 2 26
M  V30 29 1 2 27
M  V30 30 1 4 28
M  V30 31 1 7 29
M  V30 32 1 8 30
M  V30 33 1 8 31
M  V30 34 1 9 32 CFG=1
M  V30 35 1 10 33
M  V30 36 1 10 34
M  V30 37 1 10 35
M  V30 38 1 11 36
M  V30 39 1 11 37
M  V30 40 1 15 38
M  V30 41 1 16 39
M  V30 42 1 18 40
M  V30 43 1 19 41
M  V30 END BOND
M  V30 END CTAB
M  END
>  <Dataset>  (324) 
ChEMBL_Kinases

>  <Ligand_Instance>  (324) 
nan

>  <PDB_ID>  (324) 
nan

>  <Standardized_SMILES>  (324) 
CCc1cc2c(NC[C@H](C)N)nc(-c3ccncc3)nc2s1

>  <Name>  (324) 
nan

>  <Pocket>  (324) 
nan

>  <ATP_Site>  (324) 
nan

>  <Peripheral>  (324) 
nan

>  <Num_H_Atoms_ProtBoundConf>  (324) 
nan

>  <Num_Resolved_Atoms>  (324) 
nan

>  <Num_Not_Resolved_Atoms>  (324) 
nan

$$$$
CHEMBL3732273
     RDKit          3D

  0  0  0  0  0  0  0  0  0  0999 V3000
M  V30 BEGIN CTAB
M  V30 COUNTS 59 64 0 0 0
M  V30 BEGIN ATOM
M  V30 1 N 3.664911 -5.166796 1.552441 0
M  V30 2 C 3.810207 -3.849151 0.858935 0 CFG=2
M  V30 3 C 2.534674 -3.147225 1.103492 0
M  V30 4 N 2.354627 -1.834234 0.558108 0
M  V30 5 C 1.154279 -1.464934 0.919669 0
M  V30 6 N 1.239815 -0.316386 0.097802 0
M  V30 7 C 0.285775 0.605220 -0.043718 0
M  V30 8 C 0.272475 1.849562 -0.909802 0
M  V30 9 C 1.436130 1.974852 -1.645399 0
M  V30 10 C 1.614064 3.055459 -2.512227 0
M  V30 11 N 0.612207 3.981207 -2.608394 0
M  V30 12 C -0.501165 3.816619 -1.873077 0
M  V30 13 C -0.713128 2.763328 -1.011330 0
M  V30 14 N -0.920284 0.551856 0.610251 0
M  V30 15 C -1.220814 -0.434856 1.434007 0
M  V30 16 C -2.157242 -0.904990 2.219482 0
M  V30 17 C -3.369203 -0.104199 2.266803 0
M  V30 18 C -4.477760 -0.535693 2.944118 0
M  V30 19 C -5.514087 0.363686 2.838063 0
M  V30 20 C -6.852698 0.192591 3.448513 0
M  V30 21 C -8.062524 0.679709 2.714610 0
M  V30 22 C -7.587799 1.369076 3.987317 0
M  V30 23 N -5.013294 1.349504 2.085305 0
M  V30 24 N -3.763072 1.085925 1.747242 0
M  V30 25 C -1.941893 -2.194494 2.970523 0
M  V30 26 S -0.211725 -2.596636 2.367011 0
M  V30 27 C -0.083357 -1.079800 1.290217 0
M  V30 28 C 4.239110 -4.184025 -0.505601 0
M  V30 29 C 4.468419 -3.071874 -1.454313 0
M  V30 30 C 5.710547 -2.410020 -1.380405 0
M  V30 31 C 5.965392 -1.400117 -2.277703 0
M  V30 32 C 5.088966 -0.978117 -3.255130 0
M  V30 33 C 3.937383 -1.700969 -3.208098 0
M  V30 34 C 3.482877 -2.737373 -2.407941 0
M  V30 35 H 3.585710 -5.047781 2.570948 0
M  V30 36 H 2.693840 -5.492644 1.251795 0
M  V30 37 H 4.667861 -3.324392 1.363278 0
M  V30 38 H 2.519061 -2.982210 2.243394 0
M  V30 39 H 1.669288 -3.839680 0.969486 0
M  V30 40 H 3.203512 -1.623666 0.096878 0
M  V30 41 H 2.275042 1.302812 -1.633578 0
M  V30 42 H 2.525780 3.181361 -3.105159 0
M  V30 43 H -1.342423 4.523072 -1.905147 0
M  V30 44 H -1.575949 2.600208 -0.414185 0
M  V30 45 H -4.585818 -1.459000 3.512403 0
M  V30 46 H -7.035488 -0.743326 4.044753 0
M  V30 47 H -7.810188 1.224474 1.774988 0
M  V30 48 H -8.998448 0.089801 2.752903 0
M  V30 49 H -8.309702 1.224702 4.849314 0
M  V30 50 H -7.151207 2.376966 3.892071 0
M  V30 51 H -5.535030 2.205106 1.803652 0
M  V30 52 H -2.788932 -2.613395 3.675071 0
M  V30 53 H 5.241073 -4.709088 -0.407797 0
M  V30 54 H 3.608948 -4.980968 -0.990249 0
M  V30 55 H 6.433103 -2.712040 -0.619764 0
M  V30 56 H 6.940180 -0.884123 -2.222191 0
M  V30 57 H 5.237926 -0.205064 -3.972670 0
M  V30 58 H 3.171826 -1.428796 -3.964921 0
M  V30 59 H 2.547092 -3.223969 -2.476498 0
M  V30 END ATOM
M  V30 BEGIN BOND
M  V30 1 1 1 2
M  V30 2 1 2 3
M  V30 3 1 3 4
M  V30 4 1 4 5
M  V30 5 2 5 6
M  V30 6 1 6 7
M  V30 7 1 7 8
M  V30 8 2 8 9
M  V30 9 1 9 10
M  V30 10 2 10 11
M  V30 11 1 11 12
M  V30 12 2 12 13
M  V30 13 2 7 14
M  V30 14 1 14 15
M  V30 15 1 15 16
M  V30 16 1 16 17
M  V30 17 1 17 18
M  V30 18 2 18 19
M  V30 19 1 19 20
M  V30 20 1 20 21
M  V30 21 1 21 22
M  V30 22 1 19 23
M  V30 23 1 23 24
M  V30 24 2 16 25
M  V30 25 1 25 26
M  V30 26 1 26 27
M  V30 27 1 2 28
M  V30 28 1 28 29
M  V30 29 2 29 30
M  V30 30 1 30 31
M  V30 31 2 31 32
M  V30 32 1 32 33
M  V30 33 2 33 34
M  V30 34 1 27 5
M  V30 35 1 34 29
M  V30 36 1 13 8
M  V30 37 2 27 15
M  V30 38 2 24 17
M  V30 39 1 22 20
M  V30 40 1 1 35
M  V30 41 1 1 36
M  V30 42 1 2 37 CFG=1
M  V30 43 1 3 38
M  V30 44 1 3 39
M  V30 45 1 4 40
M  V30 46 1 9 41
M  V30 47 1 10 42
M  V30 48 1 12 43
M  V30 49 1 13 44
M  V30 50 1 18 45
M  V30 51 1 20 46
M  V30 52 1 21 47
M  V30 53 1 21 48
M  V30 54 1 22 49
M  V30 55 1 22 50
M  V30 56 1 23 51
M  V30 57 1 25 52
M  V30 58 1 28 53
M  V30 59 1 28 54
M  V30 60 1 30 55
M  V30 61 1 31 56
M  V30 62 1 32 57
M  V30 63 1 33 58
M  V30 64 1 34 59
M  V30 END BOND
M  V30 END CTAB
M  END
>  <Dataset>  (325) 
ChEMBL_Kinases

>  <Ligand_Instance>  (325) 
nan

>  <PDB_ID>  (325) 
nan

>  <Standardized_SMILES>  (325) 
N[C@H](CNc1nc(-c2ccncc2)nc2c(-c3cc(C4CC4)[nH]n3)csc12)Cc1ccccc1

>  <Name>  (325) 
nan

>  <Pocket>  (325) 
nan

>  <ATP_Site>  (325) 
nan

>  <Peripheral>  (325) 
nan

>  <Num_H_Atoms_ProtBoundConf>  (325) 
nan

>  <Num_Resolved_Atoms>  (325) 
nan

>  <Num_Not_Resolved_Atoms>  (325) 
nan

$$$$
CHEMBL3732270
     RDKit          3D

  0  0  0  0  0  0  0  0  0  0999 V3000
M  V30 BEGIN CTAB
M  V30 COUNTS 45 48 0 0 0
M  V30 BEGIN ATOM
M  V30 1 C -0.358384 -5.206833 1.443427 0
M  V30 2 C 0.020142 -3.846253 0.904874 0
M  V30 3 S 1.186581 -3.706948 -0.462385 0
M  V30 4 C 1.169536 -2.001555 -0.564448 0
M  V30 5 N 1.820595 -1.114870 -1.384735 0
M  V30 6 C 1.659456 0.213128 -1.291353 0
M  V30 7 C 2.362201 1.134265 -2.174751 0
M  V30 8 C 3.215596 0.607806 -3.122885 0
M  V30 9 C 3.921463 1.404088 -3.999409 0
M  V30 10 N 3.782327 2.739551 -3.938459 0
M  V30 11 C 2.948517 3.251693 -3.011932 0
M  V30 12 C 2.214512 2.502997 -2.106432 0
M  V30 13 N 0.811193 0.584921 -0.330668 0
M  V30 14 C 0.141277 -0.215628 0.505420 0
M  V30 15 N -0.693492 0.488923 1.402887 0
M  V30 16 C -0.976569 1.880753 1.643956 0
M  V30 17 C 0.215177 2.561556 2.221629 0
M  V30 18 N 1.377961 2.529849 1.379289 0
M  V30 19 C 0.328585 -1.575144 0.383626 0
M  V30 20 C -0.317224 -2.458857 1.198209 0
M  V30 21 C -1.260094 -2.479764 2.297042 0
M  V30 22 C -2.651570 -2.551841 2.130674 0
M  V30 23 C -3.542506 -2.582581 3.179955 0
M  V30 24 C -2.986393 -2.537850 4.441029 0
M  V30 25 C -1.637258 -2.466406 4.719490 0
M  V30 26 C -0.821716 -2.440306 3.606161 0
M  V30 27 H 0.552649 -5.746709 1.782508 0
M  V30 28 H -1.003291 -5.058859 2.319534 0
M  V30 29 H -0.821331 -5.822139 0.654314 0
M  V30 30 H 3.374679 -0.463004 -3.226740 0
M  V30 31 H 4.585598 0.979045 -4.736144 0
M  V30 32 H 2.871212 4.339697 -3.003999 0
M  V30 33 H 1.557531 2.941236 -1.379776 0
M  V30 34 H -1.230394 -0.085016 2.041206 0
M  V30 35 H -1.902179 2.054361 2.205747 0
M  V30 36 H -1.130748 2.322351 0.613022 0
M  V30 37 H -0.021490 3.624319 2.450511 0
M  V30 38 H 0.493208 2.008232 3.159241 0
M  V30 39 H 2.150599 1.933530 1.757061 0
M  V30 40 H 1.716581 3.486385 1.132969 0
M  V30 41 H -3.000582 -2.583156 1.096116 0
M  V30 42 H -4.608810 -2.638264 3.018579 0
M  V30 43 H -3.682822 -2.561632 5.279446 0
M  V30 44 H -1.249216 -2.433484 5.728009 0
M  V30 45 H 0.247727 -2.384592 3.758332 0
M  V30 END ATOM
M  V30 BEGIN BOND
M  V30 1 1 1 2
M  V30 2 1 2 3
M  V30 3 1 3 4
M  V30 4 2 4 5
M  V30 5 1 5 6
M  V30 6 1 6 7
M  V30 7 2 7 8
M  V30 8 1 8 9
M  V30 9 2 9 10
M  V30 10 1 10 11
M  V30 11 2 11 12
M  V30 12 2 6 13
M  V30 13 1 13 14
M  V30 14 1 14 15
M  V30 15 1 15 16
M  V30 16 1 16 17
M  V30 17 1 17 18
M  V30 18 2 14 19
M  V30 19 1 19 20
M  V30 20 1 20 21
M  V30 21 2 21 22
M  V30 22 1 22 23
M  V30 23 2 23 24
M  V30 24 1 24 25
M  V30 25 2 25 26
M  V30 26 2 20 2
M  V30 27 1 26 21
M  V30 28 1 19 4
M  V30 29 1 12 7
M  V30 30 1 1 27
M  V30 31 1 1 28
M  V30 32 1 1 29
M  V30 33 1 8 30
M  V30 34 1 9 31
M  V30 35 1 11 32
M  V30 36 1 12 33
M  V30 37 1 15 34
M  V30 38 1 16 35
M  V30 39 1 16 36
M  V30 40 1 17 37
M  V30 41 1 17 38
M  V30 42 1 18 39
M  V30 43 1 18 40
M  V30 44 1 22 41
M  V30 45 1 23 42
M  V30 46 1 24 43
M  V30 47 1 25 44
M  V30 48 1 26 45
M  V30 END BOND
M  V30 END CTAB
M  END
>  <Dataset>  (326) 
ChEMBL_Kinases

>  <Ligand_Instance>  (326) 
nan

>  <PDB_ID>  (326) 
nan

>  <Standardized_SMILES>  (326) 
Cc1sc2nc(-c3ccncc3)nc(NCCN)c2c1-c1ccccc1

>  <Name>  (326) 
nan

>  <Pocket>  (326) 
nan

>  <ATP_Site>  (326) 
nan

>  <Peripheral>  (326) 
nan

>  <Num_H_Atoms_ProtBoundConf>  (326) 
nan

>  <Num_Resolved_Atoms>  (326) 
nan

>  <Num_Not_Resolved_Atoms>  (326) 
nan

$$$$
CHEMBL3732255
     RDKit          3D

  0  0  0  0  0  0  0  0  0  0999 V3000
M  V30 BEGIN CTAB
M  V30 COUNTS 52 56 0 0 0
M  V30 BEGIN ATOM
M  V30 1 C -0.215725 -3.032249 -2.360474 0
M  V30 2 C -1.066483 -3.267501 -1.137296 0 CFG=2
M  V30 3 C -1.454814 -1.940973 -0.508625 0
M  V30 4 N -0.435326 -1.500875 0.433808 0
M  V30 5 C 0.258447 -0.281500 0.552829 0
M  V30 6 N 1.545925 -0.419878 0.238243 0
M  V30 7 C 2.473801 0.534914 0.213054 0
M  V30 8 C 3.875362 0.374817 -0.131221 0
M  V30 9 C 4.733317 1.452366 -0.117202 0
M  V30 10 C 6.068358 1.271819 -0.450474 0
M  V30 11 N 6.510095 0.063419 -0.780355 0
M  V30 12 C 5.665418 -0.969481 -0.788807 0
M  V30 13 C 4.309681 -0.891499 -0.470509 0
M  V30 14 N 2.025774 1.754516 0.546345 0
M  V30 15 C 0.734204 1.968425 0.876902 0
M  V30 16 S -0.221456 3.444871 1.372319 0
M  V30 17 C -1.824126 2.578060 1.567797 0
M  V30 18 C -1.502783 1.283063 1.249788 0
M  V30 19 C -0.226272 0.952191 0.898414 0
M  V30 20 C -2.738827 0.471083 1.405192 0
M  V30 21 C -3.592281 1.060117 2.517286 0
M  V30 22 C -4.131026 2.422459 2.153448 0
M  V30 23 C -2.943553 3.328729 1.955345 0
M  V30 24 C -0.017813 -2.446385 1.449853 0
M  V30 25 C -0.763560 -3.734387 1.190712 0 CFG=2
M  V30 26 C -0.357351 -4.836515 2.137890 0
M  V30 27 N -0.448657 -4.147708 -0.165085 0
M  V30 28 H -0.040133 -4.003266 -2.869484 0
M  V30 29 H 0.773763 -2.600908 -2.111634 0
M  V30 30 H -0.793745 -2.334459 -3.000303 0
M  V30 31 H -2.001239 -3.758137 -1.472006 0
M  V30 32 H -2.435969 -2.092355 -0.021683 0
M  V30 33 H -1.614173 -1.229049 -1.341829 0
M  V30 34 H 4.296283 2.422028 0.166022 0
M  V30 35 H 6.623109 2.216959 -0.393911 0
M  V30 36 H 6.054583 -1.953797 -1.064108 0
M  V30 37 H 3.670615 -1.768968 -0.495264 0
M  V30 38 H -2.504305 -0.558293 1.769244 0
M  V30 39 H -3.299883 0.375466 0.474843 0
M  V30 40 H -4.460101 0.376865 2.608947 0
M  V30 41 H -3.003194 1.108666 3.436172 0
M  V30 42 H -4.730364 2.767227 3.017554 0
M  V30 43 H -4.775687 2.331652 1.273713 0
M  V30 44 H -3.230336 4.087322 1.190249 0
M  V30 45 H -2.783311 3.888456 2.899315 0
M  V30 46 H -0.193226 -2.052443 2.471180 0
M  V30 47 H 1.089245 -2.593377 1.368515 0
M  V30 48 H -1.842244 -3.519613 1.327468 0
M  V30 49 H -1.226233 -5.517461 2.246900 0
M  V30 50 H 0.495492 -5.425844 1.756396 0
M  V30 51 H -0.166514 -4.418809 3.151114 0
M  V30 52 H -0.798423 -5.136303 -0.252900 0
M  V30 END ATOM
M  V30 BEGIN BOND
M  V30 1 1 1 2
M  V30 2 1 2 3
M  V30 3 1 3 4
M  V30 4 1 4 5
M  V30 5 2 5 6
M  V30 6 1 6 7
M  V30 7 1 7 8
M  V30 8 2 8 9
M  V30 9 1 9 10
M  V30 10 2 10 11
M  V30 11 1 11 12
M  V30 12 2 12 13
M  V30 13 2 7 14
M  V30 14 1 14 15
M  V30 15 1 15 16
M  V30 16 1 16 17
M  V30 17 2 17 18
M  V30 18 1 18 19
M  V30 19 1 18 20
M  V30 20 1 20 21
M  V30 21 1 21 22
M  V30 22 1 22 23
M  V30 23 1 4 24
M  V30 24 1 24 25
M  V30 25 1 25 26
M  V30 26 1 25 27
M  V30 27 1 27 2
M  V30 28 1 19 5
M  V30 29 1 13 8
M  V30 30 2 19 15
M  V30 31 1 23 17
M  V30 32 1 1 28
M  V30 33 1 1 29
M  V30 34 1 1 30
M  V30 35 1 2 31 CFG=3
M  V30 36 1 3 32
M  V30 37 1 3 33
M  V30 38 1 9 34
M  V30 39 1 10 35
M  V30 40 1 12 36
M  V30 41 1 13 37
M  V30 42 1 20 38
M  V30 43 1 20 39
M  V30 44 1 21 40
M  V30 45 1 21 41
M  V30 46 1 22 42
M  V30 47 1 22 43
M  V30 48 1 23 44
M  V30 49 1 23 45
M  V30 50 1 24 46
M  V30 51 1 24 47
M  V30 52 1 25 48 CFG=3
M  V30 53 1 26 49
M  V30 54 1 26 50
M  V30 55 1 26 51
M  V30 56 1 27 52
M  V30 END BOND
M  V30 END CTAB
M  END
>  <Dataset>  (327) 
ChEMBL_Kinases

>  <Ligand_Instance>  (327) 
nan

>  <PDB_ID>  (327) 
nan

>  <Standardized_SMILES>  (327) 
C[C@@H]1CN(c2nc(-c3ccncc3)nc3sc4c(c23)CCCC4)C[C@H](C)N1

>  <Name>  (327) 
nan

>  <Pocket>  (327) 
nan

>  <ATP_Site>  (327) 
nan

>  <Peripheral>  (327) 
nan

>  <Num_H_Atoms_ProtBoundConf>  (327) 
nan

>  <Num_Resolved_Atoms>  (327) 
nan

>  <Num_Not_Resolved_Atoms>  (327) 
nan

$$$$
CHEMBL3732246
     RDKit          3D

  0  0  0  0  0  0  0  0  0  0999 V3000
M  V30 BEGIN CTAB
M  V30 COUNTS 57 61 0 0 0
M  V30 BEGIN ATOM
M  V30 1 C 6.011923 -0.803768 -1.007057 0
M  V30 2 C 5.726616 -1.919372 -0.077323 0
M  V30 3 N 6.327093 -3.125159 0.025725 0
M  V30 4 O 5.803528 -3.843944 0.961885 0
M  V30 5 C 4.839567 -3.145348 1.513501 0
M  V30 6 C 4.007267 -3.658273 2.636701 0
M  V30 7 C 4.745456 -1.914233 0.893302 0
M  V30 8 C 3.809788 -0.841419 1.199912 0
M  V30 9 C 4.260268 0.086364 2.166712 0
M  V30 10 S 2.823661 1.318669 2.317355 0
M  V30 11 C 1.855733 0.486559 1.136151 0
M  V30 12 C 0.588238 0.773499 0.651565 0
M  V30 13 N -0.054805 1.927156 1.173155 0
M  V30 14 C -1.379164 2.272040 0.708978 0
M  V30 15 C -2.432378 1.255270 1.032265 0 CFG=1
M  V30 16 N -2.544498 1.063950 2.477418 0
M  V30 17 C -3.753432 1.690677 0.478651 0
M  V30 18 C -4.839273 0.728116 0.763910 0
M  V30 19 C -5.659438 0.734551 1.875275 0
M  V30 20 C -6.647254 -0.213486 2.046360 0
M  V30 21 C -6.865738 -1.214027 1.118203 0
M  V30 22 C -6.053274 -1.234231 0.000380 0
M  V30 23 C -5.068325 -0.287632 -0.168601 0
M  V30 24 N -0.005589 -0.000104 -0.276210 0
M  V30 25 C 0.738579 -1.072822 -0.689580 0
M  V30 26 C 0.198995 -2.000305 -1.711403 0
M  V30 27 C 0.892941 -3.105623 -2.161968 0
M  V30 28 C 0.373749 -3.955335 -3.114893 0
M  V30 29 N -0.832214 -3.647503 -3.572946 0
M  V30 30 C -1.550903 -2.592516 -3.175397 0
M  V30 31 C -1.046937 -1.730821 -2.222057 0
M  V30 32 F -1.829362 -0.688844 -1.873242 0
M  V30 33 N 1.965408 -1.358472 -0.226517 0
M  V30 34 C 2.563880 -0.584113 0.704464 0
M  V30 35 H 6.792334 -0.112477 -0.628206 0
M  V30 36 H 5.100281 -0.261502 -1.321114 0
M  V30 37 H 6.421410 -1.246521 -1.938999 0
M  V30 38 H 3.318283 -4.467741 2.293579 0
M  V30 39 H 4.663918 -4.038558 3.473029 0
M  V30 40 H 3.383934 -2.877094 3.091680 0
M  V30 41 H 5.202609 0.142524 2.734942 0
M  V30 42 H 0.397790 2.539422 1.884903 0
M  V30 43 H -1.701780 3.232559 1.188877 0
M  V30 44 H -1.322903 2.412104 -0.396944 0
M  V30 45 H -2.169268 0.269767 0.617886 0
M  V30 46 H -1.627841 1.293896 2.917459 0
M  V30 47 H -2.901709 0.135260 2.730717 0
M  V30 48 H -3.668290 1.813951 -0.619259 0
M  V30 49 H -4.009256 2.703134 0.870752 0
M  V30 50 H -5.476271 1.520860 2.589245 0
M  V30 51 H -7.283659 -0.195811 2.924215 0
M  V30 52 H -7.639543 -1.956585 1.252326 0
M  V30 53 H -6.189800 -1.993762 -0.743675 0
M  V30 54 H -4.457011 -0.338787 -1.053581 0
M  V30 55 H 1.850807 -3.248531 -1.719985 0
M  V30 56 H 0.936182 -4.818651 -3.455044 0
M  V30 57 H -2.528309 -2.420707 -3.606386 0
M  V30 END ATOM
M  V30 BEGIN BOND
M  V30 1 1 1 2
M  V30 2 2 2 3
M  V30 3 1 3 4
M  V30 4 1 4 5
M  V30 5 1 5 6
M  V30 6 2 5 7
M  V30 7 1 7 8
M  V30 8 2 8 9
M  V30 9 1 9 10
M  V30 10 1 10 11
M  V30 11 2 11 12
M  V30 12 1 12 13
M  V30 13 1 13 14
M  V30 14 1 14 15
M  V30 15 1 15 16
M  V30 16 1 15 17
M  V30 17 1 17 18
M  V30 18 2 18 19
M  V30 19 1 19 20
M  V30 20 2 20 21
M  V30 21 1 21 22
M  V30 22 2 22 23
M  V30 23 1 12 24
M  V30 24 2 24 25
M  V30 25 1 25 26
M  V30 26 2 26 27
M  V30 27 1 27 28
M  V30 28 2 28 29
M  V30 29 1 29 30
M  V30 30 2 30 31
M  V30 31 1 31 32
M  V30 32 1 25 33
M  V30 33 2 33 34
M  V30 34 1 7 2
M  V30 35 1 34 8
M  V30 36 1 34 11
M  V30 37 1 23 18
M  V30 38 1 31 26
M  V30 39 1 1 35
M  V30 40 1 1 36
M  V30 41 1 1 37
M  V30 42 1 6 38
M  V30 43 1 6 39
M  V30 44 1 6 40
M  V30 45 1 9 41
M  V30 46 1 13 42
M  V30 47 1 14 43
M  V30 48 1 14 44
M  V30 49 1 15 45 CFG=3
M  V30 50 1 16 46
M  V30 51 1 16 47
M  V30 52 1 17 48
M  V30 53 1 17 49
M  V30 54 1 19 50
M  V30 55 1 20 51
M  V30 56 1 21 52
M  V30 57 1 22 53
M  V30 58 1 23 54
M  V30 59 1 27 55
M  V30 60 1 28 56
M  V30 61 1 30 57
M  V30 END BOND
M  V30 END CTAB
M  END
>  <Dataset>  (328) 
ChEMBL_Kinases

>  <Ligand_Instance>  (328) 
nan

>  <PDB_ID>  (328) 
nan

>  <Standardized_SMILES>  (328) 
Cc1noc(C)c1-c1csc2c(NC[C@@H](N)Cc3ccccc3)nc(-c3ccncc3F)nc12

>  <Name>  (328) 
nan

>  <Pocket>  (328) 
nan

>  <ATP_Site>  (328) 
nan

>  <Peripheral>  (328) 
nan

>  <Num_H_Atoms_ProtBoundConf>  (328) 
nan

>  <Num_Resolved_Atoms>  (328) 
nan

>  <Num_Not_Resolved_Atoms>  (328) 
nan

$$$$
CHEMBL574443
     RDKit          3D

  0  0  0  0  0  0  0  0  0  0999 V3000
M  V30 BEGIN CTAB
M  V30 COUNTS 46 49 0 0 0
M  V30 BEGIN ATOM
M  V30 1 C 0.845523 -5.873725 4.359203 0
M  V30 2 O -0.071439 -5.997801 3.291195 0
M  V30 3 C -0.375899 -4.892123 2.515788 0
M  V30 4 C 0.165103 -3.621556 2.705952 0
M  V30 5 C -0.162532 -2.545613 1.914446 0
M  V30 6 C -1.066238 -2.748440 0.892817 0
M  V30 7 C -1.630458 -3.983670 0.661509 0
M  V30 8 C -1.287099 -5.045461 1.467326 0
M  V30 9 O -1.821240 -6.289143 1.277172 0
M  V30 10 C -2.754007 -6.603077 0.265759 0
M  V30 11 C -1.181676 -1.438363 0.272667 0
M  V30 12 N -1.866457 -0.907031 -0.752793 0
M  V30 13 N -1.568449 0.367680 -0.858886 0
M  V30 14 C -0.684739 0.696269 0.092728 0
M  V30 15 N 0.060114 1.805795 0.594286 0
M  V30 16 C 0.785400 2.886444 1.082567 0
M  V30 17 C 1.723454 3.572383 0.166664 0
M  V30 18 C 3.084131 3.334649 0.190497 0
M  V30 19 C 3.980553 3.944687 -0.657864 0
M  V30 20 C 3.555895 4.846117 -1.597477 0
M  V30 21 C 2.197090 5.074695 -1.611125 0
M  V30 22 C 1.241557 4.483814 -0.773612 0
M  V30 23 C -0.160179 4.860679 -0.926852 0
M  V30 24 C -0.396890 -0.449317 0.861899 0
M  V30 25 C 0.309335 -1.161604 1.979386 0
M  V30 26 H 0.643138 -6.761098 5.031545 0
M  V30 27 H 1.904704 -5.935445 3.991551 0
M  V30 28 H 0.752946 -4.938734 4.932434 0
M  V30 29 H 0.873105 -3.493314 3.515858 0
M  V30 30 H -2.325424 -4.100905 -0.138811 0
M  V30 31 H -2.258380 -6.924630 -0.692146 0
M  V30 32 H -3.372904 -7.503625 0.555406 0
M  V30 33 H -3.462108 -5.776935 0.062986 0
M  V30 34 H -2.543349 -1.163665 -1.480013 0
M  V30 35 H -0.323496 2.473690 -0.154457 0
M  V30 36 H 0.128462 3.607442 1.626259 0
M  V30 37 H 1.450556 2.460500 1.925524 0
M  V30 38 H 3.497872 2.624168 0.918020 0
M  V30 39 H 5.051593 3.725550 -0.603911 0
M  V30 40 H 4.191029 5.356306 -2.286153 0
M  V30 41 H 1.827465 5.796166 -2.357160 0
M  V30 42 H -0.785396 4.789786 -0.034463 0
M  V30 43 H -0.183650 5.896368 -1.374335 0
M  V30 44 H -0.616122 4.228360 -1.716123 0
M  V30 45 H 1.412475 -1.071257 1.807456 0
M  V30 46 H 0.104927 -0.651483 2.945182 0
M  V30 END ATOM
M  V30 BEGIN BOND
M  V30 1 1 1 2
M  V30 2 1 2 3
M  V30 3 2 3 4
M  V30 4 1 4 5
M  V30 5 2 5 6
M  V30 6 1 6 7
M  V30 7 2 7 8
M  V30 8 1 8 9
M  V30 9 1 9 10
M  V30 10 1 6 11
M  V30 11 1 11 12
M  V30 12 1 12 13
M  V30 13 2 13 14
M  V30 14 1 14 15
M  V30 15 1 15 16
M  V30 16 1 16 17
M  V30 17 2 17 18
M  V30 18 1 18 19
M  V30 19 2 19 20
M  V30 20 1 20 21
M  V30 21 2 21 22
M  V30 22 1 22 23
M  V30 23 1 14 24
M  V30 24 1 24 25
M  V30 25 1 8 3
M  V30 26 2 24 11
M  V30 27 1 25 5
M  V30 28 1 22 17
M  V30 29 1 1 26
M  V30 30 1 1 27
M  V30 31 1 1 28
M  V30 32 1 4 29
M  V30 33 1 7 30
M  V30 34 1 10 31
M  V30 35 1 10 32
M  V30 36 1 10 33
M  V30 37 1 12 34
M  V30 38 1 15 35
M  V30 39 1 16 36
M  V30 40 1 16 37
M  V30 41 1 18 38
M  V30 42 1 19 39
M  V30 43 1 20 40
M  V30 44 1 21 41
M  V30 45 1 23 42
M  V30 46 1 23 43
M  V30 47 1 23 44
M  V30 48 1 25 45
M  V30 49 1 25 46
M  V30 END BOND
M  V30 END CTAB
M  END
>  <Dataset>  (329) 
ChEMBL_Kinases

>  <Ligand_Instance>  (329) 
nan

>  <PDB_ID>  (329) 
nan

>  <Standardized_SMILES>  (329) 
COc1cc2c(cc1OC)-c1[nH]nc(NCc3ccccc3C)c1C2

>  <Name>  (329) 
nan

>  <Pocket>  (329) 
nan

>  <ATP_Site>  (329) 
nan

>  <Peripheral>  (329) 
nan

>  <Num_H_Atoms_ProtBoundConf>  (329) 
nan

>  <Num_Resolved_Atoms>  (329) 
nan

>  <Num_Not_Resolved_Atoms>  (329) 
nan

$$$$
CHEMBL3732240
     RDKit          3D

  0  0  0  0  0  0  0  0  0  0999 V3000
M  V30 BEGIN CTAB
M  V30 COUNTS 62 66 0 0 0
M  V30 BEGIN ATOM
M  V30 1 C 0.937849 2.326185 3.042410 0
M  V30 2 N 0.250083 1.086241 2.840873 0
M  V30 3 C 1.065445 0.100218 2.416073 0
M  V30 4 N 2.476390 0.081004 2.089400 0
M  V30 5 C 3.340428 -1.004627 2.583987 0
M  V30 6 C 3.982831 -1.633764 1.422836 0
M  V30 7 N 4.039121 -1.013928 0.186038 0
M  V30 8 C 3.501890 0.250748 -0.089396 0 CFG=1
M  V30 9 C 2.141364 0.175011 -0.690676 0
M  V30 10 C 1.377327 1.324973 -0.790588 0
M  V30 11 C 0.073257 1.353980 -1.290580 0
M  V30 12 C -0.482754 0.157659 -1.709652 0
M  V30 13 N -1.817690 0.066603 -2.204364 0
M  V30 14 C -2.823330 1.090545 -2.016507 0
M  V30 15 C -4.031182 0.442625 -1.350381 0
M  V30 16 C -3.637841 -0.919723 -0.868815 0
M  V30 17 C -3.384800 -1.767947 -2.116686 0
M  V30 18 C -2.314196 -1.046496 -2.941214 0
M  V30 19 C 0.285320 -0.995960 -1.610976 0
M  V30 20 C 1.583175 -1.022928 -1.113227 0
M  V30 21 C 3.277708 0.993093 1.234472 0
M  V30 22 N 0.557087 -1.123681 2.183803 0
M  V30 23 C -0.709089 -1.492123 2.328697 0
M  V30 24 C -1.230561 -2.833125 2.054637 0
M  V30 25 C -2.551076 -3.199706 2.160629 0
M  V30 26 C -2.987524 -4.479917 1.884000 0
M  V30 27 N -2.085345 -5.400010 1.497197 0
M  V30 28 C -0.779428 -5.117153 1.371069 0
M  V30 29 C -0.366507 -3.831526 1.652952 0
M  V30 30 F 0.965061 -3.616669 1.498504 0
M  V30 31 C -1.531803 -0.479016 2.763047 0
M  V30 32 C -1.049592 0.779780 3.010055 0
M  V30 33 O -1.742009 1.760055 3.408192 0
M  V30 34 H 0.333625 2.960933 3.760554 0
M  V30 35 H 1.912989 2.233757 3.517121 0
M  V30 36 H 0.919332 2.943617 2.108862 0
M  V30 37 H 2.742003 -1.744629 3.166525 0
M  V30 38 H 4.126318 -0.550028 3.239139 0
M  V30 39 H 5.044326 -1.910260 1.717401 0
M  V30 40 H 3.514225 -2.655367 1.273272 0
M  V30 41 H 4.432684 -1.590073 -0.534620 0
M  V30 42 H 4.133915 0.843819 -0.720354 0
M  V30 43 H 1.703403 2.323185 -0.498373 0
M  V30 44 H -0.493752 2.273633 -1.355942 0
M  V30 45 H -3.079743 1.548082 -3.001637 0
M  V30 46 H -2.445860 1.845439 -1.281694 0
M  V30 47 H -4.423831 1.081076 -0.510632 0
M  V30 48 H -4.801048 0.336399 -2.151792 0
M  V30 49 H -4.440532 -1.380965 -0.252064 0
M  V30 50 H -2.677808 -0.871003 -0.292650 0
M  V30 51 H -2.998537 -2.768260 -1.838804 0
M  V30 52 H -4.353101 -1.838257 -2.646451 0
M  V30 53 H -2.832474 -0.653000 -3.856638 0
M  V30 54 H -1.549108 -1.753456 -3.313500 0
M  V30 55 H -0.094987 -1.944416 -1.915234 0
M  V30 56 H 2.177715 -1.902256 -1.034519 0
M  V30 57 H 2.824649 1.954576 1.092972 0
M  V30 58 H 4.242006 1.116782 1.747239 0
M  V30 59 H -3.267744 -2.476425 2.465201 0
M  V30 60 H -4.058731 -4.716901 1.980217 0
M  V30 61 H -0.133085 -5.924735 1.052934 0
M  V30 62 H -2.587638 -0.613925 2.931372 0
M  V30 END ATOM
M  V30 BEGIN BOND
M  V30 1 1 1 2
M  V30 2 1 2 3
M  V30 3 1 3 4
M  V30 4 1 4 5
M  V30 5 1 5 6
M  V30 6 1 6 7
M  V30 7 1 7 8
M  V30 8 1 8 9
M  V30 9 2 9 10
M  V30 10 1 10 11
M  V30 11 2 11 12
M  V30 12 1 12 13
M  V30 13 1 13 14
M  V30 14 1 14 15
M  V30 15 1 15 16
M  V30 16 1 16 17
M  V30 17 1 17 18
M  V30 18 1 12 19
M  V30 19 2 19 20
M  V30 20 1 8 21
M  V30 21 2 3 22
M  V30 22 1 22 23
M  V30 23 1 23 24
M  V30 24 2 24 25
M  V30 25 1 25 26
M  V30 26 2 26 27
M  V30 27 1 27 28
M  V30 28 2 28 29
M  V30 29 1 29 30
M  V30 30 2 23 31
M  V30 31 1 31 32
M  V30 32 2 32 33
M  V30 33 1 32 2
M  V30 34 1 21 4
M  V30 35 1 29 24
M  V30 36 1 20 9
M  V30 37 1 18 13
M  V30 38 1 1 34
M  V30 39 1 1 35
M  V30 40 1 1 36
M  V30 41 1 5 37
M  V30 42 1 5 38
M  V30 43 1 6 39
M  V30 44 1 6 40
M  V30 45 1 7 41
M  V30 46 1 8 42 CFG=3
M  V30 47 1 10 43
M  V30 48 1 11 44
M  V30 49 1 14 45
M  V30 50 1 14 46
M  V30 51 1 15 47
M  V30 52 1 15 48
M  V30 53 1 16 49
M  V30 54 1 16 50
M  V30 55 1 17 51
M  V30 56 1 17 52
M  V30 57 1 18 53
M  V30 58 1 18 54
M  V30 59 1 19 55
M  V30 60 1 20 56
M  V30 61 1 21 57
M  V30 62 1 21 58
M  V30 63 1 25 59
M  V30 64 1 26 60
M  V30 65 1 28 61
M  V30 66 1 31 62
M  V30 END BOND
M  V30 END CTAB
M  END
>  <Dataset>  (330) 
ChEMBL_Kinases

>  <Ligand_Instance>  (330) 
nan

>  <PDB_ID>  (330) 
nan

>  <Standardized_SMILES>  (330) 
Cn1c(N2CCN[C@@H](c3ccc(N4CCCCC4)cc3)C2)nc(-c2ccncc2F)cc1=O

>  <Name>  (330) 
nan

>  <Pocket>  (330) 
nan

>  <ATP_Site>  (330) 
nan

>  <Peripheral>  (330) 
nan

>  <Num_H_Atoms_ProtBoundConf>  (330) 
nan

>  <Num_Resolved_Atoms>  (330) 
nan

>  <Num_Not_Resolved_Atoms>  (330) 
nan

$$$$
CHEMBL3732237
     RDKit          3D

  0  0  0  0  0  0  0  0  0  0999 V3000
M  V30 BEGIN CTAB
M  V30 COUNTS 36 37 0 0 0
M  V30 BEGIN ATOM
M  V30 1 O -0.135538 -0.312101 0.077903 0
M  V30 2 C -0.080827 -1.377873 0.756231 0
M  V30 3 C 0.497160 -2.754243 0.934551 0
M  V30 4 N 1.423081 -3.023398 -0.146404 0
M  V30 5 C 2.575807 -2.226254 -0.362272 0
M  V30 6 C 2.900488 -1.153515 0.429064 0
M  V30 7 C 4.015106 -0.348493 0.253173 0
M  V30 8 C 4.848976 -0.668925 -0.805806 0
M  V30 9 C 4.555981 -1.727197 -1.610544 0
M  V30 10 C 5.458380 -2.066471 -2.748990 0
M  V30 11 F 6.537305 -2.767987 -2.265039 0
M  V30 12 F 5.921087 -0.905210 -3.362382 0
M  V30 13 F 4.829515 -2.859838 -3.687568 0
M  V30 14 C 3.439782 -2.479668 -1.380465 0
M  V30 15 N -0.992506 -1.153385 1.851317 0
M  V30 16 N -1.729662 0.047559 2.015961 0
M  V30 17 C -2.993058 -0.007936 1.766503 0
M  V30 18 C -3.835642 1.195276 1.912084 0
M  V30 19 C -5.201218 1.257882 1.673334 0
M  V30 20 C -5.864643 2.454354 1.850609 0
M  V30 21 N -5.251552 3.572430 2.246055 0
M  V30 22 C -3.933926 3.574521 2.492133 0
M  V30 23 C -3.246119 2.391773 2.322864 0
M  V30 24 H 1.069992 -2.749424 1.878184 0
M  V30 25 H -0.320373 -3.473333 0.931485 0
M  V30 26 H 1.239406 -3.822769 -0.782939 0
M  V30 27 H 2.276511 -0.871861 1.265046 0
M  V30 28 H 4.253004 0.491019 0.886763 0
M  V30 29 H 5.749669 -0.094183 -1.024129 0
M  V30 30 H 3.239408 -3.324192 -2.052219 0
M  V30 31 H -1.303098 -1.732487 2.688099 0
M  V30 32 H -3.535645 -0.895705 1.442102 0
M  V30 33 H -5.650871 0.319792 1.353611 0
M  V30 34 H -6.937721 2.458300 1.651593 0
M  V30 35 H -3.413650 4.476379 2.815877 0
M  V30 36 H -2.190944 2.430291 2.529200 0
M  V30 END ATOM
M  V30 BEGIN BOND
M  V30 1 2 1 2
M  V30 2 1 2 3
M  V30 3 1 3 4
M  V30 4 1 4 5
M  V30 5 2 5 6
M  V30 6 1 6 7
M  V30 7 2 7 8
M  V30 8 1 8 9
M  V30 9 1 9 10
M  V30 10 1 10 11
M  V30 11 1 10 12
M  V30 12 1 10 13
M  V30 13 2 9 14
M  V30 14 1 2 15
M  V30 15 1 15 16
M  V30 16 2 16 17
M  V30 17 1 17 18
M  V30 18 2 18 19
M  V30 19 1 19 20
M  V30 20 2 20 21
M  V30 21 1 21 22
M  V30 22 2 22 23
M  V30 23 1 14 5
M  V30 24 1 23 18
M  V30 25 1 3 24
M  V30 26 1 3 25
M  V30 27 1 4 26
M  V30 28 1 6 27
M  V30 29 1 7 28
M  V30 30 1 8 29
M  V30 31 1 14 30
M  V30 32 1 15 31
M  V30 33 1 17 32
M  V30 34 1 19 33
M  V30 35 1 20 34
M  V30 36 1 22 35
M  V30 37 1 23 36
M  V30 END BOND
M  V30 END CTAB
M  END
>  <Dataset>  (331) 
ChEMBL_Kinases

>  <Ligand_Instance>  (331) 
nan

>  <PDB_ID>  (331) 
nan

>  <Standardized_SMILES>  (331) 
O=C(CNc1cccc(C(F)(F)F)c1)N/N=C/c1ccncc1

>  <Name>  (331) 
nan

>  <Pocket>  (331) 
nan

>  <ATP_Site>  (331) 
nan

>  <Peripheral>  (331) 
nan

>  <Num_H_Atoms_ProtBoundConf>  (331) 
nan

>  <Num_Resolved_Atoms>  (331) 
nan

>  <Num_Not_Resolved_Atoms>  (331) 
nan

$$$$
CHEMBL3732235
     RDKit          3D

  0  0  0  0  0  0  0  0  0  0999 V3000
M  V30 BEGIN CTAB
M  V30 COUNTS 39 42 0 0 0
M  V30 BEGIN ATOM
M  V30 1 C 1.289559 -4.485518 3.651897 0
M  V30 2 C 1.552981 -3.796256 2.364581 0
M  V30 3 C 2.550118 -4.380581 1.543119 0
M  V30 4 S 2.597012 -3.296984 0.094930 0
M  V30 5 C 1.318305 -2.164532 0.662305 0
M  V30 6 C 0.764017 -1.019233 0.078021 0
M  V30 7 N 1.281036 -0.657608 -1.191096 0
M  V30 8 C 0.697392 0.524859 -1.776451 0 CFG=2
M  V30 9 C 1.300266 0.843935 -3.126119 0
M  V30 10 C 1.218978 2.346554 -3.229887 0
M  V30 11 N 0.732263 2.836097 -1.972631 0
M  V30 12 C 1.003343 1.788233 -1.009828 0
M  V30 13 N -0.192709 -0.357910 0.738433 0
M  V30 14 C -0.542479 -0.875734 1.943529 0
M  V30 15 C -1.592997 -0.176682 2.702994 0
M  V30 16 C -2.030767 -0.608085 3.936085 0
M  V30 17 C -3.023157 0.087290 4.609027 0
M  V30 18 N -3.541988 1.176666 4.040239 0
M  V30 19 C -3.133514 1.618176 2.840233 0
M  V30 20 C -2.137111 0.949719 2.126861 0
M  V30 21 N -0.022696 -1.955768 2.499100 0
M  V30 22 C 0.939857 -2.672017 1.899237 0
M  V30 23 H 0.468581 -3.965860 4.201726 0
M  V30 24 H 2.162235 -4.516819 4.309407 0
M  V30 25 H 0.928652 -5.520496 3.513181 0
M  V30 26 H 3.154825 -5.216965 1.656457 0
M  V30 27 H 2.020892 -1.187808 -1.678085 0
M  V30 28 H -0.388818 0.428592 -1.937861 0
M  V30 29 H 2.341878 0.478763 -3.152079 0
M  V30 30 H 0.755103 0.395688 -3.968848 0
M  V30 31 H 0.536962 2.661877 -4.064649 0
M  V30 32 H 2.252547 2.708674 -3.479064 0
M  V30 33 H 1.199691 3.742236 -1.697432 0
M  V30 34 H 0.316542 1.829748 -0.147014 0
M  V30 35 H 2.066126 1.799771 -0.702265 0
M  V30 36 H -1.553152 -1.499249 4.318043 0
M  V30 37 H -3.268358 -0.358391 5.558499 0
M  V30 38 H -3.575243 2.500468 2.413302 0
M  V30 39 H -1.859208 1.354344 1.178217 0
M  V30 END ATOM
M  V30 BEGIN BOND
M  V30 1 1 1 2
M  V30 2 2 2 3
M  V30 3 1 3 4
M  V30 4 1 4 5
M  V30 5 2 5 6
M  V30 6 1 6 7
M  V30 7 1 7 8
M  V30 8 1 8 9
M  V30 9 1 9 10
M  V30 10 1 10 11
M  V30 11 1 11 12
M  V30 12 1 6 13
M  V30 13 2 13 14
M  V30 14 1 14 15
M  V30 15 2 15 16
M  V30 16 1 16 17
M  V30 17 2 17 18
M  V30 18 1 18 19
M  V30 19 2 19 20
M  V30 20 1 14 21
M  V30 21 2 21 22
M  V30 22 1 22 2
M  V30 23 1 22 5
M  V30 24 1 12 8
M  V30 25 1 20 15
M  V30 26 1 1 23
M  V30 27 1 1 24
M  V30 28 1 1 25
M  V30 29 1 3 26
M  V30 30 1 7 27
M  V30 31 1 8 28 CFG=3
M  V30 32 1 9 29
M  V30 33 1 9 30
M  V30 34 1 10 31
M  V30 35 1 10 32
M  V30 36 1 11 33
M  V30 37 1 12 34
M  V30 38 1 12 35
M  V30 39 1 16 36
M  V30 40 1 17 37
M  V30 41 1 19 38
M  V30 42 1 20 39
M  V30 END BOND
M  V30 END CTAB
M  END
>  <Dataset>  (332) 
ChEMBL_Kinases

>  <Ligand_Instance>  (332) 
nan

>  <PDB_ID>  (332) 
nan

>  <Standardized_SMILES>  (332) 
Cc1csc2c(N[C@@H]3CCNC3)nc(-c3ccncc3)nc12

>  <Name>  (332) 
nan

>  <Pocket>  (332) 
nan

>  <ATP_Site>  (332) 
nan

>  <Peripheral>  (332) 
nan

>  <Num_H_Atoms_ProtBoundConf>  (332) 
nan

>  <Num_Resolved_Atoms>  (332) 
nan

>  <Num_Not_Resolved_Atoms>  (332) 
nan

$$$$
CHEMBL3732228
     RDKit          3D

  0  0  0  0  0  0  0  0  0  0999 V3000
M  V30 BEGIN CTAB
M  V30 COUNTS 48 52 0 0 0
M  V30 BEGIN ATOM
M  V30 1 F -1.503254 -0.318695 3.300988 0
M  V30 2 C -1.115721 -1.313595 2.503895 0
M  V30 3 C -0.047016 -1.272762 1.633257 0
M  V30 4 C 0.742647 -0.045331 1.561582 0
M  V30 5 N 1.763331 -0.057776 0.640587 0
M  V30 6 C 2.500426 1.069745 0.580480 0
M  V30 7 N 3.585157 1.223161 -0.317151 0
M  V30 8 C 3.803210 0.054568 -1.154532 0 CFG=2
M  V30 9 C 4.959700 0.211188 -2.079668 0
M  V30 10 C 4.265510 0.461648 -3.411262 0
M  V30 11 N 3.018070 -0.284516 -3.361016 0
M  V30 12 C 2.559420 -0.160108 -2.004950 0
M  V30 13 C 2.247839 2.167612 1.392450 0
M  V30 14 S 3.000341 3.715482 1.547129 0
M  V30 15 C 1.824150 4.303029 2.916200 0
M  V30 16 C 0.939073 3.189045 3.113288 0
M  V30 17 C 1.229692 2.141537 2.291308 0
M  V30 18 N 0.488002 0.994675 2.344191 0
M  V30 19 C 0.298793 -2.339894 0.836802 0
M  V30 20 C -0.420485 -3.519194 0.874418 0
M  V30 21 N -1.474958 -3.572913 1.727593 0
M  V30 22 C -1.796924 -2.510225 2.501478 0
M  V30 23 N -2.955832 -2.776804 3.316365 0
M  V30 24 C -4.236318 -2.625241 2.670720 0
M  V30 25 C -5.441066 -2.807981 3.319238 0
M  V30 26 C -6.663834 -2.666530 2.673061 0
M  V30 27 C -6.678272 -2.329818 1.328978 0
M  V30 28 C -5.499080 -2.129743 0.610183 0
M  V30 29 C -4.339328 -2.292513 1.337254 0
M  V30 30 H 4.188887 2.041383 -0.413278 0
M  V30 31 H 3.932051 -0.874075 -0.537684 0
M  V30 32 H 5.618499 -0.693175 -2.149078 0
M  V30 33 H 5.557416 1.099795 -1.770779 0
M  V30 34 H 4.871353 0.128495 -4.279746 0
M  V30 35 H 4.070838 1.543739 -3.527872 0
M  V30 36 H 3.172917 -1.288480 -3.606081 0
M  V30 37 H 2.027835 -1.106314 -1.730311 0
M  V30 38 H 1.810172 0.654642 -1.886564 0
M  V30 39 H 1.795077 5.292851 3.474448 0
M  V30 40 H 0.190503 3.345595 3.868295 0
M  V30 41 H 1.148760 -2.317538 0.140671 0
M  V30 42 H -0.130537 -4.343226 0.237464 0
M  V30 43 H -2.975377 -3.065835 4.319538 0
M  V30 44 H -5.429710 -3.076020 4.387360 0
M  V30 45 H -7.598885 -2.810801 3.181437 0
M  V30 46 H -7.632057 -2.211997 0.790469 0
M  V30 47 H -5.498127 -1.867085 -0.438729 0
M  V30 48 H -3.428863 -2.127219 0.742299 0
M  V30 END ATOM
M  V30 BEGIN BOND
M  V30 1 1 1 2
M  V30 2 2 2 3
M  V30 3 1 3 4
M  V30 4 2 4 5
M  V30 5 1 5 6
M  V30 6 1 6 7
M  V30 7 1 7 8
M  V30 8 1 8 9
M  V30 9 1 9 10
M  V30 10 1 10 11
M  V30 11 1 11 12
M  V30 12 2 6 13
M  V30 13 1 13 14
M  V30 14 1 14 15
M  V30 15 2 15 16
M  V30 16 1 16 17
M  V30 17 2 17 18
M  V30 18 1 3 19
M  V30 19 2 19 20
M  V30 20 1 20 21
M  V30 21 2 21 22
M  V30 22 1 22 23
M  V30 23 1 23 24
M  V30 24 2 24 25
M  V30 25 1 25 26
M  V30 26 2 26 27
M  V30 27 1 27 28
M  V30 28 2 28 29
M  V30 29 1 22 2
M  V30 30 1 29 24
M  V30 31 1 18 4
M  V30 32 1 12 8
M  V30 33 1 17 13
M  V30 34 1 7 30
M  V30 35 1 8 31 CFG=1
M  V30 36 1 9 32
M  V30 37 1 9 33
M  V30 38 1 10 34
M  V30 39 1 10 35
M  V30 40 1 11 36
M  V30 41 1 12 37
M  V30 42 1 12 38
M  V30 43 1 15 39
M  V30 44 1 16 40
M  V30 45 1 19 41
M  V30 46 1 20 42
M  V30 47 1 23 43
M  V30 48 1 25 44
M  V30 49 1 26 45
M  V30 50 1 27 46
M  V30 51 1 28 47
M  V30 52 1 29 48
M  V30 END BOND
M  V30 END CTAB
M  END
>  <Dataset>  (333) 
ChEMBL_Kinases

>  <Ligand_Instance>  (333) 
nan

>  <PDB_ID>  (333) 
nan

>  <Standardized_SMILES>  (333) 
Fc1c(-c2nc(N[C@@H]3CCNC3)c3sccc3n2)ccnc1Nc1ccccc1

>  <Name>  (333) 
nan

>  <Pocket>  (333) 
nan

>  <ATP_Site>  (333) 
nan

>  <Peripheral>  (333) 
nan

>  <Num_H_Atoms_ProtBoundConf>  (333) 
nan

>  <Num_Resolved_Atoms>  (333) 
nan

>  <Num_Not_Resolved_Atoms>  (333) 
nan

$$$$
CHEMBL3732226
     RDKit          3D

  0  0  0  0  0  0  0  0  0  0999 V3000
M  V30 BEGIN CTAB
M  V30 COUNTS 46 50 0 0 0
M  V30 BEGIN ATOM
M  V30 1 C -0.510770 -6.487223 0.660672 0
M  V30 2 C -0.522545 -5.191807 1.126612 0
M  V30 3 C 0.015792 -4.141027 0.418382 0
M  V30 4 C -0.030108 -2.803338 0.960441 0
M  V30 5 N 0.428248 -1.683698 0.396734 0
M  V30 6 C 0.389946 -0.458787 0.902170 0
M  V30 7 N 0.921355 0.547860 0.037970 0
M  V30 8 C 1.443346 0.146719 -1.249872 0 CFG=1
M  V30 9 C 0.373115 -0.470544 -2.120563 0
M  V30 10 C 0.991108 -0.284799 -3.508957 0
M  V30 11 N 1.632936 0.992457 -3.460505 0
M  V30 12 C 1.860752 1.319826 -2.076370 0
M  V30 13 C -0.155041 -0.189527 2.133433 0
M  V30 14 C -0.328714 0.949708 2.878200 0
M  V30 15 C -0.937073 0.875700 4.086765 0
M  V30 16 S -1.329008 -0.858591 4.299381 0
M  V30 17 C -0.630196 -1.364110 2.708245 0
M  V30 18 N -0.576298 -2.597486 2.165745 0
M  V30 19 C -1.280154 1.890595 5.070074 0
M  V30 20 C -1.069147 3.235014 4.386685 0
M  V30 21 C 0.214344 3.242889 3.632174 0
M  V30 22 C 0.173012 2.305856 2.464813 0
M  V30 23 C 0.573037 -4.468650 -0.798084 0
M  V30 24 C 0.591251 -5.742113 -1.269392 0
M  V30 25 N 0.054318 -6.711436 -0.536205 0
M  V30 26 H -0.966083 -7.240770 1.305852 0
M  V30 27 H -0.969701 -4.968703 2.089322 0
M  V30 28 H 1.020595 1.573760 0.107252 0
M  V30 29 H 2.268037 -0.594456 -1.147450 0
M  V30 30 H -0.561255 0.097263 -2.094951 0
M  V30 31 H 0.200764 -1.529936 -1.959310 0
M  V30 32 H 1.797073 -1.059252 -3.619145 0
M  V30 33 H 0.273963 -0.400519 -4.322701 0
M  V30 34 H 1.108889 1.704027 -3.986192 0
M  V30 35 H 2.921243 1.595347 -1.926716 0
M  V30 36 H 1.288516 2.244189 -1.786665 0
M  V30 37 H -0.717662 1.815033 6.009696 0
M  V30 38 H -2.358638 1.825849 5.312801 0
M  V30 39 H -1.039707 4.038439 5.140980 0
M  V30 40 H -1.907345 3.457192 3.697527 0
M  V30 41 H 1.044170 2.939271 4.307388 0
M  V30 42 H 0.359005 4.276688 3.253715 0
M  V30 43 H 1.263944 2.218390 2.179316 0
M  V30 44 H -0.464844 2.637777 1.640887 0
M  V30 45 H 1.010244 -3.698530 -1.397046 0
M  V30 46 H 1.023585 -6.031013 -2.225204 0
M  V30 END ATOM
M  V30 BEGIN BOND
M  V30 1 2 1 2
M  V30 2 1 2 3
M  V30 3 1 3 4
M  V30 4 2 4 5
M  V30 5 1 5 6
M  V30 6 1 6 7
M  V30 7 1 7 8
M  V30 8 1 8 9
M  V30 9 1 9 10
M  V30 10 1 10 11
M  V30 11 1 11 12
M  V30 12 2 6 13
M  V30 13 1 13 14
M  V30 14 2 14 15
M  V30 15 1 15 16
M  V30 16 1 16 17
M  V30 17 2 17 18
M  V30 18 1 15 19
M  V30 19 1 19 20
M  V30 20 1 20 21
M  V30 21 1 21 22
M  V30 22 2 3 23
M  V30 23 1 23 24
M  V30 24 2 24 25
M  V30 25 1 25 1
M  V30 26 1 18 4
M  V30 27 1 12 8
M  V30 28 1 17 13
M  V30 29 1 22 14
M  V30 30 1 1 26
M  V30 31 1 2 27
M  V30 32 1 7 28
M  V30 33 1 8 29 CFG=1
M  V30 34 1 9 30
M  V30 35 1 9 31
M  V30 36 1 10 32
M  V30 37 1 10 33
M  V30 38 1 11 34
M  V30 39 1 12 35
M  V30 40 1 12 36
M  V30 41 1 19 37
M  V30 42 1 19 38
M  V30 43 1 20 39
M  V30 44 1 20 40
M  V30 45 1 21 41
M  V30 46 1 21 42
M  V30 47 1 22 43
M  V30 48 1 22 44
M  V30 49 1 23 45
M  V30 50 1 24 46
M  V30 END BOND
M  V30 END CTAB
M  END
>  <Dataset>  (334) 
ChEMBL_Kinases

>  <Ligand_Instance>  (334) 
nan

>  <PDB_ID>  (334) 
nan

>  <Standardized_SMILES>  (334) 
c1cc(-c2nc(N[C@H]3CCNC3)c3c4c(sc3n2)CCCC4)ccn1

>  <Name>  (334) 
nan

>  <Pocket>  (334) 
nan

>  <ATP_Site>  (334) 
nan

>  <Peripheral>  (334) 
nan

>  <Num_H_Atoms_ProtBoundConf>  (334) 
nan

>  <Num_Resolved_Atoms>  (334) 
nan

>  <Num_Not_Resolved_Atoms>  (334) 
nan

$$$$
CHEMBL3732193
     RDKit          3D

  0  0  0  0  0  0  0  0  0  0999 V3000
M  V30 BEGIN CTAB
M  V30 COUNTS 69 73 0 0 0
M  V30 BEGIN ATOM
M  V30 1 C 1.396646 -4.433832 2.349204 0
M  V30 2 C 0.825586 -3.330901 3.178466 0
M  V30 3 C -0.345802 -3.843972 3.999677 0
M  V30 4 C 1.933633 -2.934098 4.174396 0
M  V30 5 C 0.435217 -2.203365 2.370050 0
M  V30 6 S -1.356472 -1.712846 2.316159 0
M  V30 7 C -1.114096 -0.350674 1.148330 0
M  V30 8 C -1.940516 0.567463 0.553086 0
M  V30 9 N -3.304167 0.404050 0.893505 0
M  V30 10 C -4.547479 1.041875 0.597049 0
M  V30 11 C -4.889372 1.182887 -0.845964 0 CFG=1
M  V30 12 N -3.832455 2.001590 -1.474671 0
M  V30 13 C -5.032198 -0.080829 -1.628055 0
M  V30 14 C -3.811930 -0.905327 -1.660969 0
M  V30 15 C -3.532318 -1.998624 -0.834869 0
M  V30 16 C -2.321414 -2.623910 -1.034808 0
M  V30 17 C -1.369059 -2.269396 -1.970732 0
M  V30 18 C -1.701165 -1.186560 -2.753443 0
M  V30 19 C -2.890264 -0.498938 -2.623599 0
M  V30 20 N -1.447946 1.481949 -0.289784 0
M  V30 21 C -0.117683 1.458470 -0.527235 0
M  V30 22 C 0.499741 2.421095 -1.430801 0
M  V30 23 C 1.839045 2.457548 -1.733492 0
M  V30 24 C 2.253783 3.434491 -2.610791 0
M  V30 25 N 1.408311 4.330873 -3.164793 0
M  V30 26 C 0.090267 4.300862 -2.871281 0
M  V30 27 C -0.345981 3.345393 -2.007218 0
M  V30 28 N 0.700091 0.566589 0.045878 0
M  V30 29 C 0.263738 -0.376351 0.903493 0
M  V30 30 C 1.014222 -1.319839 1.532170 0
M  V30 31 C 2.456454 -1.491702 1.395157 0
M  V30 32 C 2.927138 -2.373837 0.442550 0
M  V30 33 C 4.253261 -2.626264 0.197902 0
M  V30 34 C 5.201022 -1.961946 0.944881 0
M  V30 35 C 4.737744 -1.086511 1.889943 0
M  V30 36 N 5.648610 -0.363081 2.690259 0
M  V30 37 C 3.401886 -0.831321 2.137989 0
M  V30 38 H 2.498813 -4.436804 2.422736 0
M  V30 39 H 1.106203 -5.456390 2.742112 0
M  V30 40 H 1.041179 -4.422306 1.289705 0
M  V30 41 H -0.040767 -4.701354 4.607059 0
M  V30 42 H -1.231264 -4.028720 3.381271 0
M  V30 43 H -0.627406 -3.028759 4.733010 0
M  V30 44 H 1.833155 -1.846200 4.348038 0
M  V30 45 H 1.770406 -3.444420 5.146499 0
M  V30 46 H 2.926562 -3.177550 3.760422 0
M  V30 47 H -3.581789 -0.386023 1.551864 0
M  V30 48 H -4.519348 2.107364 0.993875 0
M  V30 49 H -5.428498 0.624484 1.168230 0
M  V30 50 H -5.819088 1.800780 -0.991724 0
M  V30 51 H -3.750028 2.883911 -0.895574 0
M  V30 52 H -4.141189 2.286048 -2.451912 0
M  V30 53 H -5.294972 0.244858 -2.680915 0
M  V30 54 H -5.891701 -0.680954 -1.223074 0
M  V30 55 H -4.278224 -2.274485 -0.103508 0
M  V30 56 H -2.079546 -3.481955 -0.402485 0
M  V30 57 H -0.444660 -2.825027 -2.051449 0
M  V30 58 H -0.961721 -0.886474 -3.493467 0
M  V30 59 H -3.025569 0.336697 -3.309439 0
M  V30 60 H 2.458952 1.714688 -1.256838 0
M  V30 61 H 3.328116 3.427467 -2.824441 0
M  V30 62 H -0.549348 5.035521 -3.333273 0
M  V30 63 H -1.408989 3.335275 -1.784335 0
M  V30 64 H 2.194739 -2.898225 -0.149475 0
M  V30 65 H 4.511034 -3.342714 -0.576371 0
M  V30 66 H 6.236069 -2.172535 0.737645 0
M  V30 67 H 5.982684 -0.475348 3.677441 0
M  V30 68 H 6.335549 0.302307 3.072375 0
M  V30 69 H 3.073403 -0.129945 2.902684 0
M  V30 END ATOM
M  V30 BEGIN BOND
M  V30 1 1 1 2
M  V30 2 1 2 3
M  V30 3 1 2 4
M  V30 4 1 2 5
M  V30 5 1 5 6
M  V30 6 1 6 7
M  V30 7 2 7 8
M  V30 8 1 8 9
M  V30 9 1 9 10
M  V30 10 1 10 11
M  V30 11 1 11 12
M  V30 12 1 11 13
M  V30 13 1 13 14
M  V30 14 2 14 15
M  V30 15 1 15 16
M  V30 16 2 16 17
M  V30 17 1 17 18
M  V30 18 2 18 19
M  V30 19 1 8 20
M  V30 20 2 20 21
M  V30 21 1 21 22
M  V30 22 2 22 23
M  V30 23 1 23 24
M  V30 24 2 24 25
M  V30 25 1 25 26
M  V30 26 2 26 27
M  V30 27 1 21 28
M  V30 28 2 28 29
M  V30 29 1 29 30
M  V30 30 1 30 31
M  V30 31 2 31 32
M  V30 32 1 32 33
M  V30 33 2 33 34
M  V30 34 1 34 35
M  V30 35 1 35 36
M  V30 36 2 35 37
M  V30 37 2 30 5
M  V30 38 1 37 31
M  V30 39 1 29 7
M  V30 40 1 19 14
M  V30 41 1 27 22
M  V30 42 1 1 38
M  V30 43 1 1 39
M  V30 44 1 1 40
M  V30 45 1 3 41
M  V30 46 1 3 42
M  V30 47 1 3 43
M  V30 48 1 4 44
M  V30 49 1 4 45
M  V30 50 1 4 46
M  V30 51 1 9 47
M  V30 52 1 10 48
M  V30 53 1 10 49
M  V30 54 1 11 50 CFG=1
M  V30 55 1 12 51
M  V30 56 1 12 52
M  V30 57 1 13 53
M  V30 58 1 13 54
M  V30 59 1 15 55
M  V30 60 1 16 56
M  V30 61 1 17 57
M  V30 62 1 18 58
M  V30 63 1 19 59
M  V30 64 1 23 60
M  V30 65 1 24 61
M  V30 66 1 26 62
M  V30 67 1 27 63
M  V30 68 1 32 64
M  V30 69 1 33 65
M  V30 70 1 34 66
M  V30 71 1 36 67
M  V30 72 1 36 68
M  V30 73 1 37 69
M  V30 END BOND
M  V30 END CTAB
M  END
>  <Dataset>  (335) 
ChEMBL_Kinases

>  <Ligand_Instance>  (335) 
nan

>  <PDB_ID>  (335) 
nan

>  <Standardized_SMILES>  (335) 
CC(C)(C)c1sc2c(NC[C@@H](N)Cc3ccccc3)nc(-c3ccncc3)nc2c1-c1cccc(N)c1

>  <Name>  (335) 
nan

>  <Pocket>  (335) 
nan

>  <ATP_Site>  (335) 
nan

>  <Peripheral>  (335) 
nan

>  <Num_H_Atoms_ProtBoundConf>  (335) 
nan

>  <Num_Resolved_Atoms>  (335) 
nan

>  <Num_Not_Resolved_Atoms>  (335) 
nan

$$$$
CHEMBL3732047
     RDKit          3D

  0  0  0  0  0  0  0  0  0  0999 V3000
M  V30 BEGIN CTAB
M  V30 COUNTS 38 41 0 0 0
M  V30 BEGIN ATOM
M  V30 1 C 0.227826 -2.994077 5.010948 0
M  V30 2 C 0.939418 -2.704941 3.744370 0
M  V30 3 C 2.168068 -3.410776 3.576577 0
M  V30 4 S 2.770744 -2.798145 1.885156 0
M  V30 5 C 1.327409 -1.680168 1.597786 0
M  V30 6 C 1.025435 -0.845226 0.529497 0
M  V30 7 O 1.979497 -0.874095 -0.472282 0
M  V30 8 C 1.771632 -0.073260 -1.586810 0 CFG=2
M  V30 9 C 1.686500 -0.884764 -2.883828 0
M  V30 10 C 1.784710 0.256088 -3.884657 0
M  V30 11 N 2.572414 1.284183 -3.260663 0
M  V30 12 C 2.913855 0.827874 -1.931007 0
M  V30 13 N -0.116814 -0.153496 0.626427 0
M  V30 14 C -0.874562 -0.312326 1.726995 0
M  V30 15 C -2.124490 0.439003 1.842517 0
M  V30 16 C -2.480460 1.283701 0.817395 0
M  V30 17 C -3.638009 1.990676 0.905659 0
M  V30 18 N -4.439043 1.865306 1.997721 0
M  V30 19 C -4.108089 1.046320 3.007245 0
M  V30 20 C -2.950189 0.327709 2.938115 0
M  V30 21 N -0.557755 -1.125615 2.742611 0
M  V30 22 C 0.560355 -1.865652 2.753278 0
M  V30 23 H -0.812310 -2.611589 4.943719 0
M  V30 24 H 0.110241 -4.106750 5.103220 0
M  V30 25 H 0.769022 -2.649545 5.887683 0
M  V30 26 H 2.672225 -4.124718 4.219798 0
M  V30 27 H 0.837709 0.524273 -1.561194 0
M  V30 28 H 2.572955 -1.515627 -2.998757 0
M  V30 29 H 0.715974 -1.411073 -2.958457 0
M  V30 30 H 0.743957 0.670723 -3.962108 0
M  V30 31 H 2.139582 -0.063351 -4.866658 0
M  V30 32 H 3.437021 1.478893 -3.825109 0
M  V30 33 H 3.076126 1.640605 -1.220396 0
M  V30 34 H 3.829706 0.173807 -2.021373 0
M  V30 35 H -1.838724 1.375171 -0.042448 0
M  V30 36 H -3.885004 2.641922 0.085096 0
M  V30 37 H -4.710064 0.909329 3.899694 0
M  V30 38 H -2.622149 -0.351524 3.716418 0
M  V30 END ATOM
M  V30 BEGIN BOND
M  V30 1 1 1 2
M  V30 2 2 2 3
M  V30 3 1 3 4
M  V30 4 1 4 5
M  V30 5 2 5 6
M  V30 6 1 6 7
M  V30 7 1 7 8
M  V30 8 1 8 9
M  V30 9 1 9 10
M  V30 10 1 10 11
M  V30 11 1 11 12
M  V30 12 1 6 13
M  V30 13 2 13 14
M  V30 14 1 14 15
M  V30 15 2 15 16
M  V30 16 1 16 17
M  V30 17 2 17 18
M  V30 18 1 18 19
M  V30 19 2 19 20
M  V30 20 1 14 21
M  V30 21 2 21 22
M  V30 22 1 22 2
M  V30 23 1 22 5
M  V30 24 1 12 8
M  V30 25 1 20 15
M  V30 26 1 1 23
M  V30 27 1 1 24
M  V30 28 1 1 25
M  V30 29 1 3 26
M  V30 30 1 8 27 CFG=1
M  V30 31 1 9 28
M  V30 32 1 9 29
M  V30 33 1 10 30
M  V30 34 1 10 31
M  V30 35 1 11 32
M  V30 36 1 12 33
M  V30 37 1 12 34
M  V30 38 1 16 35
M  V30 39 1 17 36
M  V30 40 1 19 37
M  V30 41 1 20 38
M  V30 END BOND
M  V30 END CTAB
M  END
>  <Dataset>  (336) 
ChEMBL_Kinases

>  <Ligand_Instance>  (336) 
nan

>  <PDB_ID>  (336) 
nan

>  <Standardized_SMILES>  (336) 
Cc1csc2c(O[C@@H]3CCNC3)nc(-c3ccncc3)nc12

>  <Name>  (336) 
nan

>  <Pocket>  (336) 
nan

>  <ATP_Site>  (336) 
nan

>  <Peripheral>  (336) 
nan

>  <Num_H_Atoms_ProtBoundConf>  (336) 
nan

>  <Num_Resolved_Atoms>  (336) 
nan

>  <Num_Not_Resolved_Atoms>  (336) 
nan

$$$$
CHEMBL3732178
     RDKit          3D

  0  0  0  0  0  0  0  0  0  0999 V3000
M  V30 BEGIN CTAB
M  V30 COUNTS 49 52 0 0 0
M  V30 BEGIN ATOM
M  V30 1 C 2.203973 -1.167134 4.261710 0
M  V30 2 C 2.858432 -2.103274 3.287419 0
M  V30 3 N 4.036699 -2.720598 3.535939 0
M  V30 4 N 4.356125 -3.475420 2.501880 0
M  V30 5 C 3.398290 -3.378241 1.541175 0
M  V30 6 C 3.277740 -4.011985 0.209206 0
M  V30 7 C 2.444412 -2.511472 2.028076 0
M  V30 8 C 1.201740 -2.001599 1.501193 0
M  V30 9 N 1.064997 -0.896541 0.774975 0
M  V30 10 C -0.059724 -0.386285 0.267015 0
M  V30 11 N 0.175156 0.807886 -0.493877 0
M  V30 12 C 1.434144 1.450025 -0.671819 0
M  V30 13 C 1.800545 2.437805 0.385671 0 CFG=2
M  V30 14 C 1.880596 1.831277 1.734859 0
M  V30 15 N 0.853158 3.541177 0.399294 0
M  V30 16 C -1.252182 -1.039353 0.488994 0
M  V30 17 C -2.466969 -0.651909 0.046042 0
M  V30 18 C -3.523304 -1.520886 0.430053 0
M  V30 19 S -2.723660 -2.812205 1.382024 0
M  V30 20 C -1.099198 -2.167359 1.232642 0
M  V30 21 N 0.045767 -2.645182 1.723266 0
M  V30 22 C -4.983297 -1.356970 0.093406 0
M  V30 23 C -5.128960 -1.021531 -1.389679 0
M  V30 24 C -3.857006 -0.367267 -1.897910 0
M  V30 25 C -3.168495 0.382562 -0.728429 0
M  V30 26 H 1.154770 -0.990982 3.940093 0
M  V30 27 H 2.300778 -1.588564 5.272959 0
M  V30 28 H 2.745207 -0.202180 4.217542 0
M  V30 29 H 5.211395 -4.085783 2.378005 0
M  V30 30 H 3.792017 -3.370303 -0.529537 0
M  V30 31 H 3.831541 -4.993625 0.218868 0
M  V30 32 H 2.238207 -4.243075 -0.028648 0
M  V30 33 H -0.448378 1.431078 -1.030595 0
M  V30 34 H 2.192155 0.596805 -0.676186 0
M  V30 35 H 1.491985 1.982087 -1.642111 0
M  V30 36 H 2.784095 2.909539 0.149422 0
M  V30 37 H 2.662140 1.052031 1.828678 0
M  V30 38 H 0.910079 1.483709 2.103223 0
M  V30 39 H 2.166587 2.643613 2.480634 0
M  V30 40 H 0.119546 3.398655 1.129516 0
M  V30 41 H 0.445629 3.723985 -0.554075 0
M  V30 42 H -5.322622 -0.504727 0.702834 0
M  V30 43 H -5.479209 -2.300547 0.304253 0
M  V30 44 H -6.024327 -0.403671 -1.488385 0
M  V30 45 H -5.294073 -1.985804 -1.910810 0
M  V30 46 H -3.137306 -1.155682 -2.191700 0
M  V30 47 H -4.010846 0.300308 -2.756446 0
M  V30 48 H -3.965619 0.863845 -0.098232 0
M  V30 49 H -2.539829 1.116315 -1.216825 0
M  V30 END ATOM
M  V30 BEGIN BOND
M  V30 1 1 1 2
M  V30 2 2 2 3
M  V30 3 1 3 4
M  V30 4 1 4 5
M  V30 5 1 5 6
M  V30 6 2 5 7
M  V30 7 1 7 8
M  V30 8 2 8 9
M  V30 9 1 9 10
M  V30 10 1 10 11
M  V30 11 1 11 12
M  V30 12 1 12 13
M  V30 13 1 13 14
M  V30 14 1 13 15
M  V30 15 2 10 16
M  V30 16 1 16 17
M  V30 17 2 17 18
M  V30 18 1 18 19
M  V30 19 1 19 20
M  V30 20 2 20 21
M  V30 21 1 18 22
M  V30 22 1 22 23
M  V30 23 1 23 24
M  V30 24 1 24 25
M  V30 25 1 7 2
M  V30 26 1 21 8
M  V30 27 1 20 16
M  V30 28 1 25 17
M  V30 29 1 1 26
M  V30 30 1 1 27
M  V30 31 1 1 28
M  V30 32 1 4 29
M  V30 33 1 6 30
M  V30 34 1 6 31
M  V30 35 1 6 32
M  V30 36 1 11 33
M  V30 37 1 12 34
M  V30 38 1 12 35
M  V30 39 1 13 36 CFG=3
M  V30 40 1 14 37
M  V30 41 1 14 38
M  V30 42 1 14 39
M  V30 43 1 15 40
M  V30 44 1 15 41
M  V30 45 1 22 42
M  V30 46 1 22 43
M  V30 47 1 23 44
M  V30 48 1 23 45
M  V30 49 1 24 46
M  V30 50 1 24 47
M  V30 51 1 25 48
M  V30 52 1 25 49
M  V30 END BOND
M  V30 END CTAB
M  END
>  <Dataset>  (337) 
ChEMBL_Kinases

>  <Ligand_Instance>  (337) 
nan

>  <PDB_ID>  (337) 
nan

>  <Standardized_SMILES>  (337) 
Cc1n[nH]c(C)c1-c1nc(NC[C@H](C)N)c2c3c(sc2n1)CCCC3

>  <Name>  (337) 
nan

>  <Pocket>  (337) 
nan

>  <ATP_Site>  (337) 
nan

>  <Peripheral>  (337) 
nan

>  <Num_H_Atoms_ProtBoundConf>  (337) 
nan

>  <Num_Resolved_Atoms>  (337) 
nan

>  <Num_Not_Resolved_Atoms>  (337) 
nan

$$$$
CHEMBL522125
     RDKit          3D

  0  0  0  0  0  0  0  0  0  0999 V3000
M  V30 BEGIN CTAB
M  V30 COUNTS 56 59 0 0 0
M  V30 BEGIN ATOM
M  V30 1 C -0.184731 -6.501703 2.774850 0
M  V30 2 C -0.147889 -5.075252 2.253803 0 CFG=2
M  V30 3 N -1.033304 -4.188944 2.965269 0
M  V30 4 C -1.201658 -2.797932 2.732844 0
M  V30 5 C -0.501216 -2.090456 1.781580 0
M  V30 6 C -0.668211 -0.740966 1.555606 0
M  V30 7 C -0.136258 0.210759 0.709824 0
M  V30 8 C 0.912948 -0.066502 -0.315257 0
M  V30 9 C 2.250700 0.142276 0.370982 0
M  V30 10 C 2.887537 1.440248 -0.012617 0
M  V30 11 C 1.969024 2.610099 -0.087976 0
M  V30 12 N 0.756734 2.268708 -0.738712 0
M  V30 13 C 0.214653 3.317714 -1.571314 0
M  V30 14 C -0.237802 4.440515 -0.640176 0
M  V30 15 C -0.813061 5.566848 -1.456829 0
M  V30 16 N -1.211316 6.588166 -0.553546 0
M  V30 17 O -1.007053 5.788460 -2.696859 0
M  V30 18 C 0.864475 1.012207 -1.405324 0
M  V30 19 N -0.750304 1.381910 1.009669 0
M  V30 20 O -1.615278 1.180316 1.983932 0
M  V30 21 C -1.593195 -0.077134 2.335387 0
M  V30 22 C -2.289210 -0.784338 3.281882 0
M  V30 23 N -2.087875 -2.100203 3.461458 0
M  V30 24 C -0.440744 -5.094554 0.776398 0
M  V30 25 C -1.813553 -5.165169 0.569449 0
M  V30 26 C -2.322015 -5.198422 -0.726509 0
M  V30 27 C -1.461720 -5.161017 -1.784729 0
M  V30 28 C -0.102008 -5.091034 -1.568495 0
M  V30 29 C 0.425461 -5.057051 -0.295800 0
M  V30 30 H 0.483600 -6.548695 3.649767 0
M  V30 31 H -1.213067 -6.856975 2.988291 0
M  V30 32 H 0.250566 -7.117952 1.960210 0
M  V30 33 H 0.903647 -4.745274 2.363464 0
M  V30 34 H -1.592851 -4.642715 3.720736 0
M  V30 35 H 0.215806 -2.582071 1.172239 0
M  V30 36 H 0.798533 -1.071535 -0.762740 0
M  V30 37 H 2.921709 -0.663658 -0.012807 0
M  V30 38 H 2.177329 0.042359 1.471848 0
M  V30 39 H 3.617300 1.668781 0.823985 0
M  V30 40 H 3.535854 1.308822 -0.923707 0
M  V30 41 H 1.810078 3.078008 0.912092 0
M  V30 42 H 2.461315 3.406835 -0.712352 0
M  V30 43 H 0.890307 3.673279 -2.345167 0
M  V30 44 H -0.676089 2.903679 -2.086858 0
M  V30 45 H 0.612569 4.777954 -0.046678 0
M  V30 46 H -1.048358 4.092354 0.028084 0
M  V30 47 H -2.003307 6.490326 0.130059 0
M  V30 48 H -1.298098 7.468873 -0.013122 0
M  V30 49 H 0.019686 0.820480 -2.100706 0
M  V30 50 H 1.827639 0.937943 -1.947982 0
M  V30 51 H -3.015475 -0.303333 3.905917 0
M  V30 52 H -2.596910 -5.200083 1.321689 0
M  V30 53 H -3.393225 -5.253909 -0.950537 0
M  V30 54 H -1.830783 -5.185913 -2.795461 0
M  V30 55 H 0.646620 -5.057630 -2.360333 0
M  V30 56 H 1.455977 -5.003362 0.024126 0
M  V30 END ATOM
M  V30 BEGIN BOND
M  V30 1 1 1 2
M  V30 2 1 2 3
M  V30 3 1 3 4
M  V30 4 2 4 5
M  V30 5 1 5 6
M  V30 6 1 6 7
M  V30 7 1 7 8
M  V30 8 1 8 9
M  V30 9 1 9 10
M  V30 10 1 10 11
M  V30 11 1 11 12
M  V30 12 1 12 13
M  V30 13 1 13 14
M  V30 14 1 14 15
M  V30 15 1 15 16
M  V30 16 2 15 17
M  V30 17 1 12 18
M  V30 18 2 7 19
M  V30 19 1 19 20
M  V30 20 1 20 21
M  V30 21 1 21 22
M  V30 22 2 22 23
M  V30 23 1 2 24
M  V30 24 2 24 25
M  V30 25 1 25 26
M  V30 26 2 26 27
M  V30 27 1 27 28
M  V30 28 2 28 29
M  V30 29 1 23 4
M  V30 30 1 29 24
M  V30 31 2 21 6
M  V30 32 1 18 8
M  V30 33 1 1 30
M  V30 34 1 1 31
M  V30 35 1 1 32
M  V30 36 1 2 33 CFG=3
M  V30 37 1 3 34
M  V30 38 1 5 35
M  V30 39 1 8 36
M  V30 40 1 9 37
M  V30 41 1 9 38
M  V30 42 1 10 39
M  V30 43 1 10 40
M  V30 44 1 11 41
M  V30 45 1 11 42
M  V30 46 1 13 43
M  V30 47 1 13 44
M  V30 48 1 14 45
M  V30 49 1 14 46
M  V30 50 1 16 47
M  V30 51 1 16 48
M  V30 52 1 18 49
M  V30 53 1 18 50
M  V30 54 1 22 51
M  V30 55 1 25 52
M  V30 56 1 26 53
M  V30 57 1 27 54
M  V30 58 1 28 55
M  V30 59 1 29 56
M  V30 END BOND
M  V30 END CTAB
M  END
>  <Dataset>  (338) 
ChEMBL_Kinases

>  <Ligand_Instance>  (338) 
nan

>  <PDB_ID>  (338) 
nan

>  <Standardized_SMILES>  (338) 
C[C@H](Nc1cc2c(C3CCCN(CCC(N)=O)C3)noc2cn1)c1ccccc1

>  <Name>  (338) 
nan

>  <Pocket>  (338) 
nan

>  <ATP_Site>  (338) 
nan

>  <Peripheral>  (338) 
nan

>  <Num_H_Atoms_ProtBoundConf>  (338) 
nan

>  <Num_Resolved_Atoms>  (338) 
nan

>  <Num_Not_Resolved_Atoms>  (338) 
nan

$$$$
CHEMBL3732118
     RDKit          3D

  0  0  0  0  0  0  0  0  0  0999 V3000
M  V30 BEGIN CTAB
M  V30 COUNTS 73 78 0 0 0
M  V30 BEGIN ATOM
M  V30 1 C 3.574893 -3.002743 3.732597 0
M  V30 2 N 3.540775 -2.509585 2.374419 0
M  V30 3 C 2.652487 -3.000453 1.498196 0
M  V30 4 N 1.666475 -3.977965 1.779823 0
M  V30 5 C 1.217118 -4.619859 2.983355 0
M  V30 6 C -0.211105 -5.157108 2.794503 0
M  V30 7 O -1.025238 -4.259174 2.110172 0
M  V30 8 C -0.503947 -3.962521 0.849204 0 CFG=1
M  V30 9 C -0.559661 -2.500377 0.603742 0
M  V30 10 C -0.943483 -2.060680 -0.644721 0
M  V30 11 C -1.016721 -0.712595 -0.939727 0
M  V30 12 C -0.714968 0.264428 -0.016719 0
M  V30 13 N -0.775871 1.642523 -0.302099 0
M  V30 14 C -0.640293 2.713548 0.674419 0
M  V30 15 C -2.084899 3.095409 1.026772 0
M  V30 16 C -2.911587 2.923157 -0.227310 0
M  V30 17 N -3.545625 1.623239 -0.285505 0
M  V30 18 C -4.283333 1.505911 -1.537867 0
M  V30 19 C -5.134438 0.279698 -1.233967 0
M  V30 20 C -5.617553 0.580980 0.177073 0
M  V30 21 C -4.664289 1.647353 0.668575 0
M  V30 22 C -2.096158 3.204856 -1.476798 0
M  V30 23 C -0.977916 2.182231 -1.627120 0
M  V30 24 C -0.337714 -0.198565 1.212779 0
M  V30 25 C -0.249205 -1.553121 1.556104 0
M  V30 26 C 0.885056 -4.542050 0.686125 0
M  V30 27 N 2.672477 -2.514046 0.246784 0
M  V30 28 C 3.492617 -1.585113 -0.213188 0
M  V30 29 C 3.367177 -1.174925 -1.597721 0
M  V30 30 C 2.385872 -1.763565 -2.361953 0
M  V30 31 C 2.201763 -1.428589 -3.687413 0
M  V30 32 N 2.972267 -0.513141 -4.288929 0
M  V30 33 C 3.955793 0.103236 -3.593120 0
M  V30 34 C 4.113768 -0.250733 -2.279013 0
M  V30 35 F 5.089561 0.372096 -1.616485 0
M  V30 36 C 4.376883 -1.120435 0.724568 0
M  V30 37 C 4.423190 -1.562078 2.018046 0
M  V30 38 O 5.258027 -1.097265 2.834647 0
M  V30 39 H 3.538642 -4.086578 3.833886 0
M  V30 40 H 2.881800 -2.422735 4.368574 0
M  V30 41 H 4.592488 -2.728997 4.167301 0
M  V30 42 H 1.179445 -3.969314 3.878246 0
M  V30 43 H 1.812243 -5.564873 3.161390 0
M  V30 44 H -0.219678 -6.165382 2.363899 0
M  V30 45 H -0.661131 -5.253948 3.824323 0
M  V30 46 H -1.148937 -4.513370 0.108915 0
M  V30 47 H -1.191568 -2.809451 -1.403611 0
M  V30 48 H -1.322029 -0.472514 -1.925000 0
M  V30 49 H -0.070887 2.417709 1.577932 0
M  V30 50 H -0.119309 3.606327 0.283998 0
M  V30 51 H -2.416316 2.332418 1.764885 0
M  V30 52 H -2.145270 4.106179 1.442582 0
M  V30 53 H -3.717669 3.683156 -0.193596 0
M  V30 54 H -4.906404 2.389739 -1.734808 0
M  V30 55 H -3.628296 1.277015 -2.381222 0
M  V30 56 H -5.955848 0.129132 -1.955443 0
M  V30 57 H -4.441537 -0.609272 -1.220136 0
M  V30 58 H -6.665528 0.914263 0.118278 0
M  V30 59 H -5.570485 -0.355134 0.749624 0
M  V30 60 H -5.141456 2.662769 0.695611 0
M  V30 61 H -4.267511 1.396502 1.650770 0
M  V30 62 H -1.660585 4.214819 -1.334590 0
M  V30 63 H -2.767878 3.205268 -2.333902 0
M  V30 64 H -0.038680 2.754702 -1.871668 0
M  V30 65 H -1.114604 1.474487 -2.428095 0
M  V30 66 H -0.072102 0.442963 2.034858 0
M  V30 67 H 0.052258 -1.899723 2.534105 0
M  V30 68 H 0.812454 -5.628249 0.703392 0
M  V30 69 H 1.257479 -4.164749 -0.295982 0
M  V30 70 H 1.715526 -2.510000 -1.964865 0
M  V30 71 H 1.426927 -1.904687 -4.265464 0
M  V30 72 H 4.575302 0.834404 -4.066031 0
M  V30 73 H 5.087684 -0.360478 0.452721 0
M  V30 END ATOM
M  V30 BEGIN BOND
M  V30 1 1 1 2
M  V30 2 1 2 3
M  V30 3 1 3 4
M  V30 4 1 4 5
M  V30 5 1 5 6
M  V30 6 1 6 7
M  V30 7 1 7 8
M  V30 8 1 8 9
M  V30 9 2 9 10
M  V30 10 1 10 11
M  V30 11 2 11 12
M  V30 12 1 12 13
M  V30 13 1 13 14
M  V30 14 1 14 15
M  V30 15 1 15 16
M  V30 16 1 16 17
M  V30 17 1 17 18
M  V30 18 1 18 19
M  V30 19 1 19 20
M  V30 20 1 20 21
M  V30 21 1 16 22
M  V30 22 1 22 23
M  V30 23 1 12 24
M  V30 24 2 24 25
M  V30 25 1 8 26
M  V30 26 2 3 27
M  V30 27 1 27 28
M  V30 28 1 28 29
M  V30 29 2 29 30
M  V30 30 1 30 31
M  V30 31 2 31 32
M  V30 32 1 32 33
M  V30 33 2 33 34
M  V30 34 1 34 35
M  V30 35 2 28 36
M  V30 36 1 36 37
M  V30 37 2 37 38
M  V30 38 1 37 2
M  V30 39 1 26 4
M  V30 40 1 34 29
M  V30 41 1 25 9
M  V30 42 1 23 13
M  V30 43 1 21 17
M  V30 44 1 1 39
M  V30 45 1 1 40
M  V30 46 1 1 41
M  V30 47 1 5 42
M  V30 48 1 5 43
M  V30 49 1 6 44
M  V30 50 1 6 45
M  V30 51 1 8 46 CFG=3
M  V30 52 1 10 47
M  V30 53 1 11 48
M  V30 54 1 14 49
M  V30 55 1 14 50
M  V30 56 1 15 51
M  V30 57 1 15 52
M  V30 58 1 16 53
M  V30 59 1 18 54
M  V30 60 1 18 55
M  V30 61 1 19 56
M  V30 62 1 19 57
M  V30 63 1 20 58
M  V30 64 1 20 59
M  V30 65 1 21 60
M  V30 66 1 21 61
M  V30 67 1 22 62
M  V30 68 1 22 63
M  V30 69 1 23 64
M  V30 70 1 23 65
M  V30 71 1 24 66
M  V30 72 1 25 67
M  V30 73 1 26 68
M  V30 74 1 26 69
M  V30 75 1 30 70
M  V30 76 1 31 71
M  V30 77 1 33 72
M  V30 78 1 36 73
M  V30 END BOND
M  V30 END CTAB
M  END
>  <Dataset>  (339) 
ChEMBL_Kinases

>  <Ligand_Instance>  (339) 
nan

>  <PDB_ID>  (339) 
nan

>  <Standardized_SMILES>  (339) 
Cn1c(N2CCO[C@@H](c3ccc(N4CCC(N5CCCC5)CC4)cc3)C2)nc(-c2ccncc2F)cc1=O

>  <Name>  (339) 
nan

>  <Pocket>  (339) 
nan

>  <ATP_Site>  (339) 
nan

>  <Peripheral>  (339) 
nan

>  <Num_H_Atoms_ProtBoundConf>  (339) 
nan

>  <Num_Resolved_Atoms>  (339) 
nan

>  <Num_Not_Resolved_Atoms>  (339) 
nan

$$$$
CHEMBL3703182
     RDKit          3D

  0  0  0  0  0  0  0  0  0  0999 V3000
M  V30 BEGIN CTAB
M  V30 COUNTS 45 48 0 0 0
M  V30 BEGIN ATOM
M  V30 1 C -1.089993 -5.057324 2.113414 0
M  V30 2 S 0.065592 -4.024087 3.039955 0
M  V30 3 C 1.061282 -3.074534 1.880986 0
M  V30 4 N 2.207494 -3.631093 1.450443 0
M  V30 5 C 2.986214 -2.935694 0.570008 0
M  V30 6 C 2.561001 -1.681348 0.155847 0
M  V30 7 C 1.390879 -1.179767 0.631881 0
M  V30 8 N 0.624509 -1.862683 1.497542 0
M  V30 9 C 0.969204 0.140803 0.180130 0
M  V30 10 C 1.814501 0.784992 -0.714038 0
M  V30 11 C 1.261503 1.995166 -1.021431 0
M  V30 12 C 1.749875 3.061314 -1.917584 0
M  V30 13 N 1.003374 4.256414 -2.092770 0
M  V30 14 O 2.830278 2.919966 -2.532749 0
M  V30 15 C 0.096535 2.061045 -0.310655 0
M  V30 16 N -0.104419 0.929871 0.436796 0
M  V30 17 C -1.217597 0.610224 1.324988 0
M  V30 18 C -2.081079 -0.500010 0.834041 0
M  V30 19 C -2.620240 -1.461770 1.824525 0
M  V30 20 N -2.065601 -1.355193 3.144827 0
M  V30 21 C -1.924049 -0.015479 3.591856 0
M  V30 22 C -0.881181 0.673528 2.773978 0
M  V30 23 C 3.100605 0.289500 -1.267086 0
M  V30 24 C 3.506014 -1.061129 -0.790673 0
M  V30 25 H -2.077068 -5.054007 2.622215 0
M  V30 26 H -1.202587 -4.644422 1.091386 0
M  V30 27 H -0.653518 -6.076936 2.050060 0
M  V30 28 H 3.884761 -3.444372 0.272114 0
M  V30 29 H 1.059319 4.788170 -3.001704 0
M  V30 30 H 0.362117 4.726273 -1.417230 0
M  V30 31 H -0.603136 2.911126 -0.327060 0
M  V30 32 H -1.897483 1.515265 1.214118 0
M  V30 33 H -1.532311 -0.988435 -0.015694 0
M  V30 34 H -3.004996 -0.145140 0.275238 0
M  V30 35 H -2.380962 -2.484454 1.451657 0
M  V30 36 H -3.722818 -1.464766 1.949913 0
M  V30 37 H -2.601240 -1.982771 3.775119 0
M  V30 38 H -2.859048 0.571276 3.526290 0
M  V30 39 H -1.558736 -0.071981 4.659138 0
M  V30 40 H -0.898316 1.739391 3.167155 0
M  V30 41 H 0.171435 0.396865 3.035113 0
M  V30 42 H 3.926589 1.010826 -1.017085 0
M  V30 43 H 3.052891 0.267554 -2.392215 0
M  V30 44 H 3.596578 -1.774030 -1.658321 0
M  V30 45 H 4.522659 -1.051146 -0.344290 0
M  V30 END ATOM
M  V30 BEGIN BOND
M  V30 1 1 1 2
M  V30 2 1 2 3
M  V30 3 2 3 4
M  V30 4 1 4 5
M  V30 5 2 5 6
M  V30 6 1 6 7
M  V30 7 2 7 8
M  V30 8 1 7 9
M  V30 9 2 9 10
M  V30 10 1 10 11
M  V30 11 1 11 12
M  V30 12 1 12 13
M  V30 13 2 12 14
M  V30 14 2 11 15
M  V30 15 1 15 16
M  V30 16 1 16 17
M  V30 17 1 17 18
M  V30 18 1 18 19
M  V30 19 1 19 20
M  V30 20 1 20 21
M  V30 21 1 21 22
M  V30 22 1 10 23
M  V30 23 1 23 24
M  V30 24 1 8 3
M  V30 25 1 16 9
M  V30 26 1 22 17
M  V30 27 1 24 6
M  V30 28 1 1 25
M  V30 29 1 1 26
M  V30 30 1 1 27
M  V30 31 1 5 28
M  V30 32 1 13 29
M  V30 33 1 13 30
M  V30 34 1 15 31
M  V30 35 1 17 32
M  V30 36 1 18 33
M  V30 37 1 18 34
M  V30 38 1 19 35
M  V30 39 1 19 36
M  V30 40 1 20 37
M  V30 41 1 21 38
M  V30 42 1 21 39
M  V30 43 1 22 40
M  V30 44 1 22 41
M  V30 45 1 23 42
M  V30 46 1 23 43
M  V30 47 1 24 44
M  V30 48 1 24 45
M  V30 END BOND
M  V30 END CTAB
M  END
>  <Dataset>  (340) 
ChEMBL_Kinases

>  <Ligand_Instance>  (340) 
nan

>  <PDB_ID>  (340) 
nan

>  <Standardized_SMILES>  (340) 
CSc1ncc2c(n1)-c1c(c(C(N)=O)cn1C1CCNCC1)CC2

>  <Name>  (340) 
nan

>  <Pocket>  (340) 
nan

>  <ATP_Site>  (340) 
nan

>  <Peripheral>  (340) 
nan

>  <Num_H_Atoms_ProtBoundConf>  (340) 
nan

>  <Num_Resolved_Atoms>  (340) 
nan

>  <Num_Not_Resolved_Atoms>  (340) 
nan

$$$$
CHEMBL3732117
     RDKit          3D

  0  0  0  0  0  0  0  0  0  0999 V3000
M  V30 BEGIN CTAB
M  V30 COUNTS 74 78 0 0 0
M  V30 BEGIN ATOM
M  V30 1 C -1.668318 -5.377543 -1.676380 0
M  V30 2 O -1.052397 -4.174270 -1.357052 0
M  V30 3 C 0.030903 -3.631481 -1.995839 0
M  V30 4 C 0.717722 -4.187227 -3.089056 0
M  V30 5 C 1.819824 -3.609417 -3.718381 0
M  V30 6 C 2.279257 -2.397474 -3.239233 0
M  V30 7 C 3.457189 -1.988080 -4.085486 0
M  V30 8 C 2.887144 -1.514588 -5.435837 0
M  V30 9 C 4.275683 -0.890429 -3.494699 0
M  V30 10 C 4.337238 -3.160354 -4.343078 0
M  V30 11 C 1.672808 -1.802550 -2.192464 0
M  V30 12 C 0.583442 -2.408283 -1.595442 0
M  V30 13 C 0.054601 -1.652483 -0.465695 0
M  V30 14 C 0.567931 -1.978572 0.728127 0
M  V30 15 C 1.555853 -2.976787 1.168060 0
M  V30 16 S -0.294271 -0.819585 1.763712 0
M  V30 17 C -1.290498 -0.007796 0.332849 0
M  V30 18 C -1.907814 0.842843 1.129558 0
M  V30 19 N -2.570320 1.754281 1.888974 0
M  V30 20 C -2.684396 1.860155 3.313064 0
M  V30 21 C -1.573651 1.211574 4.127984 0 CFG=1
M  V30 22 N -0.279086 1.765136 3.799256 0
M  V30 23 C -1.883961 1.592422 5.612199 0
M  V30 24 C -0.881738 0.992239 6.517081 0
M  V30 25 C 0.330762 1.496102 6.898373 0
M  V30 26 C 1.236559 0.917201 7.757485 0
M  V30 27 C 0.827094 -0.321406 8.271483 0
M  V30 28 C -0.395669 -0.909092 7.934346 0
M  V30 29 C -1.200573 -0.228944 7.070930 0
M  V30 30 N -2.576508 1.388916 -0.012100 0
M  V30 31 C -2.413501 0.965154 -1.271643 0
M  V30 32 C -3.109967 1.525730 -2.511203 0
M  V30 33 C -2.848225 0.959432 -3.741832 0
M  V30 34 C -3.530895 1.536778 -4.816403 0
M  V30 35 N -4.401480 2.591028 -4.667243 0
M  V30 36 C -4.550773 3.031181 -3.411599 0
M  V30 37 C -3.975755 2.598378 -2.255728 0
M  V30 38 N -1.579258 -0.038664 -1.572791 0
M  V30 39 C -0.846276 -0.706939 -0.704967 0
M  V30 40 H -2.558074 -5.264150 -2.329414 0
M  V30 41 H -1.000469 -6.088914 -2.205225 0
M  V30 42 H -1.947138 -5.899164 -0.713971 0
M  V30 43 H 0.307270 -5.150169 -3.431500 0
M  V30 44 H 2.196180 -4.217301 -4.546073 0
M  V30 45 H 3.029164 -2.345161 -6.170674 0
M  V30 46 H 3.504918 -0.672745 -5.769597 0
M  V30 47 H 1.815627 -1.282402 -5.352129 0
M  V30 48 H 4.430636 -0.121421 -4.315572 0
M  V30 49 H 5.328209 -1.258322 -3.315719 0
M  V30 50 H 3.875336 -0.379306 -2.625590 0
M  V30 51 H 5.415483 -2.882582 -4.331171 0
M  V30 52 H 4.113404 -4.015934 -3.647376 0
M  V30 53 H 4.126066 -3.553652 -5.363313 0
M  V30 54 H 2.101398 -0.871717 -1.902100 0
M  V30 55 H 1.147516 -3.683444 1.913196 0
M  V30 56 H 2.347457 -2.414280 1.706551 0
M  V30 57 H 1.998408 -3.407242 0.278836 0
M  V30 58 H -3.146032 2.582085 1.797747 0
M  V30 59 H -3.654031 1.401273 3.696584 0
M  V30 60 H -2.732472 2.944285 3.682598 0
M  V30 61 H -1.639028 0.139844 4.052714 0
M  V30 62 H -0.225498 2.752844 4.119926 0
M  V30 63 H 0.414641 1.193493 4.359516 0
M  V30 64 H -2.917055 1.229102 5.823301 0
M  V30 65 H -1.939501 2.696340 5.676661 0
M  V30 66 H 0.584966 2.467841 6.455258 0
M  V30 67 H 2.168775 1.377613 8.005424 0
M  V30 68 H 1.547578 -0.793309 8.959645 0
M  V30 69 H -0.545018 -1.858797 8.424821 0
M  V30 70 H -2.122613 -0.809141 6.902601 0
M  V30 71 H -2.179158 0.145003 -3.868189 0
M  V30 72 H -3.307737 1.074340 -5.774208 0
M  V30 73 H -5.254897 3.877050 -3.373101 0
M  V30 74 H -4.166779 3.026252 -1.288326 0
M  V30 END ATOM
M  V30 BEGIN BOND
M  V30 1 1 1 2
M  V30 2 1 2 3
M  V30 3 2 3 4
M  V30 4 1 4 5
M  V30 5 2 5 6
M  V30 6 1 6 7
M  V30 7 1 7 8
M  V30 8 1 7 9
M  V30 9 1 7 10
M  V30 10 1 6 11
M  V30 11 2 11 12
M  V30 12 1 12 13
M  V30 13 2 13 14
M  V30 14 1 14 15
M  V30 15 1 14 16
M  V30 16 1 16 17
M  V30 17 2 17 18
M  V30 18 1 18 19
M  V30 19 1 19 20
M  V30 20 1 20 21
M  V30 21 1 21 22
M  V30 22 1 21 23
M  V30 23 1 23 24
M  V30 24 2 24 25
M  V30 25 1 25 26
M  V30 26 2 26 27
M  V30 27 1 27 28
M  V30 28 2 28 29
M  V30 29 1 18 30
M  V30 30 2 30 31
M  V30 31 1 31 32
M  V30 32 2 32 33
M  V30 33 1 33 34
M  V30 34 2 34 35
M  V30 35 1 35 36
M  V30 36 2 36 37
M  V30 37 1 31 38
M  V30 38 2 38 39
M  V30 39 1 12 3
M  V30 40 1 39 13
M  V30 41 1 39 17
M  V30 42 1 29 24
M  V30 43 1 37 32
M  V30 44 1 1 40
M  V30 45 1 1 41
M  V30 46 1 1 42
M  V30 47 1 4 43
M  V30 48 1 5 44
M  V30 49 1 8 45
M  V30 50 1 8 46
M  V30 51 1 8 47
M  V30 52 1 9 48
M  V30 53 1 9 49
M  V30 54 1 9 50
M  V30 55 1 10 51
M  V30 56 1 10 52
M  V30 57 1 10 53
M  V30 58 1 11 54
M  V30 59 1 15 55
M  V30 60 1 15 56
M  V30 61 1 15 57
M  V30 62 1 19 58
M  V30 63 1 20 59
M  V30 64 1 20 60
M  V30 65 1 21 61 CFG=1
M  V30 66 1 22 62
M  V30 67 1 22 63
M  V30 68 1 23 64
M  V30 69 1 23 65
M  V30 70 1 25 66
M  V30 71 1 26 67
M  V30 72 1 27 68
M  V30 73 1 28 69
M  V30 74 1 29 70
M  V30 75 1 33 71
M  V30 76 1 34 72
M  V30 77 1 36 73
M  V30 78 1 37 74
M  V30 END BOND
M  V30 END CTAB
M  END
>  <Dataset>  (341) 
ChEMBL_Kinases

>  <Ligand_Instance>  (341) 
nan

>  <PDB_ID>  (341) 
nan

>  <Standardized_SMILES>  (341) 
COc1ccc(C(C)(C)C)cc1-c1c(C)sc2c(NC[C@@H](N)Cc3ccccc3)nc(-c3ccncc3)nc12

>  <Name>  (341) 
nan

>  <Pocket>  (341) 
nan

>  <ATP_Site>  (341) 
nan

>  <Peripheral>  (341) 
nan

>  <Num_H_Atoms_ProtBoundConf>  (341) 
nan

>  <Num_Resolved_Atoms>  (341) 
nan

>  <Num_Not_Resolved_Atoms>  (341) 
nan

$$$$
CHEMBL3732082
     RDKit          3D

  0  0  0  0  0  0  0  0  0  0999 V3000
M  V30 BEGIN CTAB
M  V30 COUNTS 32 34 0 0 0
M  V30 BEGIN ATOM
M  V30 1 N 0.870599 -2.588985 4.543291 0
M  V30 2 C 0.757232 -3.707076 3.645209 0
M  V30 3 C -0.414380 -3.535341 2.673316 0
M  V30 4 N -0.364312 -2.417591 1.836825 0
M  V30 5 C -0.314957 -1.319110 1.014649 0
M  V30 6 N 0.514029 -0.825757 0.090768 0
M  V30 7 C 0.276873 0.320729 -0.558166 0
M  V30 8 C 1.259274 0.739488 -1.535115 0
M  V30 9 C 2.384986 -0.008843 -1.782574 0
M  V30 10 C 3.267145 0.447119 -2.717674 0
M  V30 11 N 3.050406 1.596454 -3.384954 0
M  V30 12 C 1.952907 2.318141 -3.137862 0
M  V30 13 C 1.007072 1.910586 -2.193145 0
M  V30 14 N -0.825167 1.010280 -0.284409 0
M  V30 15 C -1.743657 0.645262 0.610234 0
M  V30 16 C -2.862130 1.366691 0.873327 0
M  V30 17 Br -3.483519 3.002822 0.144062 0
M  V30 18 C -3.739853 0.860826 1.839846 0
M  V30 19 S -2.919654 -0.722526 2.394677 0
M  V30 20 C -1.434750 -0.583919 1.268070 0
M  V30 21 H 1.346560 -1.769076 4.154979 0
M  V30 22 H 0.073720 -2.437241 5.164308 0
M  V30 23 H 0.627195 -4.621494 4.257490 0
M  V30 24 H 1.699423 -3.810949 3.087605 0
M  V30 25 H -1.364683 -3.569879 3.301608 0
M  V30 26 H -0.506416 -4.499086 2.128451 0
M  V30 27 H 0.570515 -2.811700 1.467304 0
M  V30 28 H 2.545091 -0.934394 -1.235882 0
M  V30 29 H 4.146166 -0.162207 -2.893282 0
M  V30 30 H 1.806513 3.238031 -3.690240 0
M  V30 31 H 0.124905 2.484887 -1.990591 0
M  V30 32 H -4.609245 1.039560 2.315246 0
M  V30 END ATOM
M  V30 BEGIN BOND
M  V30 1 1 1 2
M  V30 2 1 2 3
M  V30 3 1 3 4
M  V30 4 1 4 5
M  V30 5 2 5 6
M  V30 6 1 6 7
M  V30 7 1 7 8
M  V30 8 2 8 9
M  V30 9 1 9 10
M  V30 10 2 10 11
M  V30 11 1 11 12
M  V30 12 2 12 13
M  V30 13 2 7 14
M  V30 14 1 14 15
M  V30 15 1 15 16
M  V30 16 1 16 17
M  V30 17 2 16 18
M  V30 18 1 18 19
M  V30 19 1 19 20
M  V30 20 1 20 5
M  V30 21 1 13 8
M  V30 22 2 20 15
M  V30 23 1 1 21
M  V30 24 1 1 22
M  V30 25 1 2 23
M  V30 26 1 2 24
M  V30 27 1 3 25
M  V30 28 1 3 26
M  V30 29 1 4 27
M  V30 30 1 9 28
M  V30 31 1 10 29
M  V30 32 1 12 30
M  V30 33 1 13 31
M  V30 34 1 18 32
M  V30 END BOND
M  V30 END CTAB
M  END
>  <Dataset>  (342) 
ChEMBL_Kinases

>  <Ligand_Instance>  (342) 
nan

>  <PDB_ID>  (342) 
nan

>  <Standardized_SMILES>  (342) 
NCCNc1nc(-c2ccncc2)nc2c(Br)csc12

>  <Name>  (342) 
nan

>  <Pocket>  (342) 
nan

>  <ATP_Site>  (342) 
nan

>  <Peripheral>  (342) 
nan

>  <Num_H_Atoms_ProtBoundConf>  (342) 
nan

>  <Num_Resolved_Atoms>  (342) 
nan

>  <Num_Not_Resolved_Atoms>  (342) 
nan

$$$$
CHEMBL3732078
     RDKit          3D

  0  0  0  0  0  0  0  0  0  0999 V3000
M  V30 BEGIN CTAB
M  V30 COUNTS 31 34 0 0 0
M  V30 BEGIN ATOM
M  V30 1 C -2.083762 -3.162145 4.201618 0
M  V30 2 N -1.913108 -3.228401 2.752095 0
M  V30 3 C -1.193090 -2.340759 2.039397 0
M  V30 4 C -1.252222 -2.713080 0.711847 0
M  V30 5 C -0.585108 -1.979394 -0.359305 0
M  V30 6 C -0.662873 -2.376543 -1.676726 0
M  V30 7 C 0.021540 -1.585528 -2.598090 0
M  V30 8 C 0.741963 -0.464586 -2.233608 0
M  V30 9 N 1.466132 0.436175 -2.913211 0
M  V30 10 C 1.971714 1.355598 -2.042985 0
M  V30 11 C 1.516507 0.968246 -0.788005 0
M  V30 12 C 1.808189 1.649595 0.412195 0
M  V30 13 C 2.534485 2.757155 0.674783 0
M  V30 14 C 2.693458 3.259430 1.934676 0
M  V30 15 C 2.020452 2.514055 2.991265 0
M  V30 16 S 1.196185 1.112579 2.024559 0
M  V30 17 N 0.770892 -0.140679 -0.928216 0
M  V30 18 N 0.122569 -0.888134 -0.046878 0
M  V30 19 C -2.026500 -3.848599 0.640404 0
M  V30 20 N -2.396048 -4.108721 1.911022 0
M  V30 21 H -1.212202 -3.569537 4.743307 0
M  V30 22 H -3.051780 -3.589842 4.479569 0
M  V30 23 H -2.128819 -2.074901 4.503630 0
M  V30 24 H -0.669409 -1.489757 2.471848 0
M  V30 25 H -1.226616 -3.253681 -1.961877 0
M  V30 26 H -0.011384 -1.862955 -3.661690 0
M  V30 27 H 2.602340 2.224915 -2.241729 0
M  V30 28 H 3.002037 3.252030 -0.165309 0
M  V30 29 H 3.260064 4.136191 2.198436 0
M  V30 30 H 2.110125 2.882404 4.095511 0
M  V30 31 H -2.271096 -4.395445 -0.253069 0
M  V30 END ATOM
M  V30 BEGIN BOND
M  V30 1 1 1 2
M  V30 2 1 2 3
M  V30 3 2 3 4
M  V30 4 1 4 5
M  V30 5 1 5 6
M  V30 6 2 6 7
M  V30 7 1 7 8
M  V30 8 2 8 9
M  V30 9 1 9 10
M  V30 10 2 10 11
M  V30 11 1 11 12
M  V30 12 2 12 13
M  V30 13 1 13 14
M  V30 14 2 14 15
M  V30 15 1 15 16
M  V30 16 1 11 17
M  V30 17 1 17 18
M  V30 18 1 4 19
M  V30 19 2 19 20
M  V30 20 1 20 2
M  V30 21 2 18 5
M  V30 22 1 17 8
M  V30 23 1 16 12
M  V30 24 1 1 21
M  V30 25 1 1 22
M  V30 26 1 1 23
M  V30 27 1 3 24
M  V30 28 1 6 25
M  V30 29 1 7 26
M  V30 30 1 10 27
M  V30 31 1 13 28
M  V30 32 1 14 29
M  V30 33 1 15 30
M  V30 34 1 19 31
M  V30 END BOND
M  V30 END CTAB
M  END
>  <Dataset>  (343) 
ChEMBL_Kinases

>  <Ligand_Instance>  (343) 
nan

>  <PDB_ID>  (343) 
nan

>  <Standardized_SMILES>  (343) 
Cn1cc(-c2ccc3ncc(-c4cccs4)n3n2)cn1

>  <Name>  (343) 
nan

>  <Pocket>  (343) 
nan

>  <ATP_Site>  (343) 
nan

>  <Peripheral>  (343) 
nan

>  <Num_H_Atoms_ProtBoundConf>  (343) 
nan

>  <Num_Resolved_Atoms>  (343) 
nan

>  <Num_Not_Resolved_Atoms>  (343) 
nan

$$$$
CHEMBL3732076
     RDKit          3D

  0  0  0  0  0  0  0  0  0  0999 V3000
M  V30 BEGIN CTAB
M  V30 COUNTS 39 40 0 0 0
M  V30 BEGIN ATOM
M  V30 1 C -1.013037 -3.876963 1.759353 0
M  V30 2 C -0.566350 -4.298298 0.376847 0
M  V30 3 C 0.785272 -3.851383 0.022755 0
M  V30 4 C 1.844569 -4.690768 0.332807 0
M  V30 5 C 3.127094 -4.299123 0.012863 0
M  V30 6 C 3.358768 -3.094808 -0.604726 0
M  V30 7 C 2.328589 -2.208220 -0.940912 0
M  V30 8 N 2.553599 -0.960426 -1.582624 0
M  V30 9 C 1.520749 -0.028879 -1.931839 0
M  V30 10 C 0.850651 0.390028 -0.648149 0
M  V30 11 O 0.911367 0.186434 0.590957 0
M  V30 12 N -0.209056 1.325807 -0.854342 0
M  V30 13 N -0.908301 1.791300 0.253365 0
M  V30 14 C -0.466024 2.627423 1.115881 0
M  V30 15 C -1.118655 3.173980 2.304753 0
M  V30 16 C -0.474342 4.087250 3.139765 0
M  V30 17 C -1.185403 4.539294 4.236838 0
M  V30 18 N -2.421021 4.170425 4.547102 0
M  V30 19 C -3.079659 3.292106 3.769929 0
M  V30 20 C -2.397181 2.815396 2.657715 0
M  V30 21 C 1.068506 -2.652139 -0.597463 0
M  V30 22 H -0.577477 -2.912259 2.053623 0
M  V30 23 H -0.714825 -4.655537 2.510567 0
M  V30 24 H -2.141657 -3.872847 1.758700 0
M  V30 25 H -1.259012 -3.911905 -0.408162 0
M  V30 26 H -0.608732 -5.422490 0.282623 0
M  V30 27 H 1.690434 -5.642557 0.818080 0
M  V30 28 H 3.996206 -4.935905 0.241586 0
M  V30 29 H 4.374807 -2.811767 -0.844734 0
M  V30 30 H 3.573177 -0.744427 -1.799768 0
M  V30 31 H 0.776452 -0.446506 -2.639115 0
M  V30 32 H 1.982120 0.880793 -2.365155 0
M  V30 33 H -0.585890 1.759313 -1.751727 0
M  V30 34 H 0.547034 2.961132 0.904841 0
M  V30 35 H 0.537507 4.412765 2.918118 0
M  V30 36 H -0.690454 5.256676 4.900141 0
M  V30 37 H -4.093663 2.963104 3.988195 0
M  V30 38 H -2.927519 2.102472 2.024030 0
M  V30 39 H 0.198317 -2.059296 -0.806608 0
M  V30 END ATOM
M  V30 BEGIN BOND
M  V30 1 1 1 2
M  V30 2 1 2 3
M  V30 3 2 3 4
M  V30 4 1 4 5
M  V30 5 2 5 6
M  V30 6 1 6 7
M  V30 7 1 7 8
M  V30 8 1 8 9
M  V30 9 1 9 10
M  V30 10 2 10 11
M  V30 11 1 10 12
M  V30 12 1 12 13
M  V30 13 2 13 14
M  V30 14 1 14 15
M  V30 15 2 15 16
M  V30 16 1 16 17
M  V30 17 2 17 18
M  V30 18 1 18 19
M  V30 19 2 19 20
M  V30 20 2 7 21
M  V30 21 1 21 3
M  V30 22 1 20 15
M  V30 23 1 1 22
M  V30 24 1 1 23
M  V30 25 1 1 24
M  V30 26 1 2 25
M  V30 27 1 2 26
M  V30 28 1 4 27
M  V30 29 1 5 28
M  V30 30 1 6 29
M  V30 31 1 8 30
M  V30 32 1 9 31
M  V30 33 1 9 32
M  V30 34 1 12 33
M  V30 35 1 14 34
M  V30 36 1 16 35
M  V30 37 1 17 36
M  V30 38 1 19 37
M  V30 39 1 20 38
M  V30 40 1 21 39
M  V30 END BOND
M  V30 END CTAB
M  END
>  <Dataset>  (344) 
ChEMBL_Kinases

>  <Ligand_Instance>  (344) 
nan

>  <PDB_ID>  (344) 
nan

>  <Standardized_SMILES>  (344) 
CCc1cccc(NCC(=O)N/N=C/c2ccncc2)c1

>  <Name>  (344) 
nan

>  <Pocket>  (344) 
nan

>  <ATP_Site>  (344) 
nan

>  <Peripheral>  (344) 
nan

>  <Num_H_Atoms_ProtBoundConf>  (344) 
nan

>  <Num_Resolved_Atoms>  (344) 
nan

>  <Num_Not_Resolved_Atoms>  (344) 
nan

$$$$
CHEMBL3732073
     RDKit          3D

  0  0  0  0  0  0  0  0  0  0999 V3000
M  V30 BEGIN CTAB
M  V30 COUNTS 33 34 0 0 0
M  V30 BEGIN ATOM
M  V30 1 O -0.440203 0.138784 3.028400 0
M  V30 2 C 0.541824 0.044025 2.211295 0
M  V30 3 C 1.684012 -0.476293 2.957021 0
M  V30 4 N 2.893640 -0.672670 2.225799 0
M  V30 5 C 3.004184 -1.602932 1.158506 0
M  V30 6 C 1.997738 -2.422497 0.704885 0
M  V30 7 C 2.158537 -3.309889 -0.337640 0
M  V30 8 C 3.373695 -3.407149 -0.979901 0
M  V30 9 C 4.414488 -2.623167 -0.580386 0
M  V30 10 Br 6.115956 -2.713628 -1.429645 0
M  V30 11 C 4.194965 -1.756920 0.464877 0
M  V30 12 N 0.324637 0.434097 0.867905 0
M  V30 13 N -0.972426 0.886711 0.583765 0
M  V30 14 C -1.917255 0.150999 0.125971 0
M  V30 15 C -3.245067 0.684070 -0.148489 0
M  V30 16 C -4.250563 -0.122593 -0.641277 0
M  V30 17 C -5.513406 0.412057 -0.895796 0
M  V30 18 N -5.738439 1.717055 -0.656345 0
M  V30 19 C -4.750311 2.478937 -0.179330 0
M  V30 20 C -3.478946 2.020104 0.095606 0
M  V30 21 H 1.395007 -1.498895 3.344551 0
M  V30 22 H 1.882352 0.096006 3.907403 0
M  V30 23 H 3.727063 -0.117691 2.478876 0
M  V30 24 H 1.033703 -2.357378 1.201220 0
M  V30 25 H 1.357323 -3.943429 -0.678057 0
M  V30 26 H 3.558912 -4.087384 -1.806365 0
M  V30 27 H 5.049760 -1.139996 0.763492 0
M  V30 28 H 1.203872 0.311478 0.315013 0
M  V30 29 H -1.662464 -0.886763 -0.041595 0
M  V30 30 H -3.982925 -1.167828 -0.806735 0
M  V30 31 H -6.257568 -0.279504 -1.282769 0
M  V30 32 H -5.014176 3.517024 -0.014416 0
M  V30 33 H -2.746940 2.713183 0.479269 0
M  V30 END ATOM
M  V30 BEGIN BOND
M  V30 1 2 1 2
M  V30 2 1 2 3
M  V30 3 1 3 4
M  V30 4 1 4 5
M  V30 5 2 5 6
M  V30 6 1 6 7
M  V30 7 2 7 8
M  V30 8 1 8 9
M  V30 9 1 9 10
M  V30 10 2 9 11
M  V30 11 1 2 12
M  V30 12 1 12 13
M  V30 13 2 13 14
M  V30 14 1 14 15
M  V30 15 2 15 16
M  V30 16 1 16 17
M  V30 17 2 17 18
M  V30 18 1 18 19
M  V30 19 2 19 20
M  V30 20 1 11 5
M  V30 21 1 20 15
M  V30 22 1 3 21
M  V30 23 1 3 22
M  V30 24 1 4 23
M  V30 25 1 6 24
M  V30 26 1 7 25
M  V30 27 1 8 26
M  V30 28 1 11 27
M  V30 29 1 12 28
M  V30 30 1 14 29
M  V30 31 1 16 30
M  V30 32 1 17 31
M  V30 33 1 19 32
M  V30 34 1 20 33
M  V30 END BOND
M  V30 END CTAB
M  END
>  <Dataset>  (345) 
ChEMBL_Kinases

>  <Ligand_Instance>  (345) 
nan

>  <PDB_ID>  (345) 
nan

>  <Standardized_SMILES>  (345) 
O=C(CNc1cccc(Br)c1)N/N=C/c1ccncc1

>  <Name>  (345) 
nan

>  <Pocket>  (345) 
nan

>  <ATP_Site>  (345) 
nan

>  <Peripheral>  (345) 
nan

>  <Num_H_Atoms_ProtBoundConf>  (345) 
nan

>  <Num_Resolved_Atoms>  (345) 
nan

>  <Num_Not_Resolved_Atoms>  (345) 
nan

$$$$
CHEMBL3732066
     RDKit          3D

  0  0  0  0  0  0  0  0  0  0999 V3000
M  V30 BEGIN CTAB
M  V30 COUNTS 49 53 0 0 0
M  V30 BEGIN ATOM
M  V30 1 C 1.239338 -2.290744 -1.988151 0
M  V30 2 N 0.012004 -2.741950 -1.368006 0
M  V30 3 C -0.373224 -2.366417 -0.134007 0
M  V30 4 N 0.558444 -1.507341 0.510330 0
M  V30 5 C 1.228844 -2.235726 1.581063 0
M  V30 6 C 2.527038 -1.574005 1.977853 0
M  V30 7 O 2.367038 -0.258310 2.365338 0
M  V30 8 C 1.287023 0.388314 1.788364 0 CFG=1
M  V30 9 C 1.655562 1.821382 1.650296 0
M  V30 10 C 1.502008 2.649124 0.549392 0
M  V30 11 C 1.985385 3.879159 0.906682 0
M  V30 12 C 2.061181 5.048016 0.174023 0
M  V30 13 C 2.594545 6.175824 0.761097 0
M  V30 14 C 3.035273 6.086963 2.065471 0
M  V30 15 C 2.948709 4.899536 2.778072 0
M  V30 16 C 2.414927 3.753074 2.210206 0
M  V30 17 O 2.195522 2.512005 2.600882 0
M  V30 18 C 1.023787 -0.133267 0.390254 0
M  V30 19 N -1.520206 -2.773879 0.456049 0
M  V30 20 C -2.402581 -3.605218 -0.133532 0
M  V30 21 C -3.598106 -3.981578 0.596530 0
M  V30 22 C -3.731519 -3.435414 1.852834 0
M  V30 23 C -4.851652 -3.735250 2.643035 0
M  V30 24 N -5.816954 -4.565500 2.184231 0
M  V30 25 C -5.690643 -5.098125 0.965164 0
M  V30 26 C -4.583836 -4.817999 0.148545 0
M  V30 27 F -4.497824 -5.377035 -1.068648 0
M  V30 28 C -2.004126 -3.981746 -1.387399 0
M  V30 29 C -0.846660 -3.583164 -2.009558 0
M  V30 30 O -0.583126 -3.997534 -3.170736 0
M  V30 31 H 1.233606 -2.646185 -3.047606 0
M  V30 32 H 2.139225 -2.719422 -1.545450 0
M  V30 33 H 1.274451 -1.172774 -2.087844 0
M  V30 34 H 1.385313 -3.293110 1.385489 0
M  V30 35 H 0.557025 -2.163955 2.489917 0
M  V30 36 H 3.257471 -1.743036 1.174674 0
M  V30 37 H 2.877175 -2.134875 2.892335 0
M  V30 38 H 0.373744 0.339767 2.421581 0
M  V30 39 H 1.090368 2.392616 -0.402411 0
M  V30 40 H 1.710368 5.079903 -0.847246 0
M  V30 41 H 2.632582 7.070613 0.157602 0
M  V30 42 H 3.446393 6.988192 2.502232 0
M  V30 43 H 3.297979 4.833559 3.803190 0
M  V30 44 H 0.311638 0.539099 -0.091934 0
M  V30 45 H 2.050495 -0.111840 -0.086479 0
M  V30 46 H -3.053375 -2.753019 2.370663 0
M  V30 47 H -5.015338 -3.345831 3.624353 0
M  V30 48 H -6.468607 -5.774096 0.580695 0
M  V30 49 H -2.643783 -4.646253 -1.943838 0
M  V30 END ATOM
M  V30 BEGIN BOND
M  V30 1 1 1 2
M  V30 2 1 2 3
M  V30 3 1 3 4
M  V30 4 1 4 5
M  V30 5 1 5 6
M  V30 6 1 6 7
M  V30 7 1 7 8
M  V30 8 1 8 9
M  V30 9 2 9 10
M  V30 10 1 10 11
M  V30 11 2 11 12
M  V30 12 1 12 13
M  V30 13 2 13 14
M  V30 14 1 14 15
M  V30 15 2 15 16
M  V30 16 1 16 17
M  V30 17 1 8 18
M  V30 18 2 3 19
M  V30 19 1 19 20
M  V30 20 1 20 21
M  V30 21 2 21 22
M  V30 22 1 22 23
M  V30 23 2 23 24
M  V30 24 1 24 25
M  V30 25 2 25 26
M  V30 26 1 26 27
M  V30 27 2 20 28
M  V30 28 1 28 29
M  V30 29 2 29 30
M  V30 30 1 29 2
M  V30 31 1 18 4
M  V30 32 1 26 21
M  V30 33 1 17 9
M  V30 34 1 16 11
M  V30 35 1 1 31
M  V30 36 1 1 32
M  V30 37 1 1 33
M  V30 38 1 5 34
M  V30 39 1 5 35
M  V30 40 1 6 36
M  V30 41 1 6 37
M  V30 42 1 8 38 CFG=1
M  V30 43 1 10 39
M  V30 44 1 12 40
M  V30 45 1 13 41
M  V30 46 1 14 42
M  V30 47 1 15 43
M  V30 48 1 18 44
M  V30 49 1 18 45
M  V30 50 1 22 46
M  V30 51 1 23 47
M  V30 52 1 25 48
M  V30 53 1 28 49
M  V30 END BOND
M  V30 END CTAB
M  END
>  <Dataset>  (346) 
ChEMBL_Kinases

>  <Ligand_Instance>  (346) 
nan

>  <PDB_ID>  (346) 
nan

>  <Standardized_SMILES>  (346) 
Cn1c(N2CCO[C@@H](c3cc4ccccc4o3)C2)nc(-c2ccncc2F)cc1=O

>  <Name>  (346) 
nan

>  <Pocket>  (346) 
nan

>  <ATP_Site>  (346) 
nan

>  <Peripheral>  (346) 
nan

>  <Num_H_Atoms_ProtBoundConf>  (346) 
nan

>  <Num_Resolved_Atoms>  (346) 
nan

>  <Num_Not_Resolved_Atoms>  (346) 
nan

$$$$
CHEMBL3732053
     RDKit          3D

  0  0  0  0  0  0  0  0  0  0999 V3000
M  V30 BEGIN CTAB
M  V30 COUNTS 55 59 0 0 0
M  V30 BEGIN ATOM
M  V30 1 N 2.353689 -3.038492 2.765814 0
M  V30 2 C 2.114696 -3.085331 1.330921 0 CFG=2
M  V30 3 C 0.716602 -3.598410 1.071601 0
M  V30 4 N -0.322700 -2.807999 1.637047 0
M  V30 5 C -0.468165 -1.454705 1.228125 0
M  V30 6 N 0.364765 -0.900560 0.304298 0
M  V30 7 C 0.059809 0.405770 0.046043 0
M  V30 8 C 0.895603 1.126901 -0.945718 0
M  V30 9 C 1.936353 0.469110 -1.565546 0
M  V30 10 C 2.714239 1.114318 -2.478068 0
M  V30 11 N 2.512236 2.399456 -2.815156 0
M  V30 12 C 1.503401 3.058097 -2.222641 0
M  V30 13 C 0.681207 2.460259 -1.291380 0
M  V30 14 N -0.916787 1.103106 0.596802 0
M  V30 15 C -1.768679 0.588769 1.520922 0
M  V30 16 C -2.782728 1.206953 2.134803 0
M  V30 17 N -3.195891 2.566946 1.946547 0
M  V30 18 C -4.297366 3.083484 2.674135 0
M  V30 19 C -5.630898 3.058338 2.274871 0
M  V30 20 C -6.581788 3.612297 3.115390 0
M  V30 21 N -6.246070 4.166781 4.294450 0
M  V30 22 C -4.943632 4.177542 4.657270 0
M  V30 23 N -3.979467 3.646587 3.865482 0
M  V30 24 C -3.482747 0.463799 3.021045 0
M  V30 25 S -2.673526 -1.159752 2.977933 0
M  V30 26 C -1.503619 -0.701485 1.806603 0
M  V30 27 C 3.115420 -4.016630 0.656469 0
M  V30 28 C 2.925816 -4.107681 -0.801868 0
M  V30 29 C 2.065621 -5.100476 -1.274576 0
M  V30 30 C 1.851218 -5.230194 -2.643395 0
M  V30 31 C 2.467781 -4.400522 -3.558930 0
M  V30 32 C 3.321213 -3.416992 -3.074338 0
M  V30 33 C 3.541135 -3.279795 -1.714308 0
M  V30 34 H 1.713803 -2.351972 3.184504 0
M  V30 35 H 3.341279 -2.829144 2.989550 0
M  V30 36 H 2.317926 -2.084926 0.931603 0
M  V30 37 H 0.672280 -4.643829 1.434424 0
M  V30 38 H 0.530376 -3.621616 -0.038303 0
M  V30 39 H -0.953904 -3.223959 2.332322 0
M  V30 40 H 2.127110 -0.573881 -1.314679 0
M  V30 41 H 3.533590 0.580893 -2.959844 0
M  V30 42 H 1.335574 4.094011 -2.490077 0
M  V30 43 H -0.124334 2.986980 -0.818588 0
M  V30 44 H -2.699314 3.189988 1.280044 0
M  V30 45 H -5.787360 2.594647 1.321503 0
M  V30 46 H -7.588534 3.548870 2.726530 0
M  V30 47 H -4.660217 4.621876 5.605930 0
M  V30 48 H -4.373096 0.639572 3.705200 0
M  V30 49 H 3.012828 -5.012916 1.149540 0
M  V30 50 H 4.148097 -3.700583 0.837925 0
M  V30 51 H 1.546083 -5.789449 -0.610472 0
M  V30 52 H 1.177751 -6.008038 -3.007627 0
M  V30 53 H 2.295861 -4.507707 -4.623107 0
M  V30 54 H 3.823459 -2.746676 -3.761581 0
M  V30 55 H 4.209086 -2.512568 -1.308197 0
M  V30 END ATOM
M  V30 BEGIN BOND
M  V30 1 1 1 2
M  V30 2 1 2 3
M  V30 3 1 3 4
M  V30 4 1 4 5
M  V30 5 2 5 6
M  V30 6 1 6 7
M  V30 7 1 7 8
M  V30 8 2 8 9
M  V30 9 1 9 10
M  V30 10 2 10 11
M  V30 11 1 11 12
M  V30 12 2 12 13
M  V30 13 2 7 14
M  V30 14 1 14 15
M  V30 15 1 15 16
M  V30 16 1 16 17
M  V30 17 1 17 18
M  V30 18 2 18 19
M  V30 19 1 19 20
M  V30 20 2 20 21
M  V30 21 1 21 22
M  V30 22 2 22 23
M  V30 23 2 16 24
M  V30 24 1 24 25
M  V30 25 1 25 26
M  V30 26 1 2 27
M  V30 27 1 27 28
M  V30 28 2 28 29
M  V30 29 1 29 30
M  V30 30 2 30 31
M  V30 31 1 31 32
M  V30 32 2 32 33
M  V30 33 1 26 5
M  V30 34 1 33 28
M  V30 35 1 13 8
M  V30 36 2 26 15
M  V30 37 1 23 18
M  V30 38 1 1 34
M  V30 39 1 1 35
M  V30 40 1 2 36 CFG=3
M  V30 41 1 3 37
M  V30 42 1 3 38
M  V30 43 1 4 39
M  V30 44 1 9 40
M  V30 45 1 10 41
M  V30 46 1 12 42
M  V30 47 1 13 43
M  V30 48 1 17 44
M  V30 49 1 19 45
M  V30 50 1 20 46
M  V30 51 1 22 47
M  V30 52 1 24 48
M  V30 53 1 27 49
M  V30 54 1 27 50
M  V30 55 1 29 51
M  V30 56 1 30 52
M  V30 57 1 31 53
M  V30 58 1 32 54
M  V30 59 1 33 55
M  V30 END BOND
M  V30 END CTAB
M  END
>  <Dataset>  (347) 
ChEMBL_Kinases

>  <Ligand_Instance>  (347) 
nan

>  <PDB_ID>  (347) 
nan

>  <Standardized_SMILES>  (347) 
N[C@H](CNc1nc(-c2ccncc2)nc2c(Nc3ccncn3)csc12)Cc1ccccc1

>  <Name>  (347) 
nan

>  <Pocket>  (347) 
nan

>  <ATP_Site>  (347) 
nan

>  <Peripheral>  (347) 
nan

>  <Num_H_Atoms_ProtBoundConf>  (347) 
nan

>  <Num_Resolved_Atoms>  (347) 
nan

>  <Num_Not_Resolved_Atoms>  (347) 
nan

$$$$
CHEMBL3732190
     RDKit          3D

  0  0  0  0  0  0  0  0  0  0999 V3000
M  V30 BEGIN CTAB
M  V30 COUNTS 65 69 0 0 0
M  V30 BEGIN ATOM
M  V30 1 N 1.513360 -1.686212 4.733542 0
M  V30 2 C 0.358119 -0.893212 5.069888 0 CFG=2
M  V30 3 C 0.495826 0.513332 4.467620 0
M  V30 4 N 0.587221 0.503238 3.075704 0
M  V30 5 C 0.687890 0.546556 1.662468 0
M  V30 6 N 0.913836 1.589101 0.845432 0
M  V30 7 C 0.971416 1.394658 -0.477127 0
M  V30 8 C 1.216145 2.560708 -1.316245 0
M  V30 9 C 1.254427 2.357452 -2.678247 0
M  V30 10 C 1.486219 3.522264 -3.404865 0
M  V30 11 N 1.657896 4.730984 -2.857106 0
M  V30 12 C 1.613630 4.889845 -1.519032 0
M  V30 13 C 1.386064 3.777286 -0.706054 0
M  V30 14 N 0.802009 0.165997 -0.949312 0
M  V30 15 C 0.573300 -0.939058 -0.243476 0
M  V30 16 C 0.405908 -2.152434 -0.841017 0
M  V30 17 N 0.434916 -2.540061 -2.205421 0
M  V30 18 C -0.869850 -2.422475 -2.775897 0
M  V30 19 O -1.701510 -2.000769 -1.894719 0
M  V30 20 C -1.233325 -2.726093 -4.146321 0
M  V30 21 C -0.526437 -1.957090 -5.221700 0
M  V30 22 C -1.264415 -2.299777 -6.522279 0
M  V30 23 C -0.974016 -3.750122 -6.815954 0
M  V30 24 C -0.440350 -4.492892 -5.635249 0
M  V30 25 C -1.218025 -4.212367 -4.385808 0
M  V30 26 C 0.164102 -3.199626 0.061826 0
M  V30 27 S 0.195560 -2.341105 1.751376 0
M  V30 28 C 0.513586 -0.752107 1.095630 0
M  V30 29 C 0.326205 -0.790781 6.579866 0
M  V30 30 C -0.816599 0.007875 7.090757 0
M  V30 31 C -2.007805 -0.620041 7.348042 0
M  V30 32 C -3.015263 0.201973 7.829468 0
M  V30 33 C -2.906580 1.555376 8.058758 0
M  V30 34 C -1.700095 2.165958 7.793267 0
M  V30 35 C -0.659001 1.371452 7.306209 0
M  V30 36 H 1.991199 -1.287926 3.902853 0
M  V30 37 H 1.274041 -2.672896 4.516908 0
M  V30 38 H -0.587141 -1.375251 4.757402 0
M  V30 39 H -0.404543 1.058903 4.893607 0
M  V30 40 H 1.375975 0.931885 5.045369 0
M  V30 41 H 0.727998 1.564793 3.197279 0
M  V30 42 H 1.113706 1.377135 -3.086075 0
M  V30 43 H 1.525935 3.425370 -4.490896 0
M  V30 44 H 1.747132 5.849468 -1.024522 0
M  V30 45 H 1.353128 3.923672 0.370762 0
M  V30 46 H 1.210616 -2.868238 -2.785872 0
M  V30 47 H -2.323470 -2.433003 -4.251839 0
M  V30 48 H -0.671269 -0.866099 -5.097228 0
M  V30 49 H 0.519455 -2.177261 -5.379859 0
M  V30 50 H -0.946838 -1.653948 -7.362656 0
M  V30 51 H -2.367171 -2.198005 -6.338769 0
M  V30 52 H -1.871863 -4.257455 -7.258701 0
M  V30 53 H -0.208094 -3.756556 -7.648961 0
M  V30 54 H -0.430948 -5.595522 -5.789168 0
M  V30 55 H 0.611486 -4.200469 -5.460335 0
M  V30 56 H -2.230601 -4.669160 -4.394494 0
M  V30 57 H -0.682402 -4.718676 -3.535150 0
M  V30 58 H -0.007550 -4.230080 -0.031020 0
M  V30 59 H 0.295627 -1.783060 7.062350 0
M  V30 60 H 1.260584 -0.277900 6.898057 0
M  V30 61 H -2.198261 -1.665386 7.203926 0
M  V30 62 H -3.981949 -0.266053 8.045467 0
M  V30 63 H -3.764436 2.111022 8.440595 0
M  V30 64 H -1.563452 3.223214 7.955575 0
M  V30 65 H 0.327681 1.801842 7.076160 0
M  V30 END ATOM
M  V30 BEGIN BOND
M  V30 1 1 1 2
M  V30 2 1 2 3
M  V30 3 1 3 4
M  V30 4 1 4 5
M  V30 5 2 5 6
M  V30 6 1 6 7
M  V30 7 1 7 8
M  V30 8 2 8 9
M  V30 9 1 9 10
M  V30 10 2 10 11
M  V30 11 1 11 12
M  V30 12 2 12 13
M  V30 13 2 7 14
M  V30 14 1 14 15
M  V30 15 1 15 16
M  V30 16 1 16 17
M  V30 17 1 17 18
M  V30 18 2 18 19
M  V30 19 1 18 20
M  V30 20 1 20 21
M  V30 21 1 21 22
M  V30 22 1 22 23
M  V30 23 1 23 24
M  V30 24 1 24 25
M  V30 25 2 16 26
M  V30 26 1 26 27
M  V30 27 1 27 28
M  V30 28 1 2 29
M  V30 29 1 29 30
M  V30 30 2 30 31
M  V30 31 1 31 32
M  V30 32 2 32 33
M  V30 33 1 33 34
M  V30 34 2 34 35
M  V30 35 1 28 5
M  V30 36 1 35 30
M  V30 37 1 13 8
M  V30 38 2 28 15
M  V30 39 1 25 20
M  V30 40 1 1 36
M  V30 41 1 1 37
M  V30 42 1 2 38 CFG=3
M  V30 43 1 3 39
M  V30 44 1 3 40
M  V30 45 1 4 41
M  V30 46 1 9 42
M  V30 47 1 10 43
M  V30 48 1 12 44
M  V30 49 1 13 45
M  V30 50 1 17 46
M  V30 51 1 20 47
M  V30 52 1 21 48
M  V30 53 1 21 49
M  V30 54 1 22 50
M  V30 55 1 22 51
M  V30 56 1 23 52
M  V30 57 1 23 53
M  V30 58 1 24 54
M  V30 59 1 24 55
M  V30 60 1 25 56
M  V30 61 1 25 57
M  V30 62 1 26 58
M  V30 63 1 29 59
M  V30 64 1 29 60
M  V30 65 1 31 61
M  V30 66 1 32 62
M  V30 67 1 33 63
M  V30 68 1 34 64
M  V30 69 1 35 65
M  V30 END BOND
M  V30 END CTAB
M  END
>  <Dataset>  (348) 
ChEMBL_Kinases

>  <Ligand_Instance>  (348) 
nan

>  <PDB_ID>  (348) 
nan

>  <Standardized_SMILES>  (348) 
N[C@H](CNc1nc(-c2ccncc2)nc2c(NC(=O)C3CCCCC3)csc12)Cc1ccccc1

>  <Name>  (348) 
nan

>  <Pocket>  (348) 
nan

>  <ATP_Site>  (348) 
nan

>  <Peripheral>  (348) 
nan

>  <Num_H_Atoms_ProtBoundConf>  (348) 
nan

>  <Num_Resolved_Atoms>  (348) 
nan

>  <Num_Not_Resolved_Atoms>  (348) 
nan

$$$$
CHEMBL3718128
     RDKit          3D

  0  0  0  0  0  0  0  0  0  0999 V3000
M  V30 BEGIN CTAB
M  V30 COUNTS 34 36 0 0 0
M  V30 BEGIN ATOM
M  V30 1 O 3.614185 -4.200389 4.183974 0
M  V30 2 N 2.427508 -4.489986 4.060591 0 CHG=1 VAL=4
M  V30 3 O 2.274840 -5.708453 4.718460 0 CHG=-1 VAL=1
M  V30 4 C 1.332425 -3.844431 3.424670 0
M  V30 5 C 1.464811 -2.991935 2.353099 0
M  V30 6 C 0.432255 -2.344354 1.704504 0
M  V30 7 C 0.660484 -1.452666 0.572355 0
M  V30 8 N -0.438805 -0.971130 0.118686 0
M  V30 9 N -0.557554 -0.107161 -0.978693 0
M  V30 10 C 0.501181 0.279860 -1.646658 0
M  V30 11 N 0.188704 1.151409 -2.715427 0
M  V30 12 C -1.068326 1.827818 -2.979576 0
M  V30 13 C -1.465807 2.745564 -1.890970 0
M  V30 14 C -2.236892 2.560599 -0.749186 0
M  V30 15 C -2.250710 3.786319 -0.122248 0
M  V30 16 C -1.509284 4.665175 -0.873645 0
M  V30 17 O -1.074361 3.987602 -1.903748 0
M  V30 18 S 2.188978 -0.207663 -1.295342 0
M  V30 19 C 2.099948 -1.273450 0.170205 0
M  V30 20 C -0.803425 -2.641044 2.251615 0
M  V30 21 C -1.036457 -3.477548 3.318314 0
M  V30 22 C 0.063371 -4.074955 3.894826 0
M  V30 23 Cl -0.216861 -5.145647 5.260709 0
M  V30 24 H 2.482948 -2.838413 2.015543 0
M  V30 25 H 1.000962 1.309541 -3.388953 0
M  V30 26 H -1.026477 2.318805 -3.950634 0
M  V30 27 H -1.863944 1.025546 -3.067514 0
M  V30 28 H -2.687467 1.626275 -0.490965 0
M  V30 29 H -2.760527 4.008445 0.802041 0
M  V30 30 H -1.287239 5.710763 -0.712085 0
M  V30 31 H 2.587143 -2.222335 -0.080900 0
M  V30 32 H 2.651733 -0.723432 0.969989 0
M  V30 33 H -1.676428 -2.159099 1.783744 0
M  V30 34 H -2.012518 -3.673113 3.701460 0
M  V30 END ATOM
M  V30 BEGIN BOND
M  V30 1 2 1 2
M  V30 2 1 2 3
M  V30 3 1 2 4
M  V30 4 2 4 5
M  V30 5 1 5 6
M  V30 6 1 6 7
M  V30 7 2 7 8
M  V30 8 1 8 9
M  V30 9 2 9 10
M  V30 10 1 10 11
M  V30 11 1 11 12
M  V30 12 1 12 13
M  V30 13 2 13 14
M  V30 14 1 14 15
M  V30 15 2 15 16
M  V30 16 1 16 17
M  V30 17 1 10 18
M  V30 18 1 18 19
M  V30 19 2 6 20
M  V30 20 1 20 21
M  V30 21 2 21 22
M  V30 22 1 22 23
M  V30 23 1 22 4
M  V30 24 1 19 7
M  V30 25 1 17 13
M  V30 26 1 5 24
M  V30 27 1 11 25
M  V30 28 1 12 26
M  V30 29 1 12 27
M  V30 30 1 14 28
M  V30 31 1 15 29
M  V30 32 1 16 30
M  V30 33 1 19 31
M  V30 34 1 19 32
M  V30 35 1 20 33
M  V30 36 1 21 34
M  V30 END BOND
M  V30 END CTAB
M  END
>  <Dataset>  (349) 
ChEMBL_Kinases

>  <Ligand_Instance>  (349) 
nan

>  <PDB_ID>  (349) 
nan

>  <Standardized_SMILES>  (349) 
O=[N+]([O-])c1cc(C2=NN=C(NCc3ccco3)SC2)ccc1Cl

>  <Name>  (349) 
nan

>  <Pocket>  (349) 
nan

>  <ATP_Site>  (349) 
nan

>  <Peripheral>  (349) 
nan

>  <Num_H_Atoms_ProtBoundConf>  (349) 
nan

>  <Num_Resolved_Atoms>  (349) 
nan

>  <Num_Not_Resolved_Atoms>  (349) 
nan

$$$$
CHEMBL3718126
     RDKit          3D

  0  0  0  0  0  0  0  0  0  0999 V3000
M  V30 BEGIN CTAB
M  V30 COUNTS 42 45 0 0 0
M  V30 BEGIN ATOM
M  V30 1 C -1.592797 -2.830318 0.339675 0
M  V30 2 N -1.410440 -1.437842 0.634354 0
M  V30 3 C -0.227380 -0.857613 0.848354 0
M  V30 4 N 1.004799 -1.609885 0.762010 0
M  V30 5 C 1.823467 -2.539527 1.516151 0
M  V30 6 C 2.057996 -3.853610 0.849513 0
M  V30 7 C 1.772146 -3.930450 -0.608489 0
M  V30 8 C 1.539578 -2.639130 -1.297741 0
M  V30 9 C 1.785852 -1.433640 -0.449078 0
M  V30 10 C 3.217601 -1.379167 0.054215 0
M  V30 11 C 3.163413 -1.797849 1.523899 0
M  V30 12 N -0.109933 0.450949 1.125836 0
M  V30 13 C -1.161627 1.287709 1.211319 0
M  V30 14 C -0.882717 2.680441 1.508924 0
M  V30 15 C 0.434731 3.046249 1.682956 0
M  V30 16 C 0.772955 4.351797 1.960117 0
M  V30 17 N -0.144072 5.339963 2.076640 0
M  V30 18 C -1.450114 5.015365 1.911857 0
M  V30 19 C -1.785398 3.711610 1.635825 0
M  V30 20 F -3.092678 3.437270 1.481050 0
M  V30 21 C -2.369132 0.671837 0.986969 0
M  V30 22 C -2.502992 -0.667356 0.702648 0
M  V30 23 O -3.669227 -1.130216 0.513026 0
M  V30 24 H -0.793350 -3.484860 0.702135 0
M  V30 25 H -2.543504 -3.201671 0.825388 0
M  V30 26 H -1.739461 -3.030017 -0.735264 0
M  V30 27 H 1.447266 -2.698237 2.555973 0
M  V30 28 H 3.115800 -4.140189 1.012046 0
M  V30 29 H 1.483159 -4.640519 1.421363 0
M  V30 30 H 0.860342 -4.572215 -0.740582 0
M  V30 31 H 2.556396 -4.479397 -1.200835 0
M  V30 32 H 2.141717 -2.511312 -2.232306 0
M  V30 33 H 0.474926 -2.553137 -1.660742 0
M  V30 34 H 1.528282 -0.521039 -1.024798 0
M  V30 35 H 3.566572 -0.327644 -0.012855 0
M  V30 36 H 3.861488 -2.024003 -0.545633 0
M  V30 37 H 3.941575 -2.580628 1.731832 0
M  V30 38 H 3.189013 -0.959330 2.218027 0
M  V30 39 H 1.285486 2.350705 1.618182 0
M  V30 40 H 1.806500 4.641152 2.097329 0
M  V30 41 H -2.237967 5.775062 1.993531 0
M  V30 42 H -3.253379 1.278147 1.038894 0
M  V30 END ATOM
M  V30 BEGIN BOND
M  V30 1 1 1 2
M  V30 2 1 2 3
M  V30 3 1 3 4
M  V30 4 1 4 5
M  V30 5 1 5 6
M  V30 6 1 6 7
M  V30 7 1 7 8
M  V30 8 1 8 9
M  V30 9 1 9 10
M  V30 10 1 10 11
M  V30 11 2 3 12
M  V30 12 1 12 13
M  V30 13 1 13 14
M  V30 14 2 14 15
M  V30 15 1 15 16
M  V30 16 2 16 17
M  V30 17 1 17 18
M  V30 18 2 18 19
M  V30 19 1 19 20
M  V30 20 2 13 21
M  V30 21 1 21 22
M  V30 22 2 22 23
M  V30 23 1 22 2
M  V30 24 1 9 4
M  V30 25 1 19 14
M  V30 26 1 11 5
M  V30 27 1 1 24
M  V30 28 1 1 25
M  V30 29 1 1 26
M  V30 30 1 5 27
M  V30 31 1 6 28
M  V30 32 1 6 29
M  V30 33 1 7 30
M  V30 34 1 7 31
M  V30 35 1 8 32
M  V30 36 1 8 33
M  V30 37 1 9 34
M  V30 38 1 10 35
M  V30 39 1 10 36
M  V30 40 1 11 37
M  V30 41 1 11 38
M  V30 42 1 15 39
M  V30 43 1 16 40
M  V30 44 1 18 41
M  V30 45 1 21 42
M  V30 END BOND
M  V30 END CTAB
M  END
>  <Dataset>  (350) 
ChEMBL_Kinases

>  <Ligand_Instance>  (350) 
nan

>  <PDB_ID>  (350) 
nan

>  <Standardized_SMILES>  (350) 
Cn1c(N2C3CCCC2CC3)nc(-c2ccncc2F)cc1=O

>  <Name>  (350) 
nan

>  <Pocket>  (350) 
nan

>  <ATP_Site>  (350) 
nan

>  <Peripheral>  (350) 
nan

>  <Num_H_Atoms_ProtBoundConf>  (350) 
nan

>  <Num_Resolved_Atoms>  (350) 
nan

>  <Num_Not_Resolved_Atoms>  (350) 
nan

$$$$
CHEMBL3718124
     RDKit          3D

  0  0  0  0  0  0  0  0  0  0999 V3000
M  V30 BEGIN CTAB
M  V30 COUNTS 32 34 0 0 0
M  V30 BEGIN ATOM
M  V30 1 O 6.287958 -3.661961 1.113392 0
M  V30 2 C 5.839112 -2.732784 0.408960 0
M  V30 3 O 6.052397 -1.591015 1.202133 0
M  V30 4 C 5.236047 -2.915742 -0.951834 0
M  V30 5 S 4.695647 -1.339732 -1.671350 0
M  V30 6 C 3.341622 -0.696013 -0.693306 0
M  V30 7 N 3.626088 0.123615 0.361294 0
M  V30 8 N 2.449586 0.459246 0.917658 0
M  V30 9 C 1.462484 -0.154436 0.202524 0
M  V30 10 C 0.037834 -0.033856 0.498087 0
M  V30 11 C -0.402724 0.747178 1.570247 0
M  V30 12 C -1.752094 0.852898 1.836534 0
M  V30 13 C -2.693033 0.201319 1.065247 0
M  V30 14 N -4.082694 0.337306 1.373544 0
M  V30 15 C -4.484010 0.175274 2.653665 0
M  V30 16 C -5.860830 0.354467 2.702153 0
M  V30 17 N -6.261082 0.624657 1.427318 0
M  V30 18 C -5.170367 0.612553 0.622089 0
M  V30 19 C -2.236673 -0.567578 0.007818 0
M  V30 20 C -0.882257 -0.696001 -0.289064 0
M  V30 21 N 2.012109 -0.869979 -0.794969 0
M  V30 22 H 5.545120 -1.473527 2.084855 0
M  V30 23 H 4.352810 -3.582714 -0.825374 0
M  V30 24 H 5.923446 -3.468226 -1.623870 0
M  V30 25 H 0.372923 1.253022 2.164296 0
M  V30 26 H -2.076719 1.467420 2.678577 0
M  V30 27 H -4.000183 -0.052543 3.611910 0
M  V30 28 H -6.670565 0.342306 3.425510 0
M  V30 29 H -5.006651 0.769676 -0.437387 0
M  V30 30 H -2.986678 -1.083444 -0.602153 0
M  V30 31 H -0.539736 -1.295939 -1.113138 0
M  V30 32 H 1.568996 -1.449747 -1.517994 0
M  V30 END ATOM
M  V30 BEGIN BOND
M  V30 1 2 1 2
M  V30 2 1 2 3
M  V30 3 1 2 4
M  V30 4 1 4 5
M  V30 5 1 5 6
M  V30 6 2 6 7
M  V30 7 1 7 8
M  V30 8 2 8 9
M  V30 9 1 9 10
M  V30 10 2 10 11
M  V30 11 1 11 12
M  V30 12 2 12 13
M  V30 13 1 13 14
M  V30 14 1 14 15
M  V30 15 2 15 16
M  V30 16 1 16 17
M  V30 17 2 17 18
M  V30 18 1 13 19
M  V30 19 2 19 20
M  V30 20 1 9 21
M  V30 21 1 21 6
M  V30 22 1 20 10
M  V30 23 1 18 14
M  V30 24 1 3 22
M  V30 25 1 4 23
M  V30 26 1 4 24
M  V30 27 1 11 25
M  V30 28 1 12 26
M  V30 29 1 15 27
M  V30 30 1 16 28
M  V30 31 1 18 29
M  V30 32 1 19 30
M  V30 33 1 20 31
M  V30 34 1 21 32
M  V30 END BOND
M  V30 END CTAB
M  END
>  <Dataset>  (351) 
ChEMBL_Kinases

>  <Ligand_Instance>  (351) 
nan

>  <PDB_ID>  (351) 
nan

>  <Standardized_SMILES>  (351) 
O=C(O)CSc1nnc(-c2ccc(-n3ccnc3)cc2)[nH]1

>  <Name>  (351) 
nan

>  <Pocket>  (351) 
nan

>  <ATP_Site>  (351) 
nan

>  <Peripheral>  (351) 
nan

>  <Num_H_Atoms_ProtBoundConf>  (351) 
nan

>  <Num_Resolved_Atoms>  (351) 
nan

>  <Num_Not_Resolved_Atoms>  (351) 
nan

$$$$
CHEMBL3718105
     RDKit          3D

  0  0  0  0  0  0  0  0  0  0999 V3000
M  V30 BEGIN CTAB
M  V30 COUNTS 40 43 0 0 0
M  V30 BEGIN ATOM
M  V30 1 O 1.833369 -1.259387 -2.529865 0
M  V30 2 C 1.070690 -0.545395 -1.803864 0
M  V30 3 N 0.041541 -1.219155 -1.037315 0
M  V30 4 C -0.137835 -2.653078 -1.058788 0 CFG=1
M  V30 5 C 0.608667 -3.299625 0.104652 0
M  V30 6 C -0.326614 -3.703007 1.212678 0
M  V30 7 C -1.263551 -2.544731 1.487727 0
M  V30 8 N -2.103913 -2.368874 0.360015 0
M  V30 9 C -1.589230 -2.964401 -0.863346 0
M  V30 10 C 0.992076 0.908956 -1.539660 0
M  V30 11 C 0.862445 1.949265 -2.430194 0
M  V30 12 C 0.802216 3.242634 -1.955478 0
M  V30 13 N 0.867395 3.502682 -0.630884 0
M  V30 14 C 0.993912 2.564825 0.320688 0
M  V30 15 N 1.088108 2.506187 1.659452 0
M  V30 16 C 1.207708 1.211552 2.043146 0
M  V30 17 C 1.339274 0.600062 3.385624 0
M  V30 18 C 1.574116 1.424329 4.581363 0
M  V30 19 C 0.158094 0.922841 4.362754 0
M  V30 20 N 1.184465 0.490408 0.914824 0
M  V30 21 C 1.053167 1.281629 -0.182292 0
M  V30 22 H -0.660449 -0.699868 -0.432215 0
M  V30 23 H 0.265647 -3.138052 -1.949190 0
M  V30 24 H 1.251550 -4.152486 -0.231041 0
M  V30 25 H 1.325006 -2.554865 0.546548 0
M  V30 26 H -0.850725 -4.666951 1.038055 0
M  V30 27 H 0.312043 -3.850043 2.130633 0
M  V30 28 H -1.849643 -2.732641 2.434212 0
M  V30 29 H -0.608439 -1.662603 1.641084 0
M  V30 30 H -2.583702 -1.476779 0.245697 0
M  V30 31 H -2.159541 -2.520426 -1.707359 0
M  V30 32 H -1.800473 -4.058722 -0.891735 0
M  V30 33 H 0.826650 1.589328 -3.455538 0
M  V30 34 H 0.706767 3.984410 -2.732844 0
M  V30 35 H 1.072924 3.306116 2.296273 0
M  V30 36 H 1.628491 -0.480762 3.406876 0
M  V30 37 H 1.758869 2.502456 4.533935 0
M  V30 38 H 2.066305 0.935838 5.467215 0
M  V30 39 H -0.217852 0.077584 4.949794 0
M  V30 40 H -0.536048 1.702302 4.014192 0
M  V30 END ATOM
M  V30 BEGIN BOND
M  V30 1 2 1 2
M  V30 2 1 2 3
M  V30 3 1 3 4
M  V30 4 1 4 5
M  V30 5 1 5 6
M  V30 6 1 6 7
M  V30 7 1 7 8
M  V30 8 1 8 9
M  V30 9 1 2 10
M  V30 10 2 10 11
M  V30 11 1 11 12
M  V30 12 2 12 13
M  V30 13 1 13 14
M  V30 14 1 14 15
M  V30 15 1 15 16
M  V30 16 1 16 17
M  V30 17 1 17 18
M  V30 18 1 18 19
M  V30 19 2 16 20
M  V30 20 1 20 21
M  V30 21 1 9 4
M  V30 22 1 21 10
M  V30 23 2 21 14
M  V30 24 1 19 17
M  V30 25 1 3 22
M  V30 26 1 4 23 CFG=3
M  V30 27 1 5 24
M  V30 28 1 5 25
M  V30 29 1 6 26
M  V30 30 1 6 27
M  V30 31 1 7 28
M  V30 32 1 7 29
M  V30 33 1 8 30
M  V30 34 1 9 31
M  V30 35 1 9 32
M  V30 36 1 11 33
M  V30 37 1 12 34
M  V30 38 1 15 35
M  V30 39 1 17 36
M  V30 40 1 18 37
M  V30 41 1 18 38
M  V30 42 1 19 39
M  V30 43 1 19 40
M  V30 END BOND
M  V30 END CTAB
M  END
>  <Dataset>  (352) 
ChEMBL_Kinases

>  <Ligand_Instance>  (352) 
nan

>  <PDB_ID>  (352) 
nan

>  <Standardized_SMILES>  (352) 
O=C(N[C@H]1CCCNC1)c1ccnc2[nH]c(C3CC3)nc12

>  <Name>  (352) 
nan

>  <Pocket>  (352) 
nan

>  <ATP_Site>  (352) 
nan

>  <Peripheral>  (352) 
nan

>  <Num_H_Atoms_ProtBoundConf>  (352) 
nan

>  <Num_Resolved_Atoms>  (352) 
nan

>  <Num_Not_Resolved_Atoms>  (352) 
nan

$$$$
CHEMBL3718092
     RDKit          3D

  0  0  0  0  0  0  0  0  0  0999 V3000
M  V30 BEGIN CTAB
M  V30 COUNTS 45 48 0 0 0
M  V30 BEGIN ATOM
M  V30 1 O 0.599069 -2.559228 3.070545 0
M  V30 2 C 0.838369 -1.413314 2.605928 0
M  V30 3 N 1.575657 -1.429290 1.371386 0
M  V30 4 C 1.922768 -2.719183 0.860760 0
M  V30 5 C 2.687639 -2.538703 -0.435248 0
M  V30 6 C 1.840571 -1.817578 -1.433864 0
M  V30 7 C 0.982702 -2.802786 -2.215977 0
M  V30 8 N 1.738986 -3.818705 -2.881522 0
M  V30 9 C 3.124706 -3.758032 -2.493866 0
M  V30 10 C 3.181827 -3.862364 -0.992549 0
M  V30 11 C 0.483294 -0.074553 3.126765 0
M  V30 12 C 1.253167 0.409872 4.139058 0
M  V30 13 C 0.930116 1.666042 4.636628 0
M  V30 14 C -0.140797 2.354950 4.089929 0
M  V30 15 O -0.474358 3.623625 4.585818 0
M  V30 16 C -0.922663 1.872024 3.067794 0
M  V30 17 N -1.986384 2.286457 2.354514 0
M  V30 18 C -2.329215 1.358895 1.453954 0
M  V30 19 C -3.446051 1.501409 0.520318 0
M  V30 20 C -3.543825 2.902847 -0.136451 0
M  V30 21 C -4.615758 2.333729 0.800527 0
M  V30 22 N -1.462796 0.352519 1.612346 0
M  V30 23 C -0.588911 0.627439 2.587219 0
M  V30 24 H 1.825569 -0.526758 0.904411 0
M  V30 25 H 1.040832 -3.382319 0.718910 0
M  V30 26 H 2.592962 -3.280915 1.573242 0
M  V30 27 H 3.569864 -1.911513 -0.176180 0
M  V30 28 H 2.402093 -1.141391 -2.103821 0
M  V30 29 H 1.120837 -1.177848 -0.890871 0
M  V30 30 H 0.345157 -2.206081 -2.931091 0
M  V30 31 H 0.293356 -3.275340 -1.487794 0
M  V30 32 H 1.359676 -4.770540 -2.675423 0
M  V30 33 H 3.527041 -2.762541 -2.793672 0
M  V30 34 H 3.738121 -4.497933 -3.026348 0
M  V30 35 H 4.265692 -4.015876 -0.734692 0
M  V30 36 H 2.604198 -4.715167 -0.623525 0
M  V30 37 H 2.077848 -0.153423 4.539007 0
M  V30 38 H 1.515411 2.084050 5.437361 0
M  V30 39 H -0.091941 4.441662 4.109623 0
M  V30 40 H -2.384566 3.227647 2.584425 0
M  V30 41 H -3.588985 0.639523 -0.160898 0
M  V30 42 H -3.756640 2.905426 -1.225802 0
M  V30 43 H -2.926156 3.708567 0.283281 0
M  V30 44 H -5.593017 2.089607 0.327789 0
M  V30 45 H -4.756632 2.852083 1.778198 0
M  V30 END ATOM
M  V30 BEGIN BOND
M  V30 1 2 1 2
M  V30 2 1 2 3
M  V30 3 1 3 4
M  V30 4 1 4 5
M  V30 5 1 5 6
M  V30 6 1 6 7
M  V30 7 1 7 8
M  V30 8 1 8 9
M  V30 9 1 9 10
M  V30 10 1 2 11
M  V30 11 2 11 12
M  V30 12 1 12 13
M  V30 13 2 13 14
M  V30 14 1 14 15
M  V30 15 1 14 16
M  V30 16 1 16 17
M  V30 17 1 17 18
M  V30 18 1 18 19
M  V30 19 1 19 20
M  V30 20 1 20 21
M  V30 21 2 18 22
M  V30 22 1 22 23
M  V30 23 1 10 5
M  V30 24 1 23 11
M  V30 25 2 23 16
M  V30 26 1 21 19
M  V30 27 1 3 24
M  V30 28 1 4 25
M  V30 29 1 4 26
M  V30 30 1 5 27
M  V30 31 1 6 28
M  V30 32 1 6 29
M  V30 33 1 7 30
M  V30 34 1 7 31
M  V30 35 1 8 32
M  V30 36 1 9 33
M  V30 37 1 9 34
M  V30 38 1 10 35
M  V30 39 1 10 36
M  V30 40 1 12 37
M  V30 41 1 13 38
M  V30 42 1 15 39
M  V30 43 1 17 40
M  V30 44 1 19 41
M  V30 45 1 20 42
M  V30 46 1 20 43
M  V30 47 1 21 44
M  V30 48 1 21 45
M  V30 END BOND
M  V30 END CTAB
M  END
>  <Dataset>  (353) 
ChEMBL_Kinases

>  <Ligand_Instance>  (353) 
nan

>  <PDB_ID>  (353) 
nan

>  <Standardized_SMILES>  (353) 
O=C(NCC1CCNCC1)c1ccc(O)c2[nH]c(C3CC3)nc12

>  <Name>  (353) 
nan

>  <Pocket>  (353) 
nan

>  <ATP_Site>  (353) 
nan

>  <Peripheral>  (353) 
nan

>  <Num_H_Atoms_ProtBoundConf>  (353) 
nan

>  <Num_Resolved_Atoms>  (353) 
nan

>  <Num_Not_Resolved_Atoms>  (353) 
nan

$$$$
CHEMBL3718071
     RDKit          3D

  0  0  0  0  0  0  0  0  0  0999 V3000
M  V30 BEGIN CTAB
M  V30 COUNTS 58 62 0 0 0
M  V30 BEGIN ATOM
M  V30 1 C 0.938766 -1.828075 3.101093 0
M  V30 2 O 1.564422 -0.717761 2.519372 0
M  V30 3 C 2.605460 0.007668 3.028989 0
M  V30 4 C 3.102408 -0.394451 4.255172 0
M  V30 5 C 4.158926 0.357155 4.746903 0
M  V30 6 C 4.675467 1.429227 4.060421 0
M  V30 7 C 4.145859 1.789314 2.844659 0
M  V30 8 C 3.085991 1.072962 2.301585 0
M  V30 9 N 2.569382 1.508889 1.051532 0
M  V30 10 C 1.460874 1.041505 0.282115 0
M  V30 11 C 1.417376 1.654804 -1.131164 0
M  V30 12 C 0.193492 1.058740 -1.779827 0
M  V30 13 C -0.912501 2.124388 -1.698954 0
M  V30 14 C -1.846134 1.672117 -0.588920 0
M  V30 15 C -0.944933 0.660512 0.133713 0
M  V30 16 C 0.110211 1.458191 0.866390 0
M  V30 17 N -0.397521 -0.025015 -1.052592 0
M  V30 18 C -0.600381 -1.433893 -1.191196 0
M  V30 19 N -1.854070 -1.849791 -0.835379 0
M  V30 20 C -2.226486 -3.161406 -0.905258 0
M  V30 21 C -3.586797 -3.447512 -0.503305 0
M  V30 22 C -4.379087 -2.402086 -0.067710 0
M  V30 23 C -5.702636 -2.647879 0.318946 0
M  V30 24 N -6.264330 -3.877999 0.290189 0
M  V30 25 C -5.515827 -4.917577 -0.130511 0
M  V30 26 C -4.218268 -4.664394 -0.507168 0
M  V30 27 F -3.524542 -5.747802 -0.919431 0
M  V30 28 C -1.256928 -4.000118 -1.349734 0
M  V30 29 C 0.014696 -3.634247 -1.717688 0
M  V30 30 O 0.856538 -4.467381 -2.118565 0
M  V30 31 N 0.325376 -2.304377 -1.625725 0
M  V30 32 C 1.655106 -1.929639 -1.995653 0
M  V30 33 H 1.601784 -2.688048 3.273731 0
M  V30 34 H 0.090469 -2.134354 2.429771 0
M  V30 35 H 0.467351 -1.439926 4.051113 0
M  V30 36 H 2.676450 -1.240157 4.770988 0
M  V30 37 H 4.578418 0.083549 5.691992 0
M  V30 38 H 5.511936 1.993408 4.487223 0
M  V30 39 H 4.579844 2.639164 2.336570 0
M  V30 40 H 3.061291 2.316268 0.577358 0
M  V30 41 H 1.418268 -0.037949 0.161794 0
M  V30 42 H 2.335072 1.465245 -1.692488 0
M  V30 43 H 1.341768 2.740075 -0.981071 0
M  V30 44 H 0.338627 0.879105 -2.864065 0
M  V30 45 H -0.486251 3.126148 -1.531664 0
M  V30 46 H -1.507315 2.074516 -2.624581 0
M  V30 47 H -2.062602 2.447722 0.150280 0
M  V30 48 H -2.753494 1.159494 -0.965054 0
M  V30 49 H -1.516700 0.008884 0.791123 0
M  V30 50 H 0.043073 2.561624 0.603620 0
M  V30 51 H 0.053686 1.420401 1.949035 0
M  V30 52 H -4.060720 -1.354540 0.012993 0
M  V30 53 H -6.323800 -1.826932 0.661936 0
M  V30 54 H -5.947669 -5.906418 -0.162477 0
M  V30 55 H -1.490149 -5.027986 -1.423522 0
M  V30 56 H 1.774337 -0.912038 -2.399404 0
M  V30 57 H 1.949994 -2.589531 -2.868561 0
M  V30 58 H 2.421031 -2.179644 -1.231670 0
M  V30 END ATOM
M  V30 BEGIN BOND
M  V30 1 1 1 2
M  V30 2 1 2 3
M  V30 3 2 3 4
M  V30 4 1 4 5
M  V30 5 2 5 6
M  V30 6 1 6 7
M  V30 7 2 7 8
M  V30 8 1 8 9
M  V30 9 1 9 10
M  V30 10 1 10 11
M  V30 11 1 11 12
M  V30 12 1 12 13
M  V30 13 1 13 14
M  V30 14 1 14 15
M  V30 15 1 15 16
M  V30 16 1 15 17
M  V30 17 1 17 18
M  V30 18 2 18 19
M  V30 19 1 19 20
M  V30 20 1 20 21
M  V30 21 2 21 22
M  V30 22 1 22 23
M  V30 23 2 23 24
M  V30 24 1 24 25
M  V30 25 2 25 26
M  V30 26 1 26 27
M  V30 27 2 20 28
M  V30 28 1 28 29
M  V30 29 2 29 30
M  V30 30 1 29 31
M  V30 31 1 31 32
M  V30 32 1 8 3
M  V30 33 1 16 10
M  V30 34 1 31 18
M  V30 35 1 17 12
M  V30 36 1 26 21
M  V30 37 1 1 33
M  V30 38 1 1 34
M  V30 39 1 1 35
M  V30 40 1 4 36
M  V30 41 1 5 37
M  V30 42 1 6 38
M  V30 43 1 7 39
M  V30 44 1 9 40
M  V30 45 1 10 41
M  V30 46 1 11 42
M  V30 47 1 11 43
M  V30 48 1 12 44
M  V30 49 1 13 45
M  V30 50 1 13 46
M  V30 51 1 14 47
M  V30 52 1 14 48
M  V30 53 1 15 49
M  V30 54 1 16 50
M  V30 55 1 16 51
M  V30 56 1 22 52
M  V30 57 1 23 53
M  V30 58 1 25 54
M  V30 59 1 28 55
M  V30 60 1 32 56
M  V30 61 1 32 57
M  V30 62 1 32 58
M  V30 END BOND
M  V30 END CTAB
M  END
>  <Dataset>  (354) 
ChEMBL_Kinases

>  <Ligand_Instance>  (354) 
nan

>  <PDB_ID>  (354) 
nan

>  <Standardized_SMILES>  (354) 
COc1ccccc1NC1CC2CCC(C1)N2c1nc(-c2ccncc2F)cc(=O)n1C

>  <Name>  (354) 
nan

>  <Pocket>  (354) 
nan

>  <ATP_Site>  (354) 
nan

>  <Peripheral>  (354) 
nan

>  <Num_H_Atoms_ProtBoundConf>  (354) 
nan

>  <Num_Resolved_Atoms>  (354) 
nan

>  <Num_Not_Resolved_Atoms>  (354) 
nan

$$$$
CHEMBL3718039
     RDKit          3D

  0  0  0  0  0  0  0  0  0  0999 V3000
M  V30 BEGIN CTAB
M  V30 COUNTS 43 46 0 0 0
M  V30 BEGIN ATOM
M  V30 1 O 3.043515 -0.762861 2.698000 0
M  V30 2 C 1.792797 -0.719093 2.820538 0
M  V30 3 N 0.870012 -1.675756 2.341500 0
M  V30 4 C 1.345640 -2.864031 1.614243 0
M  V30 5 C 2.085927 -2.420185 0.352518 0 CFG=2
M  V30 6 C 1.141994 -1.622264 -0.523640 0
M  V30 7 C 0.735613 -2.377769 -1.746381 0
M  V30 8 C 1.931633 -2.751399 -2.585816 0
M  V30 9 N 3.035431 -3.104563 -1.708628 0
M  V30 10 C 2.546109 -3.611603 -0.426133 0
M  V30 11 C 1.355821 0.493225 3.550673 0
M  V30 12 C 1.887753 1.042635 4.702921 0
M  V30 13 C 1.303299 2.196543 5.193763 0
M  V30 14 N 0.257154 2.799646 4.609803 0
M  V30 15 C -0.309430 2.318119 3.485525 0
M  V30 16 N -1.334399 2.694267 2.701106 0
M  V30 17 C -1.419093 1.794414 1.709912 0
M  V30 18 C -2.353522 1.729758 0.601541 0
M  V30 19 C -2.458265 0.823739 -0.407729 0
M  V30 20 C -3.429435 0.952298 -1.349707 0
M  V30 21 C -4.315085 2.136220 -1.156240 0
M  V30 22 S -3.596793 2.918156 0.405238 0
M  V30 23 N -0.461857 0.893489 1.893295 0
M  V30 24 C 0.264915 1.168885 2.988879 0
M  V30 25 H -0.160177 -1.491936 2.529113 0
M  V30 26 H 2.053798 -3.412831 2.264944 0
M  V30 27 H 0.505761 -3.514633 1.343247 0
M  V30 28 H 2.963563 -1.856685 0.665658 0
M  V30 29 H 0.203326 -1.391168 0.037693 0
M  V30 30 H 1.578171 -0.668753 -0.837711 0
M  V30 31 H 0.068598 -1.732936 -2.352874 0
M  V30 32 H 0.191409 -3.322173 -1.503507 0
M  V30 33 H 1.628078 -3.582420 -3.251859 0
M  V30 34 H 2.162660 -1.869369 -3.212440 0
M  V30 35 H 3.544599 -2.213423 -1.501238 0
M  V30 36 H 3.440443 -4.045012 0.072049 0
M  V30 37 H 1.792176 -4.387323 -0.539076 0
M  V30 38 H 2.721694 0.486920 5.092462 0
M  V30 39 H 1.774512 2.562514 6.093155 0
M  V30 40 H -1.948726 3.522181 2.834353 0
M  V30 41 H -1.752423 0.008869 -0.437479 0
M  V30 42 H -3.561125 0.263111 -2.170086 0
M  V30 43 H -5.151105 2.213814 -2.002792 0
M  V30 END ATOM
M  V30 BEGIN BOND
M  V30 1 2 1 2
M  V30 2 1 2 3
M  V30 3 1 3 4
M  V30 4 1 4 5
M  V30 5 1 5 6
M  V30 6 1 6 7
M  V30 7 1 7 8
M  V30 8 1 8 9
M  V30 9 1 9 10
M  V30 10 1 2 11
M  V30 11 2 11 12
M  V30 12 1 12 13
M  V30 13 2 13 14
M  V30 14 1 14 15
M  V30 15 1 15 16
M  V30 16 1 16 17
M  V30 17 1 17 18
M  V30 18 2 18 19
M  V30 19 1 19 20
M  V30 20 2 20 21
M  V30 21 1 21 22
M  V30 22 2 17 23
M  V30 23 1 23 24
M  V30 24 1 10 5
M  V30 25 1 24 11
M  V30 26 2 24 15
M  V30 27 1 22 18
M  V30 28 1 3 25
M  V30 29 1 4 26
M  V30 30 1 4 27
M  V30 31 1 5 28 CFG=1
M  V30 32 1 6 29
M  V30 33 1 6 30
M  V30 34 1 7 31
M  V30 35 1 7 32
M  V30 36 1 8 33
M  V30 37 1 8 34
M  V30 38 1 9 35
M  V30 39 1 10 36
M  V30 40 1 10 37
M  V30 41 1 12 38
M  V30 42 1 13 39
M  V30 43 1 16 40
M  V30 44 1 19 41
M  V30 45 1 20 42
M  V30 46 1 21 43
M  V30 END BOND
M  V30 END CTAB
M  END
>  <Dataset>  (355) 
ChEMBL_Kinases

>  <Ligand_Instance>  (355) 
nan

>  <PDB_ID>  (355) 
nan

>  <Standardized_SMILES>  (355) 
O=C(NC[C@@H]1CCCNC1)c1ccnc2[nH]c(-c3cccs3)nc12

>  <Name>  (355) 
nan

>  <Pocket>  (355) 
nan

>  <ATP_Site>  (355) 
nan

>  <Peripheral>  (355) 
nan

>  <Num_H_Atoms_ProtBoundConf>  (355) 
nan

>  <Num_Resolved_Atoms>  (355) 
nan

>  <Num_Not_Resolved_Atoms>  (355) 
nan

$$$$
CHEMBL3718009
     RDKit          3D

  0  0  0  0  0  0  0  0  0  0999 V3000
M  V30 BEGIN CTAB
M  V30 COUNTS 33 35 0 0 0
M  V30 BEGIN ATOM
M  V30 1 C 2.252444 -0.589331 3.978702 0
M  V30 2 C 1.525443 -0.282821 2.721483 0
M  V30 3 N 1.120567 -1.288199 1.939235 0
M  V30 4 C 0.462660 -1.135774 0.792750 0
M  V30 5 N 0.108916 -2.288299 0.064514 0
M  V30 6 C 0.448889 -3.586624 0.589757 0
M  V30 7 C -0.339235 -3.824395 1.855157 0
M  V30 8 O 0.053716 -5.111977 2.295482 0
M  V30 9 C 0.215231 0.163782 0.448416 0
M  V30 10 C 0.596716 1.252539 1.195280 0
M  V30 11 N 1.262112 0.981434 2.346576 0
M  V30 12 N 0.216192 2.392058 0.605615 0
M  V30 13 C -0.420258 2.079330 -0.535313 0
M  V30 14 C -0.990942 2.900444 -1.480964 0
M  V30 15 C -1.599078 2.347434 -2.588147 0
M  V30 16 C -1.609280 0.951772 -2.703258 0
M  V30 17 O -2.252670 0.488493 -3.866090 0
M  V30 18 C -1.028735 0.171523 -1.737453 0
M  V30 19 C -0.422637 0.707735 -0.635137 0
M  V30 20 H 3.078762 0.114508 4.184058 0
M  V30 21 H 2.677195 -1.603597 3.941222 0
M  V30 22 H 1.550703 -0.522452 4.854637 0
M  V30 23 H -0.367568 -2.520629 -0.817876 0
M  V30 24 H 0.303566 -4.440879 -0.078949 0
M  V30 25 H 1.563313 -3.608310 0.818234 0
M  V30 26 H -0.084295 -3.139901 2.672377 0
M  V30 27 H -1.421291 -3.751092 1.701432 0
M  V30 28 H -0.161979 -5.172540 3.255488 0
M  V30 29 H 0.410961 3.320511 1.012814 0
M  V30 30 H -0.955856 3.977242 -1.344302 0
M  V30 31 H -2.047502 2.989248 -3.331484 0
M  V30 32 H -3.073858 -0.103856 -3.731653 0
M  V30 33 H -1.131222 -0.849448 -1.987496 0
M  V30 END ATOM
M  V30 BEGIN BOND
M  V30 1 1 1 2
M  V30 2 2 2 3
M  V30 3 1 3 4
M  V30 4 1 4 5
M  V30 5 1 5 6
M  V30 6 1 6 7
M  V30 7 1 7 8
M  V30 8 2 4 9
M  V30 9 1 9 10
M  V30 10 2 10 11
M  V30 11 1 10 12
M  V30 12 1 12 13
M  V30 13 2 13 14
M  V30 14 1 14 15
M  V30 15 2 15 16
M  V30 16 1 16 17
M  V30 17 1 16 18
M  V30 18 2 18 19
M  V30 19 1 11 2
M  V30 20 1 19 13
M  V30 21 1 19 9
M  V30 22 1 1 20
M  V30 23 1 1 21
M  V30 24 1 1 22
M  V30 25 1 5 23
M  V30 26 1 6 24
M  V30 27 1 6 25
M  V30 28 1 7 26
M  V30 29 1 7 27
M  V30 30 1 8 28
M  V30 31 1 12 29
M  V30 32 1 14 30
M  V30 33 1 15 31
M  V30 34 1 17 32
M  V30 35 1 18 33
M  V30 END BOND
M  V30 END CTAB
M  END
>  <Dataset>  (356) 
ChEMBL_Kinases

>  <Ligand_Instance>  (356) 
nan

>  <PDB_ID>  (356) 
nan

>  <Standardized_SMILES>  (356) 
Cc1nc(NCCO)c2c(n1)[nH]c1ccc(O)cc12

>  <Name>  (356) 
nan

>  <Pocket>  (356) 
nan

>  <ATP_Site>  (356) 
nan

>  <Peripheral>  (356) 
nan

>  <Num_H_Atoms_ProtBoundConf>  (356) 
nan

>  <Num_Resolved_Atoms>  (356) 
nan

>  <Num_Not_Resolved_Atoms>  (356) 
nan

$$$$
CHEMBL3717995
     RDKit          3D

  0  0  0  0  0  0  0  0  0  0999 V3000
M  V30 BEGIN CTAB
M  V30 COUNTS 57 60 0 0 0
M  V30 BEGIN ATOM
M  V30 1 C -0.630122 -1.613742 3.719910 0
M  V30 2 C 0.730463 -2.044533 3.143498 0
M  V30 3 C 1.137373 -3.249331 3.987370 0
M  V30 4 N 1.591025 -0.932975 3.272763 0
M  V30 5 C 1.970636 0.418394 3.131682 0
M  V30 6 C 3.080386 1.188817 3.387560 0
M  V30 7 C 2.982965 2.530936 3.139904 0
M  V30 8 C 1.871602 3.168131 2.659088 0
M  V30 9 Cl 2.051907 4.885076 2.447092 0
M  V30 10 C 0.728621 2.421073 2.388585 0
M  V30 11 O -0.327313 3.171434 1.912901 0
M  V30 12 C -1.575650 2.629162 1.570929 0
M  V30 13 C -2.487045 3.745783 1.131668 0
M  V30 14 O -1.952135 4.396446 0.024857 0
M  V30 15 C -3.860145 3.238887 0.748264 0
M  V30 16 O -3.804284 2.372252 -0.335593 0
M  V30 17 C 0.813066 1.043027 2.636363 0
M  V30 18 C 0.545923 -2.412014 1.739565 0
M  V30 19 O -0.234242 -3.366560 1.499660 0
M  V30 20 N 1.220047 -1.715765 0.727775 0
M  V30 21 C 0.833134 -2.311968 -0.576872 0
M  V30 22 N 0.130352 -3.182546 -0.996481 0
M  V30 23 C -0.035419 -3.512116 -2.251173 0
M  V30 24 C -0.829127 -4.501397 -2.796765 0
M  V30 25 C -1.676745 -5.411833 -1.974338 0
M  V30 26 F -2.352392 -6.290546 -2.754058 0
M  V30 27 F -0.797204 -6.026571 -1.080394 0
M  V30 28 F -2.513021 -4.613613 -1.209063 0
M  V30 29 C -0.842566 -4.659572 -4.163215 0
M  V30 30 C -0.147874 -3.941785 -5.096845 0
M  V30 31 N 0.038772 -3.860025 -6.409145 0
M  V30 32 N 0.887615 -2.895253 -6.719218 0
M  V30 33 C 1.303525 -2.286546 -5.565916 0
M  V30 34 C 0.647170 -2.955868 -4.585856 0
M  V30 35 C 0.727327 -2.719745 -3.233494 0
M  V30 36 S 1.595433 -1.584281 -2.156038 0
M  V30 37 H -1.123508 -2.457310 4.270138 0
M  V30 38 H -0.541509 -0.692370 4.306122 0
M  V30 39 H -1.292084 -1.398262 2.854539 0
M  V30 40 H 2.210532 -3.094521 4.227890 0
M  V30 41 H 0.609171 -3.252476 4.962305 0
M  V30 42 H 0.935462 -4.197719 3.494898 0
M  V30 43 H 2.477447 -1.290242 3.741321 0
M  V30 44 H 3.861688 0.561593 3.753565 0
M  V30 45 H 3.955359 2.978814 3.397662 0
M  V30 46 H -1.459757 1.963389 0.665464 0
M  V30 47 H -1.981065 2.066983 2.417855 0
M  V30 48 H -2.574181 4.482196 1.986606 0
M  V30 49 H -1.015113 4.657152 0.220022 0
M  V30 50 H -4.531123 4.080511 0.524670 0
M  V30 51 H -4.326399 2.682996 1.615430 0
M  V30 52 H -3.724390 2.980681 -1.139179 0
M  V30 53 H -0.178509 0.654009 2.359436 0
M  V30 54 H 1.867743 -0.938036 0.817247 0
M  V30 55 H -1.483469 -5.455517 -4.580731 0
M  V30 56 H -0.452663 -4.510765 -7.084109 0
M  V30 57 H 2.006322 -1.455692 -5.485029 0
M  V30 END ATOM
M  V30 BEGIN BOND
M  V30 1 1 1 2
M  V30 2 1 2 3
M  V30 3 1 2 4
M  V30 4 1 4 5
M  V30 5 2 5 6
M  V30 6 1 6 7
M  V30 7 2 7 8
M  V30 8 1 8 9
M  V30 9 1 8 10
M  V30 10 1 10 11
M  V30 11 1 11 12
M  V30 12 1 12 13
M  V30 13 1 13 14
M  V30 14 1 13 15
M  V30 15 1 15 16
M  V30 16 2 10 17
M  V30 17 1 2 18
M  V30 18 2 18 19
M  V30 19 1 18 20
M  V30 20 1 20 21
M  V30 21 2 21 22
M  V30 22 1 22 23
M  V30 23 2 23 24
M  V30 24 1 24 25
M  V30 25 1 25 26
M  V30 26 1 25 27
M  V30 27 1 25 28
M  V30 28 1 24 29
M  V30 29 2 29 30
M  V30 30 1 30 31
M  V30 31 1 31 32
M  V30 32 2 32 33
M  V30 33 1 33 34
M  V30 34 2 34 35
M  V30 35 1 35 36
M  V30 36 1 17 5
M  V30 37 1 36 21
M  V30 38 1 35 23
M  V30 39 1 34 30
M  V30 40 1 1 37
M  V30 41 1 1 38
M  V30 42 1 1 39
M  V30 43 1 3 40
M  V30 44 1 3 41
M  V30 45 1 3 42
M  V30 46 1 4 43
M  V30 47 1 6 44
M  V30 48 1 7 45
M  V30 49 1 12 46
M  V30 50 1 12 47
M  V30 51 1 13 48
M  V30 52 1 14 49
M  V30 53 1 15 50
M  V30 54 1 15 51
M  V30 55 1 16 52
M  V30 56 1 17 53
M  V30 57 1 20 54
M  V30 58 1 29 55
M  V30 59 1 31 56
M  V30 60 1 33 57
M  V30 END BOND
M  V30 END CTAB
M  END
>  <Dataset>  (357) 
ChEMBL_Kinases

>  <Ligand_Instance>  (357) 
nan

>  <PDB_ID>  (357) 
nan

>  <Standardized_SMILES>  (357) 
CC(C)(Nc1ccc(Cl)c(OCC(O)CO)c1)C(=O)Nc1nc2c(C(F)(F)F)cc3[nH]ncc3c2s1

>  <Name>  (357) 
nan

>  <Pocket>  (357) 
nan

>  <ATP_Site>  (357) 
nan

>  <Peripheral>  (357) 
nan

>  <Num_H_Atoms_ProtBoundConf>  (357) 
nan

>  <Num_Resolved_Atoms>  (357) 
nan

>  <Num_Not_Resolved_Atoms>  (357) 
nan

$$$$
CHEMBL567093
     RDKit          3D

  0  0  0  0  0  0  0  0  0  0999 V3000
M  V30 BEGIN CTAB
M  V30 COUNTS 60 64 0 0 0
M  V30 BEGIN ATOM
M  V30 1 C 1.905861 -1.790031 -0.818762 0
M  V30 2 C 2.562190 -2.628300 0.183929 0
M  V30 3 C 2.814218 -1.974634 1.353353 0
M  V30 4 N 2.604292 -0.673694 1.868089 0
M  V30 5 C 2.960653 0.612844 1.461939 0
M  V30 6 C 4.309727 0.849211 1.293171 0
M  V30 7 C 5.323823 -0.145625 1.497456 0
M  V30 8 N 6.154517 -0.955916 1.674765 0
M  V30 9 C 4.790136 2.082845 0.908418 0
M  V30 10 N 3.911439 3.076169 0.694378 0
M  V30 11 C 2.595906 2.857802 0.856421 0
M  V30 12 C 2.049977 1.626701 1.246204 0
M  V30 13 C 0.633834 1.517917 1.420861 0
M  V30 14 C 0.115924 2.619209 2.130389 0
M  V30 15 N -1.184724 2.800871 2.449649 0
M  V30 16 C -2.121330 1.894547 2.092516 0
M  V30 17 C -1.665511 0.797697 1.395754 0
M  V30 18 C -2.547612 -0.282795 0.927056 0
M  V30 19 N -3.077698 -0.116004 -0.385399 0
M  V30 20 C -3.871555 1.025511 -0.626152 0
M  V30 21 C -5.335419 0.864551 -0.349339 0
M  V30 22 N -5.843815 -0.445037 -0.655813 0
M  V30 23 C -6.142591 -0.610633 -2.063911 0
M  V30 24 C -4.997363 -1.511687 -0.180959 0
M  V30 25 C -3.648886 -1.356220 -0.850752 0
M  V30 26 C -0.339342 0.629863 1.080145 0
M  V30 27 C 3.463387 -2.718836 2.353546 0
M  V30 28 C 3.834145 -4.058016 2.169144 0
M  V30 29 C 3.552408 -4.667515 0.964329 0
M  V30 30 N 3.728346 -5.871650 0.407649 0
M  V30 31 C 3.245330 -5.933820 -0.846031 0
M  V30 32 C 2.702606 -4.682742 -1.163542 0
M  V30 33 C 2.916277 -3.941965 -0.019829 0
M  V30 34 H 0.815644 -1.962730 -0.906322 0
M  V30 35 H 2.192223 -0.716186 -0.776904 0
M  V30 36 H 2.307368 -2.126731 -1.817648 0
M  V30 37 H 2.057412 -0.534168 2.772296 0
M  V30 38 H 5.837970 2.307942 0.765542 0
M  V30 39 H 1.924756 3.682992 0.674237 0
M  V30 40 H 0.697852 3.468999 2.514582 0
M  V30 41 H -3.156166 2.005726 2.329826 0
M  V30 42 H -2.048216 -1.276830 0.996993 0
M  V30 43 H -3.423687 -0.376400 1.630219 0
M  V30 44 H -3.707151 1.337596 -1.697871 0
M  V30 45 H -3.498756 1.879642 -0.029936 0
M  V30 46 H -5.879691 1.589645 -0.990308 0
M  V30 47 H -5.614503 1.116579 0.696872 0
M  V30 48 H -7.214638 -0.500115 -2.241292 0
M  V30 49 H -5.822465 -1.631801 -2.354460 0
M  V30 50 H -5.584704 0.150563 -2.648399 0
M  V30 51 H -4.934507 -1.535065 0.907730 0
M  V30 52 H -5.447997 -2.455113 -0.599755 0
M  V30 53 H -3.810605 -1.392423 -1.936540 0
M  V30 54 H -2.940708 -2.157232 -0.559512 0
M  V30 55 H 0.047038 -0.196175 0.549494 0
M  V30 56 H 3.767294 -2.412264 3.363141 0
M  V30 57 H 4.324444 -4.683863 2.871953 0
M  V30 58 H 4.194305 -6.675576 0.903530 0
M  V30 59 H 3.245803 -6.770359 -1.535818 0
M  V30 60 H 2.229206 -4.372234 -2.085451 0
M  V30 END ATOM
M  V30 BEGIN BOND
M  V30 1 1 1 2
M  V30 2 2 2 3
M  V30 3 1 3 4
M  V30 4 1 4 5
M  V30 5 2 5 6
M  V30 6 1 6 7
M  V30 7 3 7 8
M  V30 8 1 6 9
M  V30 9 2 9 10
M  V30 10 1 10 11
M  V30 11 2 11 12
M  V30 12 1 12 13
M  V30 13 2 13 14
M  V30 14 1 14 15
M  V30 15 2 15 16
M  V30 16 1 16 17
M  V30 17 1 17 18
M  V30 18 1 18 19
M  V30 19 1 19 20
M  V30 20 1 20 21
M  V30 21 1 21 22
M  V30 22 1 22 23
M  V30 23 1 22 24
M  V30 24 1 24 25
M  V30 25 2 17 26
M  V30 26 1 3 27
M  V30 27 2 27 28
M  V30 28 1 28 29
M  V30 29 1 29 30
M  V30 30 1 30 31
M  V30 31 2 31 32
M  V30 32 1 32 33
M  V30 33 1 33 2
M  V30 34 1 12 5
M  V30 35 1 26 13
M  V30 36 2 33 29
M  V30 37 1 25 19
M  V30 38 1 1 34
M  V30 39 1 1 35
M  V30 40 1 1 36
M  V30 41 1 4 37
M  V30 42 1 9 38
M  V30 43 1 11 39
M  V30 44 1 14 40
M  V30 45 1 16 41
M  V30 46 1 18 42
M  V30 47 1 18 43
M  V30 48 1 20 44
M  V30 49 1 20 45
M  V30 50 1 21 46
M  V30 51 1 21 47
M  V30 52 1 23 48
M  V30 53 1 23 49
M  V30 54 1 23 50
M  V30 55 1 24 51
M  V30 56 1 24 52
M  V30 57 1 25 53
M  V30 58 1 25 54
M  V30 59 1 26 55
M  V30 60 1 27 56
M  V30 61 1 28 57
M  V30 62 1 30 58
M  V30 63 1 31 59
M  V30 64 1 32 60
M  V30 END BOND
M  V30 END CTAB
M  END
>  <Dataset>  (358) 
ChEMBL_Kinases

>  <Ligand_Instance>  (358) 
nan

>  <PDB_ID>  (358) 
nan

>  <Standardized_SMILES>  (358) 
Cc1c(Nc2c(C#N)cncc2-c2cncc(CN3CCN(C)CC3)c2)ccc2[nH]ccc12

>  <Name>  (358) 
nan

>  <Pocket>  (358) 
nan

>  <ATP_Site>  (358) 
nan

>  <Peripheral>  (358) 
nan

>  <Num_H_Atoms_ProtBoundConf>  (358) 
nan

>  <Num_Resolved_Atoms>  (358) 
nan

>  <Num_Not_Resolved_Atoms>  (358) 
nan

$$$$
CHEMBL526560
     RDKit          3D

  0  0  0  0  0  0  0  0  0  0999 V3000
M  V30 BEGIN CTAB
M  V30 COUNTS 68 72 0 0 0
M  V30 BEGIN ATOM
M  V30 1 C 4.328237 -0.177512 0.195467 0
M  V30 2 C 3.222020 -0.973952 -0.383252 0
M  V30 3 C 3.096224 -2.324599 -0.129924 0
M  V30 4 C 2.050051 -3.026316 -0.690504 0
M  V30 5 C 1.145057 -2.347004 -1.501221 0
M  V30 6 C 1.285118 -0.977197 -1.749284 0
M  V30 7 N 0.231931 -0.526782 -2.606424 0
M  V30 8 N 0.386454 -0.808021 -3.907980 0
M  V30 9 C -0.682106 -0.324529 -4.594366 0
M  V30 10 C -0.985775 -0.376841 -6.047723 0
M  V30 11 C -1.773027 -1.620405 -6.401597 0
M  V30 12 C -1.779910 0.837565 -6.488994 0
M  V30 13 C 0.301201 -0.412667 -6.864184 0
M  V30 14 C -1.504483 0.270370 -3.646456 0
M  V30 15 C -0.926924 0.141282 -2.399443 0
M  V30 16 N -1.255240 0.519874 -1.084048 0
M  V30 17 C -1.963644 -0.117197 -0.054316 0
M  V30 18 O -2.368890 -1.247367 -0.413689 0
M  V30 19 N -2.104746 0.580597 1.172208 0
M  V30 20 C -2.813898 -0.027189 2.245904 0
M  V30 21 C -4.171034 0.053282 2.525734 0
M  V30 22 C -4.644535 -0.621241 3.629713 0
M  V30 23 C -3.822263 -1.355244 4.441699 0
M  V30 24 C -2.450557 -1.452205 4.181255 0
M  V30 25 N -1.610480 -2.218899 5.037972 0
M  V30 26 C -0.223120 -2.292141 4.716614 0
M  V30 27 N 0.331421 -3.243519 3.937170 0
M  V30 28 C 1.672381 -3.232435 3.683478 0
M  V30 29 N 2.493133 -2.291264 4.187491 0
M  V30 30 C 1.963455 -1.331108 4.968240 0
M  V30 31 C 2.788154 -0.358339 5.493088 0
M  V30 32 C 2.311528 0.662758 6.305769 0
M  V30 33 C 0.956858 0.637505 6.552154 0
M  V30 34 N 0.467296 1.692220 7.390439 0 CHG=1 VAL=4
M  V30 35 O -0.680579 1.913238 7.769560 0
M  V30 36 O 1.259817 2.681880 7.933428 0 CHG=-1 VAL=1
M  V30 37 C 0.054353 -0.298760 6.068249 0
M  V30 38 C 0.597695 -1.297983 5.257967 0
M  V30 39 C -1.982910 -0.775631 3.075964 0
M  V30 40 C 2.337897 -0.296242 -1.178792 0
M  V30 41 H 5.283316 -0.362831 -0.372089 0
M  V30 42 H 4.574704 -0.557282 1.230586 0
M  V30 43 H 4.067143 0.876046 0.282366 0
M  V30 44 H 3.823531 -2.810399 0.506347 0
M  V30 45 H 1.985471 -4.081326 -0.468882 0
M  V30 46 H 0.369930 -3.006364 -1.881218 0
M  V30 47 H -2.864565 -1.446182 -6.248577 0
M  V30 48 H -1.634726 -1.892920 -7.455287 0
M  V30 49 H -1.485602 -2.482388 -5.751795 0
M  V30 50 H -1.328228 1.775951 -6.105223 0
M  V30 51 H -1.740233 0.884888 -7.603951 0
M  V30 52 H -2.842414 0.789734 -6.214308 0
M  V30 53 H 0.008721 -0.354464 -7.926499 0
M  V30 54 H 0.723691 -1.445712 -6.732102 0
M  V30 55 H 1.007323 0.371449 -6.547450 0
M  V30 56 H -2.452253 0.776828 -3.740341 0
M  V30 57 H -0.848978 1.460604 -0.961597 0
M  V30 58 H -1.692171 1.529376 1.284256 0
M  V30 59 H -4.732062 0.654616 1.827712 0
M  V30 60 H -5.712297 -0.538512 3.821725 0
M  V30 61 H -4.209372 -1.883088 5.310400 0
M  V30 62 H -2.019819 -2.689890 5.849572 0
M  V30 63 H 2.123792 -3.988399 3.061862 0
M  V30 64 H 3.859596 -0.404551 5.251673 0
M  V30 65 H 2.952654 1.416108 6.711722 0
M  V30 66 H -0.982131 -0.262400 6.296132 0
M  V30 67 H -0.916142 -0.891504 2.931495 0
M  V30 68 H 2.327736 0.743769 -1.449132 0
M  V30 END ATOM
M  V30 BEGIN BOND
M  V30 1 1 1 2
M  V30 2 2 2 3
M  V30 3 1 3 4
M  V30 4 2 4 5
M  V30 5 1 5 6
M  V30 6 1 6 7
M  V30 7 1 7 8
M  V30 8 2 8 9
M  V30 9 1 9 10
M  V30 10 1 10 11
M  V30 11 1 10 12
M  V30 12 1 10 13
M  V30 13 1 9 14
M  V30 14 2 14 15
M  V30 15 1 15 16
M  V30 16 1 16 17
M  V30 17 2 17 18
M  V30 18 1 17 19
M  V30 19 1 19 20
M  V30 20 2 20 21
M  V30 21 1 21 22
M  V30 22 2 22 23
M  V30 23 1 23 24
M  V30 24 1 24 25
M  V30 25 1 25 26
M  V30 26 2 26 27
M  V30 27 1 27 28
M  V30 28 2 28 29
M  V30 29 1 29 30
M  V30 30 2 30 31
M  V30 31 1 31 32
M  V30 32 2 32 33
M  V30 33 1 33 34
M  V30 34 2 34 35
M  V30 35 1 34 36
M  V30 36 1 33 37
M  V30 37 2 37 38
M  V30 38 2 24 39
M  V30 39 2 6 40
M  V30 40 1 40 2
M  V30 41 1 15 7
M  V30 42 1 39 20
M  V30 43 1 38 26
M  V30 44 1 38 30
M  V30 45 1 1 41
M  V30 46 1 1 42
M  V30 47 1 1 43
M  V30 48 1 3 44
M  V30 49 1 4 45
M  V30 50 1 5 46
M  V30 51 1 11 47
M  V30 52 1 11 48
M  V30 53 1 11 49
M  V30 54 1 12 50
M  V30 55 1 12 51
M  V30 56 1 12 52
M  V30 57 1 13 53
M  V30 58 1 13 54
M  V30 59 1 13 55
M  V30 60 1 14 56
M  V30 61 1 16 57
M  V30 62 1 19 58
M  V30 63 1 21 59
M  V30 64 1 22 60
M  V30 65 1 23 61
M  V30 66 1 25 62
M  V30 67 1 28 63
M  V30 68 1 31 64
M  V30 69 1 32 65
M  V30 70 1 37 66
M  V30 71 1 39 67
M  V30 72 1 40 68
M  V30 END BOND
M  V30 END CTAB
M  END
>  <Dataset>  (359) 
ChEMBL_Kinases

>  <Ligand_Instance>  (359) 
nan

>  <PDB_ID>  (359) 
nan

>  <Standardized_SMILES>  (359) 
Cc1cccc(-n2nc(C(C)(C)C)cc2NC(=O)Nc2cccc(Nc3ncnc4ccc([N+](=O)[O-])cc34)c2)c1

>  <Name>  (359) 
nan

>  <Pocket>  (359) 
nan

>  <ATP_Site>  (359) 
nan

>  <Peripheral>  (359) 
nan

>  <Num_H_Atoms_ProtBoundConf>  (359) 
nan

>  <Num_Resolved_Atoms>  (359) 
nan

>  <Num_Not_Resolved_Atoms>  (359) 
nan

$$$$
CHEMBL3717942
     RDKit          3D

  0  0  0  0  0  0  0  0  0  0999 V3000
M  V30 BEGIN CTAB
M  V30 COUNTS 49 52 0 0 0
M  V30 BEGIN ATOM
M  V30 1 C 3.709210 -2.862699 0.545725 0
M  V30 2 C 2.597765 -1.891785 0.118337 0
M  V30 3 C 1.348453 -2.715351 0.056043 0
M  V30 4 C 2.573493 -0.811248 1.148880 0
M  V30 5 C 1.545181 0.261594 0.921147 0
M  V30 6 N 1.665758 0.981558 -0.298578 0
M  V30 7 C 2.680474 1.852054 -0.739796 0
M  V30 8 C 3.790792 2.206976 -0.023871 0
M  V30 9 C 4.802825 3.049800 -0.433908 0
M  V30 10 C 4.700984 3.601510 -1.694135 0
M  V30 11 C 3.606411 3.286164 -2.469741 0
M  V30 12 O 3.500563 3.837777 -3.734150 0
M  V30 13 C 2.641052 2.437396 -1.987331 0
M  V30 14 C 0.166742 -0.204903 1.111636 0
M  V30 15 O -0.731272 0.054887 0.238358 0
M  V30 16 N -0.284595 -0.955673 2.232055 0
M  V30 17 C -1.726500 -1.351547 2.267336 0
M  V30 18 N -2.654184 -0.867886 2.677517 0
M  V30 19 C -3.906486 -1.268127 2.679478 0
M  V30 20 C -5.040049 -0.666576 3.186604 0
M  V30 21 C -6.274125 -1.264122 3.082478 0
M  V30 22 C -6.510908 -2.481095 2.484952 0
M  V30 23 N -7.479480 -3.361988 2.187495 0
M  V30 24 N -7.001317 -4.419130 1.552663 0
M  V30 25 C -5.660148 -4.311969 1.381727 0
M  V30 26 C -5.374599 -3.100231 1.968116 0
M  V30 27 C -4.137501 -2.456877 2.095757 0
M  V30 28 S -2.498166 -2.944948 1.562922 0
M  V30 29 H 3.262470 -3.526873 1.296931 0
M  V30 30 H 4.591279 -2.305243 0.920034 0
M  V30 31 H 3.992779 -3.444802 -0.344306 0
M  V30 32 H 2.871490 -1.544127 -0.890043 0
M  V30 33 H 1.632174 -3.651911 -0.508431 0
M  V30 34 H 0.512244 -2.280019 -0.486143 0
M  V30 35 H 1.139499 -3.069236 1.081056 0
M  V30 36 H 3.583456 -0.474862 1.348961 0
M  V30 37 H 2.242820 -1.320969 2.106859 0
M  V30 38 H 1.705309 1.030037 1.744334 0
M  V30 39 H 0.867890 0.844065 -0.992749 0
M  V30 40 H 3.933942 1.818716 0.974106 0
M  V30 41 H 5.655315 3.291071 0.178701 0
M  V30 42 H 5.441334 4.272145 -2.104669 0
M  V30 43 H 2.586936 4.190296 -4.051015 0
M  V30 44 H 1.798937 2.234525 -2.665062 0
M  V30 45 H 0.398297 -1.186577 2.956915 0
M  V30 46 H -5.073398 0.291621 3.694336 0
M  V30 47 H -7.194509 -0.801939 3.480636 0
M  V30 48 H -8.471298 -3.144591 2.469362 0
M  V30 49 H -4.934442 -4.962340 0.918071 0
M  V30 END ATOM
M  V30 BEGIN BOND
M  V30 1 1 1 2
M  V30 2 1 2 3
M  V30 3 1 2 4
M  V30 4 1 4 5
M  V30 5 1 5 6
M  V30 6 1 6 7
M  V30 7 2 7 8
M  V30 8 1 8 9
M  V30 9 2 9 10
M  V30 10 1 10 11
M  V30 11 1 11 12
M  V30 12 2 11 13
M  V30 13 1 5 14
M  V30 14 2 14 15
M  V30 15 1 14 16
M  V30 16 1 16 17
M  V30 17 2 17 18
M  V30 18 1 18 19
M  V30 19 2 19 20
M  V30 20 1 20 21
M  V30 21 2 21 22
M  V30 22 1 22 23
M  V30 23 1 23 24
M  V30 24 2 24 25
M  V30 25 1 25 26
M  V30 26 2 26 27
M  V30 27 1 27 28
M  V30 28 1 13 7
M  V30 29 1 28 17
M  V30 30 1 27 19
M  V30 31 1 26 22
M  V30 32 1 1 29
M  V30 33 1 1 30
M  V30 34 1 1 31
M  V30 35 1 2 32
M  V30 36 1 3 33
M  V30 37 1 3 34
M  V30 38 1 3 35
M  V30 39 1 4 36
M  V30 40 1 4 37
M  V30 41 1 5 38
M  V30 42 1 6 39
M  V30 43 1 8 40
M  V30 44 1 9 41
M  V30 45 1 10 42
M  V30 46 1 12 43
M  V30 47 1 13 44
M  V30 48 1 16 45
M  V30 49 1 20 46
M  V30 50 1 21 47
M  V30 51 1 23 48
M  V30 52 1 25 49
M  V30 END BOND
M  V30 END CTAB
M  END
>  <Dataset>  (360) 
ChEMBL_Kinases

>  <Ligand_Instance>  (360) 
nan

>  <PDB_ID>  (360) 
nan

>  <Standardized_SMILES>  (360) 
CC(C)CC(Nc1cccc(O)c1)C(=O)Nc1nc2ccc3[nH]ncc3c2s1

>  <Name>  (360) 
nan

>  <Pocket>  (360) 
nan

>  <ATP_Site>  (360) 
nan

>  <Peripheral>  (360) 
nan

>  <Num_H_Atoms_ProtBoundConf>  (360) 
nan

>  <Num_Resolved_Atoms>  (360) 
nan

>  <Num_Not_Resolved_Atoms>  (360) 
nan

$$$$
CHEMBL3714963
     RDKit          3D

  0  0  0  0  0  0  0  0  0  0999 V3000
M  V30 BEGIN CTAB
M  V30 COUNTS 62 65 0 0 0
M  V30 BEGIN ATOM
M  V30 1 C 3.380274 -1.604100 4.584555 0
M  V30 2 C 2.996495 -1.148434 3.181475 0
M  V30 3 C 3.702364 0.143702 2.899044 0
M  V30 4 N 3.357077 -2.193997 2.235263 0
M  V30 5 C 3.261151 -2.136113 0.817167 0
M  V30 6 C 3.630789 -3.217167 0.007666 0
M  V30 7 C 3.540326 -3.139585 -1.363059 0
M  V30 8 C 3.090336 -2.016448 -1.995991 0
M  V30 9 C 2.716728 -0.930978 -1.236444 0
M  V30 10 C 2.242404 0.248707 -1.947196 0
M  V30 11 O 2.191504 0.236220 -3.198749 0
M  V30 12 N 1.816053 1.457107 -1.335764 0
M  V30 13 C 1.366499 2.561209 -2.131212 0
M  V30 14 C 0.191372 2.143293 -2.936599 0
M  V30 15 O -0.631776 2.593559 -3.787389 0
M  V30 16 O -0.365644 0.873444 -2.904877 0
M  V30 17 C -1.498989 0.634475 -3.744939 0
M  V30 18 C -1.931740 -0.819107 -3.539732 0
M  V30 19 O -3.042184 -1.087209 -4.349705 0
M  V30 20 C 2.813973 -1.029385 0.112444 0
M  V30 21 C 1.522519 -0.883957 3.127406 0
M  V30 22 O 1.203704 0.081136 3.872554 0
M  V30 23 N 0.675529 -1.657464 2.326740 0
M  V30 24 C -0.765493 -1.391037 2.276971 0
M  V30 25 N -1.717991 -1.832754 1.731786 0
M  V30 26 C -2.962703 -1.426885 1.834681 0
M  V30 27 C -4.110111 -1.908905 1.219515 0
M  V30 28 C -4.084931 -3.062940 0.266889 0
M  V30 29 F -3.587734 -4.204306 0.908916 0
M  V30 30 F -3.384924 -2.788862 -0.885272 0
M  V30 31 F -5.373959 -3.396705 -0.093699 0
M  V30 32 C -5.315703 -1.308135 1.491423 0
M  V30 33 C -5.532474 -0.245297 2.332198 0
M  V30 34 N -6.526537 0.530982 2.789402 0
M  V30 35 N -6.038167 1.446406 3.640310 0
M  V30 36 C -4.701818 1.299918 3.769689 0
M  V30 37 C -4.407960 0.251873 2.955644 0
M  V30 38 C -3.184330 -0.350364 2.685888 0
M  V30 39 S -1.481934 -0.022264 3.277656 0
M  V30 40 H 4.038912 -0.880346 5.106578 0
M  V30 41 H 2.512988 -1.796567 5.225775 0
M  V30 42 H 3.965003 -2.555782 4.533018 0
M  V30 43 H 4.233999 0.455106 3.846824 0
M  V30 44 H 4.431708 0.060283 2.062281 0
M  V30 45 H 2.958260 0.931556 2.738339 0
M  V30 46 H 3.736088 -3.112126 2.616737 0
M  V30 47 H 3.993178 -4.125326 0.486470 0
M  V30 48 H 3.849027 -4.027643 -1.915298 0
M  V30 49 H 3.061131 -2.066754 -3.072182 0
M  V30 50 H 1.840740 1.514325 -0.294485 0
M  V30 51 H 2.188035 2.992009 -2.749119 0
M  V30 52 H 0.998716 3.374446 -1.459211 0
M  V30 53 H -1.272336 0.808349 -4.808833 0
M  V30 54 H -2.345065 1.300202 -3.478536 0
M  V30 55 H -2.207493 -0.949148 -2.472314 0
M  V30 56 H -1.074156 -1.488188 -3.740421 0
M  V30 57 H -3.464894 -1.925833 -4.094611 0
M  V30 58 H 2.506808 -0.153473 0.661946 0
M  V30 59 H 0.950162 -2.438378 1.740671 0
M  V30 60 H -6.209045 -1.703415 0.995877 0
M  V30 61 H -7.519603 0.383141 2.480361 0
M  V30 62 H -4.025341 1.881691 4.379184 0
M  V30 END ATOM
M  V30 BEGIN BOND
M  V30 1 1 1 2
M  V30 2 1 2 3
M  V30 3 1 2 4
M  V30 4 1 4 5
M  V30 5 2 5 6
M  V30 6 1 6 7
M  V30 7 2 7 8
M  V30 8 1 8 9
M  V30 9 1 9 10
M  V30 10 2 10 11
M  V30 11 1 10 12
M  V30 12 1 12 13
M  V30 13 1 13 14
M  V30 14 2 14 15
M  V30 15 1 14 16
M  V30 16 1 16 17
M  V30 17 1 17 18
M  V30 18 1 18 19
M  V30 19 2 9 20
M  V30 20 1 2 21
M  V30 21 2 21 22
M  V30 22 1 21 23
M  V30 23 1 23 24
M  V30 24 2 24 25
M  V30 25 1 25 26
M  V30 26 2 26 27
M  V30 27 1 27 28
M  V30 28 1 28 29
M  V30 29 1 28 30
M  V30 30 1 28 31
M  V30 31 1 27 32
M  V30 32 2 32 33
M  V30 33 1 33 34
M  V30 34 1 34 35
M  V30 35 2 35 36
M  V30 36 1 36 37
M  V30 37 2 37 38
M  V30 38 1 38 39
M  V30 39 1 20 5
M  V30 40 1 39 24
M  V30 41 1 38 26
M  V30 42 1 37 33
M  V30 43 1 1 40
M  V30 44 1 1 41
M  V30 45 1 1 42
M  V30 46 1 3 43
M  V30 47 1 3 44
M  V30 48 1 3 45
M  V30 49 1 4 46
M  V30 50 1 6 47
M  V30 51 1 7 48
M  V30 52 1 8 49
M  V30 53 1 12 50
M  V30 54 1 13 51
M  V30 55 1 13 52
M  V30 56 1 17 53
M  V30 57 1 17 54
M  V30 58 1 18 55
M  V30 59 1 18 56
M  V30 60 1 19 57
M  V30 61 1 20 58
M  V30 62 1 23 59
M  V30 63 1 32 60
M  V30 64 1 34 61
M  V30 65 1 36 62
M  V30 END BOND
M  V30 END CTAB
M  END
>  <Dataset>  (361) 
ChEMBL_Kinases

>  <Ligand_Instance>  (361) 
nan

>  <PDB_ID>  (361) 
nan

>  <Standardized_SMILES>  (361) 
CC(C)(Nc1cccc(C(=O)NCC(=O)OCCO)c1)C(=O)Nc1nc2c(C(F)(F)F)cc3[nH]ncc3c2s1

>  <Name>  (361) 
nan

>  <Pocket>  (361) 
nan

>  <ATP_Site>  (361) 
nan

>  <Peripheral>  (361) 
nan

>  <Num_H_Atoms_ProtBoundConf>  (361) 
nan

>  <Num_Resolved_Atoms>  (361) 
nan

>  <Num_Not_Resolved_Atoms>  (361) 
nan

$$$$
CHEMBL371792
     RDKit          3D

  0  0  0  0  0  0  0  0  0  0999 V3000
M  V30 BEGIN CTAB
M  V30 COUNTS 43 46 0 0 0
M  V30 BEGIN ATOM
M  V30 1 C -3.077181 -1.842734 3.093897 0
M  V30 2 O -2.077576 -1.072578 3.714012 0
M  V30 3 C -0.724750 -1.135931 3.415894 0
M  V30 4 C 0.153598 -0.337390 4.097809 0
M  V30 5 C 1.522660 -0.325910 3.874287 0
M  V30 6 C 2.032682 -1.178589 2.899487 0
M  V30 7 C 1.166249 -1.990771 2.202196 0
M  V30 8 O 1.718561 -2.845025 1.222159 0
M  V30 9 C 2.179245 -2.243173 0.043675 0
M  V30 10 N 2.163631 -0.916837 -0.154986 0
M  V30 11 C 2.582005 -0.273712 -1.240556 0
M  V30 12 N 2.433964 1.136286 -1.117663 0
M  V30 13 C 1.177819 1.644529 -0.622638 0
M  V30 14 C 1.008036 2.929652 -0.143021 0
M  V30 15 C -0.239404 3.321056 0.282925 0
M  V30 16 C -1.342678 2.477834 0.251883 0
M  V30 17 N -2.637327 2.578684 0.585890 0
M  V30 18 C -3.279152 1.422597 0.337668 0
M  V30 19 N -2.381044 0.558079 -0.165993 0
M  V30 20 C -1.193065 1.169827 -0.230160 0
M  V30 21 C 0.059181 0.811289 -0.645809 0
M  V30 22 N 3.071758 -1.028183 -2.245778 0
M  V30 23 C 3.117438 -2.387233 -2.115012 0
M  V30 24 C 2.676928 -3.028169 -0.974563 0
M  V30 25 C 2.747056 -4.492617 -0.838036 0
M  V30 26 F 1.485135 -5.042152 -0.610599 0
M  V30 27 F 3.186360 -5.077204 -2.029314 0
M  V30 28 F 3.587766 -4.912270 0.149349 0
M  V30 29 C -0.219373 -1.994631 2.434242 0
M  V30 30 H -2.904725 -2.890585 3.444781 0
M  V30 31 H -4.088419 -1.574350 3.416660 0
M  V30 32 H -3.039780 -1.850672 2.004336 0
M  V30 33 H -0.201348 0.337279 4.858956 0
M  V30 34 H 2.165833 0.328360 4.443699 0
M  V30 35 H 3.103178 -1.174306 2.720782 0
M  V30 36 H 3.132433 1.864897 -1.350778 0
M  V30 37 H 1.896790 3.528389 -0.142619 0
M  V30 38 H -0.355449 4.334243 0.660321 0
M  V30 39 H -3.066246 3.439466 0.983351 0
M  V30 40 H -4.296432 1.130079 0.470059 0
M  V30 41 H 0.105128 -0.226325 -1.019765 0
M  V30 42 H 3.520019 -2.922024 -2.956781 0
M  V30 43 H -0.894542 -2.628560 1.884542 0
M  V30 END ATOM
M  V30 BEGIN BOND
M  V30 1 1 1 2
M  V30 2 1 2 3
M  V30 3 2 3 4
M  V30 4 1 4 5
M  V30 5 2 5 6
M  V30 6 1 6 7
M  V30 7 1 7 8
M  V30 8 1 8 9
M  V30 9 2 9 10
M  V30 10 1 10 11
M  V30 11 1 11 12
M  V30 12 1 12 13
M  V30 13 2 13 14
M  V30 14 1 14 15
M  V30 15 2 15 16
M  V30 16 1 16 17
M  V30 17 1 17 18
M  V30 18 2 18 19
M  V30 19 1 19 20
M  V30 20 2 20 21
M  V30 21 2 11 22
M  V30 22 1 22 23
M  V30 23 2 23 24
M  V30 24 1 24 25
M  V30 25 1 25 26
M  V30 26 1 25 27
M  V30 27 1 25 28
M  V30 28 2 7 29
M  V30 29 1 29 3
M  V30 30 1 24 9
M  V30 31 1 21 13
M  V30 32 1 20 16
M  V30 33 1 1 30
M  V30 34 1 1 31
M  V30 35 1 1 32
M  V30 36 1 4 33
M  V30 37 1 5 34
M  V30 38 1 6 35
M  V30 39 1 12 36
M  V30 40 1 14 37
M  V30 41 1 15 38
M  V30 42 1 17 39
M  V30 43 1 18 40
M  V30 44 1 21 41
M  V30 45 1 23 42
M  V30 46 1 29 43
M  V30 END BOND
M  V30 END CTAB
M  END
>  <Dataset>  (362) 
ChEMBL_Kinases

>  <Ligand_Instance>  (362) 
nan

>  <PDB_ID>  (362) 
nan

>  <Standardized_SMILES>  (362) 
COc1cccc(Oc2nc(Nc3ccc4[nH]cnc4c3)ncc2C(F)(F)F)c1

>  <Name>  (362) 
nan

>  <Pocket>  (362) 
nan

>  <ATP_Site>  (362) 
nan

>  <Peripheral>  (362) 
nan

>  <Num_H_Atoms_ProtBoundConf>  (362) 
nan

>  <Num_Resolved_Atoms>  (362) 
nan

>  <Num_Not_Resolved_Atoms>  (362) 
nan

$$$$
CHEMBL3717892
     RDKit          3D

  0  0  0  0  0  0  0  0  0  0999 V3000
M  V30 BEGIN CTAB
M  V30 COUNTS 45 48 0 0 0
M  V30 BEGIN ATOM
M  V30 1 C -2.460083 -5.938182 0.422002 0
M  V30 2 O -2.621067 -4.691308 1.048625 0
M  V30 3 C -1.681450 -3.699022 0.817466 0
M  V30 4 C -0.636979 -3.975016 -0.011199 0
M  V30 5 C 0.304806 -3.010863 -0.255682 0
M  V30 6 N 1.414140 -3.028760 -1.015306 0
M  V30 7 C 2.026743 -1.834154 -0.935494 0
M  V30 8 N 3.137750 -1.283124 -1.454329 0
M  V30 9 C 3.506185 -0.020401 -1.175731 0
M  V30 10 N 4.709774 0.499805 -1.769226 0
M  V30 11 N 2.745146 0.748505 -0.342569 0
M  V30 12 C 1.610107 0.227369 0.204463 0
M  V30 13 N 0.963842 1.200206 1.005491 0
M  V30 14 C -0.260516 2.019869 1.012702 0
M  V30 15 C 0.056615 3.474158 0.798447 0
M  V30 16 C 1.466519 3.804316 1.306620 0
M  V30 17 C 1.615640 2.989515 2.580743 0
M  V30 18 C 1.711249 1.531463 2.228180 0
M  V30 19 C 1.262681 -1.056147 -0.095574 0
M  V30 20 C 0.181723 -1.774652 0.340545 0
M  V30 21 C -0.861482 -1.477386 1.177674 0
M  V30 22 C -1.809674 -2.443682 1.425571 0
M  V30 23 O -2.915481 -2.283956 2.248149 0
M  V30 24 C -3.190531 -1.079691 2.935691 0
M  V30 25 H -3.234128 -6.618404 0.847985 0
M  V30 26 H -2.656764 -5.835789 -0.665246 0
M  V30 27 H -1.467604 -6.376154 0.593369 0
M  V30 28 H -0.508778 -4.942581 -0.499888 0
M  V30 29 H 1.817791 -3.793395 -1.605932 0
M  V30 30 H 4.535656 0.848152 -2.751633 0
M  V30 31 H 4.484117 0.821714 -2.715739 0
M  V30 32 H -0.917640 1.715446 0.149997 0
M  V30 33 H -0.799347 1.794842 1.939979 0
M  V30 34 H -0.617418 4.077874 1.463283 0
M  V30 35 H -0.121259 3.841062 -0.215198 0
M  V30 36 H 2.222372 3.537781 0.551805 0
M  V30 37 H 1.487754 4.870698 1.608342 0
M  V30 38 H 0.698907 3.192534 3.170049 0
M  V30 39 H 2.506324 3.296583 3.164521 0
M  V30 40 H 2.758327 1.246658 2.194410 0
M  V30 41 H 1.139606 0.987419 3.034824 0
M  V30 42 H -1.050714 -0.577687 1.688491 0
M  V30 43 H -3.171386 -0.272821 2.172484 0
M  V30 44 H -2.382188 -0.920869 3.660185 0
M  V30 45 H -4.170449 -1.164930 3.436798 0
M  V30 END ATOM
M  V30 BEGIN BOND
M  V30 1 1 1 2
M  V30 2 1 2 3
M  V30 3 2 3 4
M  V30 4 1 4 5
M  V30 5 1 5 6
M  V30 6 1 6 7
M  V30 7 2 7 8
M  V30 8 1 8 9
M  V30 9 1 9 10
M  V30 10 2 9 11
M  V30 11 1 11 12
M  V30 12 1 12 13
M  V30 13 1 13 14
M  V30 14 1 14 15
M  V30 15 1 15 16
M  V30 16 1 16 17
M  V30 17 1 17 18
M  V30 18 2 12 19
M  V30 19 1 19 20
M  V30 20 1 20 21
M  V30 21 2 21 22
M  V30 22 1 22 23
M  V30 23 1 23 24
M  V30 24 1 22 3
M  V30 25 2 20 5
M  V30 26 1 19 7
M  V30 27 1 18 13
M  V30 28 1 1 25
M  V30 29 1 1 26
M  V30 30 1 1 27
M  V30 31 1 4 28
M  V30 32 1 6 29
M  V30 33 1 10 30
M  V30 34 1 10 31
M  V30 35 1 14 32
M  V30 36 1 14 33
M  V30 37 1 15 34
M  V30 38 1 15 35
M  V30 39 1 16 36
M  V30 40 1 16 37
M  V30 41 1 17 38
M  V30 42 1 17 39
M  V30 43 1 18 40
M  V30 44 1 18 41
M  V30 45 1 21 42
M  V30 46 1 24 43
M  V30 47 1 24 44
M  V30 48 1 24 45
M  V30 END BOND
M  V30 END CTAB
M  END
>  <Dataset>  (363) 
ChEMBL_Kinases

>  <Ligand_Instance>  (363) 
nan

>  <PDB_ID>  (363) 
nan

>  <Standardized_SMILES>  (363) 
COc1cc2[nH]c3nc(N)nc(N4CCCCC4)c3c2cc1OC

>  <Name>  (363) 
nan

>  <Pocket>  (363) 
nan

>  <ATP_Site>  (363) 
nan

>  <Peripheral>  (363) 
nan

>  <Num_H_Atoms_ProtBoundConf>  (363) 
nan

>  <Num_Resolved_Atoms>  (363) 
nan

>  <Num_Not_Resolved_Atoms>  (363) 
nan

$$$$
CHEMBL3717846
     RDKit          3D

  0  0  0  0  0  0  0  0  0  0999 V3000
M  V30 BEGIN CTAB
M  V30 COUNTS 58 61 0 0 0
M  V30 BEGIN ATOM
M  V30 1 C 8.195973 -1.837642 3.996393 0
M  V30 2 O 8.532939 -1.060911 2.864095 0
M  V30 3 C 7.620992 -0.398218 2.102881 0
M  V30 4 C 7.845304 0.379799 0.986509 0
M  V30 5 C 6.896037 1.038639 0.237305 0
M  V30 6 C 5.557677 0.921001 0.631159 0
M  V30 7 N 4.518336 1.464045 0.056360 0
M  V30 8 C 3.412843 1.395710 0.339974 0
M  V30 9 N 1.951914 1.625764 0.262756 0
M  V30 10 C 1.428723 2.728527 0.984377 0
M  V30 11 O 2.246671 3.456666 1.646839 0
M  V30 12 C 0.091187 3.282874 1.175014 0
M  V30 13 N -0.978250 2.571214 0.516137 0
M  V30 14 C -1.290479 1.215938 0.827376 0
M  V30 15 O -0.541056 0.747958 1.722670 0
M  V30 16 C -2.400306 0.669931 0.048221 0
M  V30 17 C -2.643786 -0.769936 0.416622 0
M  V30 18 N -3.764338 -1.316004 -0.367717 0
M  V30 19 C -5.006069 -1.757120 0.161693 0
M  V30 20 O -5.056418 -1.630370 1.409401 0
M  V30 21 C -6.070571 -2.286830 -0.670074 0
M  V30 22 C -6.008214 -2.444064 -2.017948 0
M  V30 23 C -7.012535 -2.942904 -2.808151 0
M  V30 24 C -8.207097 -3.328884 -2.211264 0
M  V30 25 C -8.286191 -3.173028 -0.823957 0
M  V30 26 C -7.249649 -2.666500 -0.067489 0
M  V30 27 C -1.451761 -1.638177 0.277236 0
M  V30 28 C -0.641397 -2.151886 1.272834 0
M  V30 29 C 0.434758 -2.940349 0.954654 0
M  V30 30 C 0.782798 -3.272385 -0.334407 0
M  V30 31 C -0.022465 -2.762954 -1.337558 0
M  V30 32 C -1.095854 -1.976342 -1.019384 0
M  V30 33 S 3.605849 0.259137 1.882572 0
M  V30 34 C 5.351813 0.168648 1.709101 0
M  V30 35 N 6.330870 -0.488393 2.450222 0
M  V30 36 H 7.109588 -1.968690 3.975123 0
M  V30 37 H 8.508995 -1.321472 4.904051 0
M  V30 38 H 8.722879 -2.807326 3.933542 0
M  V30 39 H 8.903041 0.465013 0.687493 0
M  V30 40 H 7.267872 1.610181 -0.617990 0
M  V30 41 H 1.235314 1.104085 -0.252251 0
M  V30 42 H 0.047203 4.373058 0.943067 0
M  V30 43 H -0.136002 3.169613 2.280908 0
M  V30 44 H -1.518634 3.126245 -0.215340 0
M  V30 45 H -3.322701 1.222410 0.352732 0
M  V30 46 H -2.301668 0.825874 -1.041424 0
M  V30 47 H -2.955638 -0.791411 1.475810 0
M  V30 48 H -3.592533 -1.369166 -1.416042 0
M  V30 49 H -5.097359 -2.158849 -2.538918 0
M  V30 50 H -6.888568 -3.037898 -3.877945 0
M  V30 51 H -8.989550 -3.718576 -2.832764 0
M  V30 52 H -9.229479 -3.479253 -0.372704 0
M  V30 53 H -7.446940 -2.599954 1.002176 0
M  V30 54 H -0.931764 -1.884839 2.277931 0
M  V30 55 H 1.030261 -3.309524 1.791142 0
M  V30 56 H 1.631044 -3.893577 -0.581930 0
M  V30 57 H 0.260329 -3.031075 -2.360990 0
M  V30 58 H -1.639329 -1.645674 -1.902864 0
M  V30 END ATOM
M  V30 BEGIN BOND
M  V30 1 1 1 2
M  V30 2 1 2 3
M  V30 3 2 3 4
M  V30 4 1 4 5
M  V30 5 2 5 6
M  V30 6 1 6 7
M  V30 7 2 7 8
M  V30 8 1 8 9
M  V30 9 1 9 10
M  V30 10 2 10 11
M  V30 11 1 10 12
M  V30 12 1 12 13
M  V30 13 1 13 14
M  V30 14 2 14 15
M  V30 15 1 14 16
M  V30 16 1 16 17
M  V30 17 1 17 18
M  V30 18 1 18 19
M  V30 19 2 19 20
M  V30 20 1 19 21
M  V30 21 2 21 22
M  V30 22 1 22 23
M  V30 23 2 23 24
M  V30 24 1 24 25
M  V30 25 2 25 26
M  V30 26 1 17 27
M  V30 27 2 27 28
M  V30 28 1 28 29
M  V30 29 2 29 30
M  V30 30 1 30 31
M  V30 31 2 31 32
M  V30 32 1 8 33
M  V30 33 1 33 34
M  V30 34 2 34 35
M  V30 35 1 35 3
M  V30 36 1 34 6
M  V30 37 1 26 21
M  V30 38 1 32 27
M  V30 39 1 1 36
M  V30 40 1 1 37
M  V30 41 1 1 38
M  V30 42 1 4 39
M  V30 43 1 5 40
M  V30 44 1 9 41
M  V30 45 1 12 42
M  V30 46 1 12 43
M  V30 47 1 13 44
M  V30 48 1 16 45
M  V30 49 1 16 46
M  V30 50 1 17 47
M  V30 51 1 18 48
M  V30 52 1 22 49
M  V30 53 1 23 50
M  V30 54 1 24 51
M  V30 55 1 25 52
M  V30 56 1 26 53
M  V30 57 1 28 54
M  V30 58 1 29 55
M  V30 59 1 30 56
M  V30 60 1 31 57
M  V30 61 1 32 58
M  V30 END BOND
M  V30 END CTAB
M  END
>  <Dataset>  (364) 
ChEMBL_Kinases

>  <Ligand_Instance>  (364) 
nan

>  <PDB_ID>  (364) 
nan

>  <Standardized_SMILES>  (364) 
COc1ccc2nc(NC(=O)CNC(=O)CC(NC(=O)c3ccccc3)c3ccccc3)sc2n1

>  <Name>  (364) 
nan

>  <Pocket>  (364) 
nan

>  <ATP_Site>  (364) 
nan

>  <Peripheral>  (364) 
nan

>  <Num_H_Atoms_ProtBoundConf>  (364) 
nan

>  <Num_Resolved_Atoms>  (364) 
nan

>  <Num_Not_Resolved_Atoms>  (364) 
nan

$$$$
CHEMBL3717841
     RDKit          3D

  0  0  0  0  0  0  0  0  0  0999 V3000
M  V30 BEGIN CTAB
M  V30 COUNTS 42 45 0 0 0
M  V30 BEGIN ATOM
M  V30 1 O 2.905798 -3.147021 0.666743 0
M  V30 2 C 2.440497 -1.994947 0.354675 0
M  V30 3 N 1.292735 -2.142860 -0.487561 0
M  V30 4 C 0.649172 -3.329845 -0.994375 0 CFG=1
M  V30 5 C -0.464172 -3.780518 -0.016053 0
M  V30 6 C -1.288785 -2.575471 0.239140 0
M  V30 7 C -1.558541 -1.682289 -0.910490 0
M  V30 8 N -1.078740 -2.069403 -2.191378 0
M  V30 9 C -0.088479 -3.084418 -2.271552 0
M  V30 10 C 2.914836 -0.666772 0.741246 0
M  V30 11 C 4.234983 -0.306086 0.560274 0
M  V30 12 C 4.658304 0.940750 0.918057 0
M  V30 13 C 3.801668 1.876400 1.467536 0
M  V30 14 O 4.275004 3.145251 1.822898 0
M  V30 15 C 2.472105 1.577580 1.672496 0
M  V30 16 N 1.396038 2.236490 2.193125 0
M  V30 17 C 0.384278 1.355086 2.127208 0
M  V30 18 C -0.969385 1.563140 2.600971 0
M  V30 19 C -2.045787 0.713486 2.556121 0
M  V30 20 C -3.210366 1.164270 3.126405 0
M  V30 21 C -3.220093 2.450015 3.704299 0
M  V30 22 S -1.500607 3.030759 3.426203 0
M  V30 23 N 0.796284 0.197328 1.591516 0
M  V30 24 C 2.097489 0.311310 1.296745 0
M  V30 25 H 0.862076 -1.220989 -0.784326 0
M  V30 26 H 1.320009 -4.187802 -1.069389 0
M  V30 27 H -1.075347 -4.511528 -0.579919 0
M  V30 28 H -0.013455 -4.226621 0.879509 0
M  V30 29 H -2.238967 -2.916293 0.746356 0
M  V30 30 H -0.764848 -2.007552 1.054247 0
M  V30 31 H -2.700871 -1.650445 -1.026641 0
M  V30 32 H -1.355018 -0.590918 -0.674405 0
M  V30 33 H -0.782546 -1.198519 -2.697459 0
M  V30 34 H 0.566313 -2.998300 -3.158898 0
M  V30 35 H -0.663307 -4.052982 -2.464246 0
M  V30 36 H 4.871720 -1.091938 0.129656 0
M  V30 37 H 5.716195 1.162028 0.741784 0
M  V30 38 H 3.995955 3.458783 2.737838 0
M  V30 39 H 1.412318 3.222113 2.559850 0
M  V30 40 H -1.985635 -0.260020 2.095346 0
M  V30 41 H -4.138935 0.566912 3.162034 0
M  V30 42 H -4.055001 2.929293 4.186124 0
M  V30 END ATOM
M  V30 BEGIN BOND
M  V30 1 2 1 2
M  V30 2 1 2 3
M  V30 3 1 3 4
M  V30 4 1 4 5
M  V30 5 1 5 6
M  V30 6 1 6 7
M  V30 7 1 7 8
M  V30 8 1 8 9
M  V30 9 1 2 10
M  V30 10 2 10 11
M  V30 11 1 11 12
M  V30 12 2 12 13
M  V30 13 1 13 14
M  V30 14 1 13 15
M  V30 15 1 15 16
M  V30 16 1 16 17
M  V30 17 1 17 18
M  V30 18 2 18 19
M  V30 19 1 19 20
M  V30 20 2 20 21
M  V30 21 1 21 22
M  V30 22 2 17 23
M  V30 23 1 23 24
M  V30 24 1 9 4
M  V30 25 1 24 10
M  V30 26 2 24 15
M  V30 27 1 22 18
M  V30 28 1 3 25
M  V30 29 1 4 26 CFG=3
M  V30 30 1 5 27
M  V30 31 1 5 28
M  V30 32 1 6 29
M  V30 33 1 6 30
M  V30 34 1 7 31
M  V30 35 1 7 32
M  V30 36 1 8 33
M  V30 37 1 9 34
M  V30 38 1 9 35
M  V30 39 1 11 36
M  V30 40 1 12 37
M  V30 41 1 14 38
M  V30 42 1 16 39
M  V30 43 1 19 40
M  V30 44 1 20 41
M  V30 45 1 21 42
M  V30 END BOND
M  V30 END CTAB
M  END
>  <Dataset>  (365) 
ChEMBL_Kinases

>  <Ligand_Instance>  (365) 
nan

>  <PDB_ID>  (365) 
nan

>  <Standardized_SMILES>  (365) 
O=C(N[C@H]1CCCNC1)c1ccc(O)c2[nH]c(-c3cccs3)nc12

>  <Name>  (365) 
nan

>  <Pocket>  (365) 
nan

>  <ATP_Site>  (365) 
nan

>  <Peripheral>  (365) 
nan

>  <Num_H_Atoms_ProtBoundConf>  (365) 
nan

>  <Num_Resolved_Atoms>  (365) 
nan

>  <Num_Not_Resolved_Atoms>  (365) 
nan

$$$$
CHEMBL3717833
     RDKit          3D

  0  0  0  0  0  0  0  0  0  0999 V3000
M  V30 BEGIN CTAB
M  V30 COUNTS 21 23 0 0 0
M  V30 BEGIN ATOM
M  V30 1 C 0.323691 3.011607 0.912291 0
M  V30 2 N 1.058995 2.396242 1.790955 0
M  V30 3 C 1.222414 0.983539 1.780895 0
M  V30 4 C 2.028854 0.401929 2.759616 0
M  V30 5 C 2.176271 -0.981752 2.732972 0
M  V30 6 C 1.580572 -1.819878 1.806008 0
M  V30 7 C 0.775882 -1.215904 0.833213 0
M  V30 8 C 0.151290 -1.989417 -0.121744 0
M  V30 9 C -0.648151 -1.369410 -1.084948 0
M  V30 10 C -0.816651 0.013013 -1.086531 0
M  V30 11 C -0.172163 0.747176 -0.111452 0
M  V30 12 C 0.626432 0.154174 0.854970 0
M  V30 13 N -0.285469 2.160437 -0.034664 0
M  V30 14 H 0.167202 4.088121 0.877439 0
M  V30 15 H 2.530651 0.992599 3.521915 0
M  V30 16 H 2.796678 -1.466102 3.479966 0
M  V30 17 H 1.726153 -2.881834 1.828714 0
M  V30 18 H 0.286636 -3.082303 -0.117617 0
M  V30 19 H -1.150778 -1.976798 -1.850985 0
M  V30 20 H -1.437419 0.515502 -1.831062 0
M  V30 21 H -0.893248 2.604226 -0.771395 0
M  V30 END ATOM
M  V30 BEGIN BOND
M  V30 1 2 1 2
M  V30 2 1 2 3
M  V30 3 1 3 4
M  V30 4 2 4 5
M  V30 5 1 5 6
M  V30 6 2 6 7
M  V30 7 1 7 8
M  V30 8 2 8 9
M  V30 9 1 9 10
M  V30 10 2 10 11
M  V30 11 1 11 12
M  V30 12 1 11 13
M  V30 13 1 13 1
M  V30 14 2 12 3
M  V30 15 1 12 7
M  V30 16 1 1 14
M  V30 17 1 4 15
M  V30 18 1 5 16
M  V30 19 1 6 17
M  V30 20 1 8 18
M  V30 21 1 9 19
M  V30 22 1 10 20
M  V30 23 1 13 21
M  V30 END BOND
M  V30 END CTAB
M  END
>  <Dataset>  (366) 
ChEMBL_Kinases

>  <Ligand_Instance>  (366) 
nan

>  <PDB_ID>  (366) 
nan

>  <Standardized_SMILES>  (366) 
C1=Nc2cccc3cccc(c23)N1

>  <Name>  (366) 
nan

>  <Pocket>  (366) 
nan

>  <ATP_Site>  (366) 
nan

>  <Peripheral>  (366) 
nan

>  <Num_H_Atoms_ProtBoundConf>  (366) 
nan

>  <Num_Resolved_Atoms>  (366) 
nan

>  <Num_Not_Resolved_Atoms>  (366) 
nan

$$$$
CHEMBL3717823
     RDKit          3D

  0  0  0  0  0  0  0  0  0  0999 V3000
M  V30 BEGIN CTAB
M  V30 COUNTS 36 38 0 0 0
M  V30 BEGIN ATOM
M  V30 1 O -1.455427 0.296486 -0.933010 0
M  V30 2 C -1.091928 0.700955 0.178582 0
M  V30 3 N -0.791273 -0.203472 1.200635 0
M  V30 4 C -0.680897 -1.555583 1.637992 0
M  V30 5 C 0.302895 -2.444023 0.973658 0
M  V30 6 C 0.270542 -3.853141 1.641172 0
M  V30 7 C 1.309487 -4.656492 0.904561 0
M  V30 8 C 2.196655 -3.810075 0.017257 0
M  V30 9 N 1.478336 -3.062565 -0.979454 0
M  V30 10 C 0.124939 -2.750645 -0.471480 0
M  V30 11 C -1.079312 2.136164 0.099828 0
M  V30 12 C -2.201476 2.888674 -0.171051 0
M  V30 13 C -2.016616 4.263137 -0.209411 0
M  V30 14 N -0.825832 4.845530 0.001472 0
M  V30 15 C 0.258299 4.105182 0.263776 0
M  V30 16 N 1.547696 4.447373 0.507987 0
M  V30 17 C 2.217660 3.305587 0.707936 0
M  V30 18 N 1.407520 2.242371 0.601481 0
M  V30 19 C 0.160547 2.711120 0.320999 0
M  V30 20 H -0.534059 0.505154 1.977041 0
M  V30 21 H -0.415176 -1.525383 2.711967 0
M  V30 22 H -1.699399 -2.064246 1.642101 0
M  V30 23 H 1.316440 -1.998491 1.148270 0
M  V30 24 H -0.728449 -4.250470 1.379286 0
M  V30 25 H 0.445867 -3.767905 2.710060 0
M  V30 26 H 0.840274 -5.423977 0.232233 0
M  V30 27 H 1.982404 -5.213395 1.588931 0
M  V30 28 H 2.897554 -4.546670 -0.473503 0
M  V30 29 H 2.898331 -3.171839 0.626198 0
M  V30 30 H 1.984612 -2.177170 -1.193629 0
M  V30 31 H -0.380178 -2.036129 -1.095907 0
M  V30 32 H -0.420579 -3.737445 -0.632018 0
M  V30 33 H -3.157294 2.402524 -0.339531 0
M  V30 34 H -2.856824 4.905547 -0.416573 0
M  V30 35 H 3.279929 3.139438 0.934062 0
M  V30 36 H 1.628398 1.227003 0.703066 0
M  V30 END ATOM
M  V30 BEGIN BOND
M  V30 1 2 1 2
M  V30 2 1 2 3
M  V30 3 1 3 4
M  V30 4 1 4 5
M  V30 5 1 5 6
M  V30 6 1 6 7
M  V30 7 1 7 8
M  V30 8 1 8 9
M  V30 9 1 9 10
M  V30 10 1 2 11
M  V30 11 2 11 12
M  V30 12 1 12 13
M  V30 13 2 13 14
M  V30 14 1 14 15
M  V30 15 1 15 16
M  V30 16 2 16 17
M  V30 17 1 17 18
M  V30 18 1 18 19
M  V30 19 1 10 5
M  V30 20 1 19 11
M  V30 21 2 19 15
M  V30 22 1 3 20
M  V30 23 1 4 21
M  V30 24 1 4 22
M  V30 25 1 5 23
M  V30 26 1 6 24
M  V30 27 1 6 25
M  V30 28 1 7 26
M  V30 29 1 7 27
M  V30 30 1 8 28
M  V30 31 1 8 29
M  V30 32 1 9 30
M  V30 33 1 10 31
M  V30 34 1 10 32
M  V30 35 1 12 33
M  V30 36 1 13 34
M  V30 37 1 17 35
M  V30 38 1 18 36
M  V30 END BOND
M  V30 END CTAB
M  END
>  <Dataset>  (367) 
ChEMBL_Kinases

>  <Ligand_Instance>  (367) 
nan

>  <PDB_ID>  (367) 
nan

>  <Standardized_SMILES>  (367) 
O=C(NCC1CCCNC1)c1ccnc2nc[nH]c12

>  <Name>  (367) 
nan

>  <Pocket>  (367) 
nan

>  <ATP_Site>  (367) 
nan

>  <Peripheral>  (367) 
nan

>  <Num_H_Atoms_ProtBoundConf>  (367) 
nan

>  <Num_Resolved_Atoms>  (367) 
nan

>  <Num_Not_Resolved_Atoms>  (367) 
nan

$$$$
CHEMBL3717776
     RDKit          3D

  0  0  0  0  0  0  0  0  0  0999 V3000
M  V30 BEGIN CTAB
M  V30 COUNTS 35 37 0 0 0
M  V30 BEGIN ATOM
M  V30 1 O 0.588747 -3.054369 4.548829 0
M  V30 2 C 1.284972 -3.575965 3.653982 0
M  V30 3 O 0.718561 -4.041934 2.472250 0
M  V30 4 C 2.703180 -3.571690 4.109386 0
M  V30 5 S 3.334494 -1.856964 4.275054 0
M  V30 6 C 3.349061 -1.201540 2.585917 0
M  V30 7 N 4.288539 -1.180317 1.606887 0
M  V30 8 N 3.759790 -0.569157 0.570968 0
M  V30 9 C 2.489178 -0.172305 0.809517 0
M  V30 10 C 1.604856 0.539179 -0.154081 0
M  V30 11 C 2.141630 0.852691 -1.370590 0
M  V30 12 C 1.339079 1.519426 -2.296103 0
M  V30 13 C 0.064273 1.783847 -1.843956 0
M  V30 14 C -0.505994 1.485767 -0.636058 0
M  V30 15 C -1.895859 1.841150 -0.291460 0
M  V30 16 N -2.890759 0.877033 -0.651702 0
M  V30 17 C -3.341378 -0.161446 0.072380 0
M  V30 18 C -4.312749 -0.847476 -0.624129 0
M  V30 19 C -4.416364 -0.153337 -1.815645 0
M  V30 20 N -3.547559 0.881246 -1.805757 0
M  V30 21 C 0.322637 0.807868 0.290124 0
M  V30 22 N 2.250578 -0.572102 2.064409 0
M  V30 23 H -0.101720 -3.562745 2.076296 0
M  V30 24 H 2.902849 -4.183739 4.981461 0
M  V30 25 H 3.276010 -4.021933 3.241424 0
M  V30 26 H 3.149450 0.625324 -1.670894 0
M  V30 27 H 1.646569 1.822809 -3.280000 0
M  V30 28 H -0.586139 2.312173 -2.565207 0
M  V30 29 H -1.918834 1.987613 0.813500 0
M  V30 30 H -2.076223 2.833191 -0.762353 0
M  V30 31 H -3.057062 -0.495576 1.045683 0
M  V30 32 H -4.958353 -1.691876 -0.511083 0
M  V30 33 H -5.017232 -0.236525 -2.733094 0
M  V30 34 H -0.028507 0.527977 1.265341 0
M  V30 35 H 1.334443 -0.417750 2.557995 0
M  V30 END ATOM
M  V30 BEGIN BOND
M  V30 1 2 1 2
M  V30 2 1 2 3
M  V30 3 1 2 4
M  V30 4 1 4 5
M  V30 5 1 5 6
M  V30 6 2 6 7
M  V30 7 1 7 8
M  V30 8 2 8 9
M  V30 9 1 9 10
M  V30 10 2 10 11
M  V30 11 1 11 12
M  V30 12 2 12 13
M  V30 13 1 13 14
M  V30 14 1 14 15
M  V30 15 1 15 16
M  V30 16 1 16 17
M  V30 17 2 17 18
M  V30 18 1 18 19
M  V30 19 2 19 20
M  V30 20 2 14 21
M  V30 21 1 9 22
M  V30 22 1 22 6
M  V30 23 1 21 10
M  V30 24 1 20 16
M  V30 25 1 3 23
M  V30 26 1 4 24
M  V30 27 1 4 25
M  V30 28 1 11 26
M  V30 29 1 12 27
M  V30 30 1 13 28
M  V30 31 1 15 29
M  V30 32 1 15 30
M  V30 33 1 17 31
M  V30 34 1 18 32
M  V30 35 1 19 33
M  V30 36 1 21 34
M  V30 37 1 22 35
M  V30 END BOND
M  V30 END CTAB
M  END
>  <Dataset>  (368) 
ChEMBL_Kinases

>  <Ligand_Instance>  (368) 
nan

>  <PDB_ID>  (368) 
nan

>  <Standardized_SMILES>  (368) 
O=C(O)CSc1nnc(-c2cccc(Cn3cccn3)c2)[nH]1

>  <Name>  (368) 
nan

>  <Pocket>  (368) 
nan

>  <ATP_Site>  (368) 
nan

>  <Peripheral>  (368) 
nan

>  <Num_H_Atoms_ProtBoundConf>  (368) 
nan

>  <Num_Resolved_Atoms>  (368) 
nan

>  <Num_Not_Resolved_Atoms>  (368) 
nan

$$$$
CHEMBL3717765
     RDKit          3D

  0  0  0  0  0  0  0  0  0  0999 V3000
M  V30 BEGIN CTAB
M  V30 COUNTS 46 49 0 0 0
M  V30 BEGIN ATOM
M  V30 1 O 1.595583 -3.789656 0.210229 0
M  V30 2 C 0.922724 -2.875868 0.771101 0
M  V30 3 N 1.080626 -1.578824 0.198867 0
M  V30 4 C 1.938115 -1.324340 -0.929479 0
M  V30 5 C 1.851909 0.153443 -1.259722 0
M  V30 6 C 2.293761 1.014567 -0.097986 0 CFG=1
M  V30 7 C 3.729617 0.687853 0.251694 0
M  V30 8 C 4.345891 1.724808 1.150437 0
M  V30 9 C 3.385144 2.785131 1.593414 0
M  V30 10 N 2.564170 3.350070 0.560059 0
M  V30 11 C 2.292666 2.454309 -0.537858 0
M  V30 12 C 0.060722 -3.178423 1.918827 0
M  V30 13 C 0.549078 -3.862935 3.034248 0
M  V30 14 C -0.323256 -4.114733 4.083817 0
M  V30 15 N -1.616313 -3.725458 4.066910 0
M  V30 16 C -2.127749 -3.061719 3.008257 0
M  V30 17 N -3.337157 -2.530951 2.649731 0
M  V30 18 C -3.171555 -1.997818 1.450610 0
M  V30 19 C -4.296844 -1.332221 0.772974 0
M  V30 20 C -5.590177 -1.095329 1.067269 0
M  V30 21 C -6.401664 -0.428822 0.206508 0
M  V30 22 C -5.842109 0.035528 -1.064864 0
M  V30 23 S -4.047998 -0.564375 -0.926102 0
M  V30 24 N -1.933773 -2.129181 0.967857 0
M  V30 25 C -1.280149 -2.803351 1.959954 0
M  V30 26 H 0.521110 -0.807102 0.664350 0
M  V30 27 H 1.620627 -1.883253 -1.830758 0
M  V30 28 H 2.989155 -1.559284 -0.765407 0
M  V30 29 H 0.750658 0.364379 -1.387515 0
M  V30 30 H 2.397445 0.409358 -2.171591 0
M  V30 31 H 1.607797 0.934904 0.758061 0
M  V30 32 H 4.292004 0.712149 -0.714124 0
M  V30 33 H 3.822111 -0.338779 0.647036 0
M  V30 34 H 5.247814 2.204685 0.719461 0
M  V30 35 H 4.663008 1.194853 2.075893 0
M  V30 36 H 2.686911 2.448116 2.403295 0
M  V30 37 H 3.983822 3.608918 2.036162 0
M  V30 38 H 2.951952 4.227951 0.149760 0
M  V30 39 H 3.069249 2.562431 -1.325464 0
M  V30 40 H 1.299491 2.714316 -0.954966 0
M  V30 41 H 1.568658 -4.156849 3.020487 0
M  V30 42 H 0.087502 -4.644367 4.926788 0
M  V30 43 H -5.988187 -1.444314 2.006821 0
M  V30 44 H -7.440672 -0.184020 0.333000 0
M  V30 45 H -6.309327 0.568091 -1.859005 0
M  V30 46 H -1.574096 -1.790355 0.048869 0
M  V30 END ATOM
M  V30 BEGIN BOND
M  V30 1 2 1 2
M  V30 2 1 2 3
M  V30 3 1 3 4
M  V30 4 1 4 5
M  V30 5 1 5 6
M  V30 6 1 6 7
M  V30 7 1 7 8
M  V30 8 1 8 9
M  V30 9 1 9 10
M  V30 10 1 10 11
M  V30 11 1 2 12
M  V30 12 2 12 13
M  V30 13 1 13 14
M  V30 14 2 14 15
M  V30 15 1 15 16
M  V30 16 1 16 17
M  V30 17 2 17 18
M  V30 18 1 18 19
M  V30 19 2 19 20
M  V30 20 1 20 21
M  V30 21 2 21 22
M  V30 22 1 22 23
M  V30 23 1 18 24
M  V30 24 1 24 25
M  V30 25 1 11 6
M  V30 26 1 25 12
M  V30 27 2 25 16
M  V30 28 1 23 19
M  V30 29 1 3 26
M  V30 30 1 4 27
M  V30 31 1 4 28
M  V30 32 1 5 29
M  V30 33 1 5 30
M  V30 34 1 6 31 CFG=1
M  V30 35 1 7 32
M  V30 36 1 7 33
M  V30 37 1 8 34
M  V30 38 1 8 35
M  V30 39 1 9 36
M  V30 40 1 9 37
M  V30 41 1 10 38
M  V30 42 1 11 39
M  V30 43 1 11 40
M  V30 44 1 13 41
M  V30 45 1 14 42
M  V30 46 1 20 43
M  V30 47 1 21 44
M  V30 48 1 22 45
M  V30 49 1 24 46
M  V30 END BOND
M  V30 END CTAB
M  END
>  <Dataset>  (369) 
ChEMBL_Kinases

>  <Ligand_Instance>  (369) 
nan

>  <PDB_ID>  (369) 
nan

>  <Standardized_SMILES>  (369) 
O=C(NCC[C@H]1CCCNC1)c1ccnc2nc(-c3cccs3)[nH]c12

>  <Name>  (369) 
nan

>  <Pocket>  (369) 
nan

>  <ATP_Site>  (369) 
nan

>  <Peripheral>  (369) 
nan

>  <Num_H_Atoms_ProtBoundConf>  (369) 
nan

>  <Num_Resolved_Atoms>  (369) 
nan

>  <Num_Not_Resolved_Atoms>  (369) 
nan

$$$$
CHEMBL3717761
     RDKit          3D

  0  0  0  0  0  0  0  0  0  0999 V3000
M  V30 BEGIN CTAB
M  V30 COUNTS 47 49 0 0 0
M  V30 BEGIN ATOM
M  V30 1 O 1.576980 -2.427684 2.251674 0
M  V30 2 C 2.356112 -1.588668 1.680078 0
M  V30 3 C 2.939649 -2.301453 0.524430 0
M  V30 4 O 3.820920 -1.532822 -0.232789 0
M  V30 5 C 3.529346 -0.374480 -0.919002 0
M  V30 6 C 4.702985 0.076406 -1.538368 0
M  V30 7 C 4.707012 1.242400 -2.312175 0
M  V30 8 C 3.544712 1.964242 -2.473131 0
M  V30 9 Cl 3.437030 3.427806 -3.413790 0
M  V30 10 C 2.394634 1.515334 -1.861548 0
M  V30 11 C 2.371219 0.371330 -1.096964 0
M  V30 12 N 2.501238 -0.278333 2.201563 0
M  V30 13 C 1.818836 0.213211 3.352475 0
M  V30 14 C 0.342120 0.224987 3.226808 0
M  V30 15 O -0.130686 0.668150 4.330982 0
M  V30 16 N -0.568016 -0.127486 2.210029 0
M  V30 17 C -1.960945 0.027608 2.477148 0
M  V30 18 C -2.576383 1.067226 1.572665 0
M  V30 19 C -2.079815 0.834409 0.168452 0
M  V30 20 C -2.531367 -0.540177 -0.268617 0
M  V30 21 C -2.937426 -1.391770 0.874226 0
M  V30 22 C -3.642531 -2.521978 0.438394 0
M  V30 23 C -4.125907 -3.469857 1.325164 0
M  V30 24 C -3.885505 -3.258374 2.664890 0
M  V30 25 C -3.197277 -2.160242 3.124691 0
M  V30 26 C -2.723660 -1.227329 2.226758 0
M  V30 27 H 2.149944 -2.697463 -0.154541 0
M  V30 28 H 3.504490 -3.187813 0.918285 0
M  V30 29 H 5.698597 -0.359637 -1.521233 0
M  V30 30 H 5.559080 1.652143 -2.816438 0
M  V30 31 H 1.410805 1.982652 -1.902552 0
M  V30 32 H 1.560980 -0.097914 -0.564696 0
M  V30 33 H 3.179866 0.263697 1.629245 0
M  V30 34 H 2.109963 1.297155 3.454125 0
M  V30 35 H 2.160777 -0.256738 4.299442 0
M  V30 36 H -0.063281 -0.463505 1.374808 0
M  V30 37 H -2.162372 0.382923 3.513905 0
M  V30 38 H -2.243981 2.048905 1.977341 0
M  V30 39 H -3.682853 0.979850 1.521012 0
M  V30 40 H -0.955604 0.859154 0.153986 0
M  V30 41 H -2.446164 1.622529 -0.533464 0
M  V30 42 H -1.735724 -1.057881 -0.867435 0
M  V30 43 H -3.420844 -0.397483 -0.936907 0
M  V30 44 H -3.878829 -2.769183 -0.607229 0
M  V30 45 H -4.667595 -4.347707 1.056756 0
M  V30 46 H -4.208271 -3.919277 3.448613 0
M  V30 47 H -2.962175 -1.911135 4.144531 0
M  V30 END ATOM
M  V30 BEGIN BOND
M  V30 1 2 1 2
M  V30 2 1 2 3
M  V30 3 1 3 4
M  V30 4 1 4 5
M  V30 5 2 5 6
M  V30 6 1 6 7
M  V30 7 2 7 8
M  V30 8 1 8 9
M  V30 9 1 8 10
M  V30 10 2 10 11
M  V30 11 1 2 12
M  V30 12 1 12 13
M  V30 13 1 13 14
M  V30 14 2 14 15
M  V30 15 1 14 16
M  V30 16 1 16 17
M  V30 17 1 17 18
M  V30 18 1 18 19
M  V30 19 1 19 20
M  V30 20 1 20 21
M  V30 21 2 21 22
M  V30 22 1 22 23
M  V30 23 2 23 24
M  V30 24 1 24 25
M  V30 25 2 25 26
M  V30 26 1 11 5
M  V30 27 1 26 17
M  V30 28 1 26 21
M  V30 29 1 3 27
M  V30 30 1 3 28
M  V30 31 1 6 29
M  V30 32 1 7 30
M  V30 33 1 10 31
M  V30 34 1 11 32
M  V30 35 1 12 33
M  V30 36 1 13 34
M  V30 37 1 13 35
M  V30 38 1 16 36
M  V30 39 1 17 37
M  V30 40 1 18 38
M  V30 41 1 18 39
M  V30 42 1 19 40
M  V30 43 1 19 41
M  V30 44 1 20 42
M  V30 45 1 20 43
M  V30 46 1 22 44
M  V30 47 1 23 45
M  V30 48 1 24 46
M  V30 49 1 25 47
M  V30 END BOND
M  V30 END CTAB
M  END
>  <Dataset>  (370) 
ChEMBL_Kinases

>  <Ligand_Instance>  (370) 
nan

>  <PDB_ID>  (370) 
nan

>  <Standardized_SMILES>  (370) 
O=C(COc1ccc(Cl)cc1)NCC(=O)NC1CCCc2ccccc21

>  <Name>  (370) 
nan

>  <Pocket>  (370) 
nan

>  <ATP_Site>  (370) 
nan

>  <Peripheral>  (370) 
nan

>  <Num_H_Atoms_ProtBoundConf>  (370) 
nan

>  <Num_Resolved_Atoms>  (370) 
nan

>  <Num_Not_Resolved_Atoms>  (370) 
nan

$$$$
CHEMBL3714961
     RDKit          3D

  0  0  0  0  0  0  0  0  0  0999 V3000
M  V30 BEGIN CTAB
M  V30 COUNTS 49 52 0 0 0
M  V30 BEGIN ATOM
M  V30 1 C -0.295214 -5.458609 6.347034 0
M  V30 2 C 0.261462 -4.915962 5.052031 0
M  V30 3 O -0.019878 -3.526523 4.911376 0
M  V30 4 C 0.430479 -2.879765 3.763011 0
M  V30 5 C 0.102080 -1.518328 3.724734 0
M  V30 6 C 0.526913 -0.808330 2.593656 0
M  V30 7 C 1.230262 -1.378562 1.554240 0
M  V30 8 N 1.643951 -0.623144 0.420477 0
M  V30 9 C 1.430786 0.761025 0.127337 0
M  V30 10 C 2.102067 1.180373 -1.134094 0
M  V30 11 C 1.458748 1.976047 -2.077300 0
M  V30 12 C 2.111189 2.350670 -3.248669 0
M  V30 13 C 3.403970 1.906860 -3.433175 0
M  V30 14 C 4.039079 1.111138 -2.483202 0
M  V30 15 N 3.370491 0.769170 -1.358454 0
M  V30 16 C -0.042731 1.087008 0.044482 0
M  V30 17 C -0.775165 2.065909 0.656026 0
M  V30 18 C -2.125901 2.164011 0.403003 0
M  V30 19 C -2.757852 1.288106 -0.460906 0
M  V30 20 C -4.102696 1.498089 -0.621839 0
M  V30 21 C -4.790384 0.638137 -1.485730 0
M  V30 22 C -4.020819 -0.337897 -2.085221 0
M  V30 23 N -2.700313 -0.533641 -1.919045 0
M  V30 24 C -2.018879 0.297395 -1.080150 0
M  V30 25 C -0.657407 0.197132 -0.826097 0
M  V30 26 O -0.066837 -0.846569 -1.523803 0
M  V30 27 C 1.532904 -2.721469 1.631690 0
M  V30 28 C 1.133195 -3.452984 2.726622 0
M  V30 29 H -0.788972 -6.422842 6.209777 0
M  V30 30 H 0.439585 -5.450213 7.176619 0
M  V30 31 H -1.093821 -4.731434 6.670092 0
M  V30 32 H -0.218496 -5.463874 4.229874 0
M  V30 33 H 1.346153 -5.078777 5.053409 0
M  V30 34 H -0.450929 -1.017110 4.516173 0
M  V30 35 H 0.263412 0.228570 2.595940 0
M  V30 36 H 2.191023 -1.151353 -0.325038 0
M  V30 37 H 1.828841 1.368940 0.958070 0
M  V30 38 H 0.453889 2.259096 -1.823098 0
M  V30 39 H 1.568619 2.969604 -3.949220 0
M  V30 40 H 3.935133 2.183169 -4.334492 0
M  V30 41 H 5.064645 0.781843 -2.670533 0
M  V30 42 H -0.155959 2.675152 1.300212 0
M  V30 43 H -2.636557 2.975417 0.931760 0
M  V30 44 H -4.660828 2.268030 -0.136893 0
M  V30 45 H -5.851846 0.698738 -1.696841 0
M  V30 46 H -4.447030 -1.065204 -2.776713 0
M  V30 47 H -0.034616 -0.726415 -2.547733 0
M  V30 48 H 2.081995 -3.192552 0.832386 0
M  V30 49 H 1.355155 -4.505526 2.813813 0
M  V30 END ATOM
M  V30 BEGIN BOND
M  V30 1 1 1 2
M  V30 2 1 2 3
M  V30 3 1 3 4
M  V30 4 2 4 5
M  V30 5 1 5 6
M  V30 6 2 6 7
M  V30 7 1 7 8
M  V30 8 1 8 9
M  V30 9 1 9 10
M  V30 10 2 10 11
M  V30 11 1 11 12
M  V30 12 2 12 13
M  V30 13 1 13 14
M  V30 14 2 14 15
M  V30 15 1 9 16
M  V30 16 2 16 17
M  V30 17 1 17 18
M  V30 18 2 18 19
M  V30 19 1 19 20
M  V30 20 2 20 21
M  V30 21 1 21 22
M  V30 22 2 22 23
M  V30 23 1 23 24
M  V30 24 2 24 25
M  V30 25 1 25 26
M  V30 26 1 7 27
M  V30 27 2 27 28
M  V30 28 1 28 4
M  V30 29 1 15 10
M  V30 30 1 25 16
M  V30 31 1 24 19
M  V30 32 1 1 29
M  V30 33 1 1 30
M  V30 34 1 1 31
M  V30 35 1 2 32
M  V30 36 1 2 33
M  V30 37 1 5 34
M  V30 38 1 6 35
M  V30 39 1 8 36
M  V30 40 1 9 37
M  V30 41 1 11 38
M  V30 42 1 12 39
M  V30 43 1 13 40
M  V30 44 1 14 41
M  V30 45 1 17 42
M  V30 46 1 18 43
M  V30 47 1 20 44
M  V30 48 1 21 45
M  V30 49 1 22 46
M  V30 50 1 26 47
M  V30 51 1 27 48
M  V30 52 1 28 49
M  V30 END BOND
M  V30 END CTAB
M  END
>  <Dataset>  (371) 
ChEMBL_Kinases

>  <Ligand_Instance>  (371) 
nan

>  <PDB_ID>  (371) 
nan

>  <Standardized_SMILES>  (371) 
CCOc1ccc(NC(c2ccccn2)c2ccc3cccnc3c2O)cc1

>  <Name>  (371) 
nan

>  <Pocket>  (371) 
nan

>  <ATP_Site>  (371) 
nan

>  <Peripheral>  (371) 
nan

>  <Num_H_Atoms_ProtBoundConf>  (371) 
nan

>  <Num_Resolved_Atoms>  (371) 
nan

>  <Num_Not_Resolved_Atoms>  (371) 
nan

$$$$
CHEMBL3714913
     RDKit          3D

  0  0  0  0  0  0  0  0  0  0999 V3000
M  V30 BEGIN CTAB
M  V30 COUNTS 37 40 0 0 0
M  V30 BEGIN ATOM
M  V30 1 N -2.950559 1.899689 3.048484 0
M  V30 2 C -1.797207 1.469924 2.351254 0
M  V30 3 N -1.588232 0.197910 1.905357 0
M  V30 4 C -0.440719 -0.117767 1.241645 0
M  V30 5 N -0.442659 -1.492217 0.905614 0
M  V30 6 C 0.239086 -2.759602 1.210849 0
M  V30 7 C 0.346841 -3.617160 -0.023435 0
M  V30 8 C -1.014692 -4.253389 -0.266845 0
M  V30 9 C -2.039166 -3.191596 0.084778 0
M  V30 10 C -1.463467 -1.799090 -0.082902 0
M  V30 11 C 0.487388 0.868186 1.036045 0
M  V30 12 C 0.298333 2.145217 1.473514 0
M  V30 13 N -0.849503 2.390766 2.119193 0
M  V30 14 N 1.389367 2.839499 1.104053 0
M  V30 15 C 2.239867 2.025729 0.452859 0
M  V30 16 C 3.472034 2.250691 -0.118723 0
M  V30 17 C 4.150642 1.225783 -0.743800 0
M  V30 18 C 3.580709 -0.041336 -0.793738 0
M  V30 19 Cl 4.518858 -1.287604 -1.612261 0
M  V30 20 C 2.346890 -0.247760 -0.216197 0
M  V30 21 C 1.680797 0.775655 0.402674 0
M  V30 22 H -2.833949 1.768806 4.080855 0
M  V30 23 H -3.889147 2.313301 2.810203 0
M  V30 24 H 1.228839 -2.566609 1.676979 0
M  V30 25 H -0.329871 -3.359568 1.954552 0
M  V30 26 H 0.603371 -3.085001 -0.937875 0
M  V30 27 H 1.032582 -4.466638 0.202204 0
M  V30 28 H -1.184164 -5.127606 0.392918 0
M  V30 29 H -1.145067 -4.486701 -1.339551 0
M  V30 30 H -2.380287 -3.309652 1.134749 0
M  V30 31 H -2.917913 -3.276284 -0.581996 0
M  V30 32 H -0.952363 -1.777710 -1.080627 0
M  V30 33 H -2.313743 -1.118186 -0.091786 0
M  V30 34 H 1.481017 3.859735 1.330871 0
M  V30 35 H 3.887571 3.243932 -0.063677 0
M  V30 36 H 5.117038 1.415357 -1.188364 0
M  V30 37 H 2.029125 -1.265127 -0.334901 0
M  V30 END ATOM
M  V30 BEGIN BOND
M  V30 1 1 1 2
M  V30 2 2 2 3
M  V30 3 1 3 4
M  V30 4 1 4 5
M  V30 5 1 5 6
M  V30 6 1 6 7
M  V30 7 1 7 8
M  V30 8 1 8 9
M  V30 9 1 9 10
M  V30 10 2 4 11
M  V30 11 1 11 12
M  V30 12 2 12 13
M  V30 13 1 12 14
M  V30 14 1 14 15
M  V30 15 2 15 16
M  V30 16 1 16 17
M  V30 17 2 17 18
M  V30 18 1 18 19
M  V30 19 1 18 20
M  V30 20 2 20 21
M  V30 21 1 13 2
M  V30 22 1 21 15
M  V30 23 1 10 5
M  V30 24 1 21 11
M  V30 25 1 1 22
M  V30 26 1 1 23
M  V30 27 1 6 24
M  V30 28 1 6 25
M  V30 29 1 7 26
M  V30 30 1 7 27
M  V30 31 1 8 28
M  V30 32 1 8 29
M  V30 33 1 9 30
M  V30 34 1 9 31
M  V30 35 1 10 32
M  V30 36 1 10 33
M  V30 37 1 14 34
M  V30 38 1 16 35
M  V30 39 1 17 36
M  V30 40 1 20 37
M  V30 END BOND
M  V30 END CTAB
M  END
>  <Dataset>  (372) 
ChEMBL_Kinases

>  <Ligand_Instance>  (372) 
nan

>  <PDB_ID>  (372) 
nan

>  <Standardized_SMILES>  (372) 
Nc1nc(N2CCCCC2)c2c(n1)[nH]c1ccc(Cl)cc12

>  <Name>  (372) 
nan

>  <Pocket>  (372) 
nan

>  <ATP_Site>  (372) 
nan

>  <Peripheral>  (372) 
nan

>  <Num_H_Atoms_ProtBoundConf>  (372) 
nan

>  <Num_Resolved_Atoms>  (372) 
nan

>  <Num_Not_Resolved_Atoms>  (372) 
nan

$$$$
CHEMBL3718455
     RDKit          3D

  0  0  0  0  0  0  0  0  0  0999 V3000
M  V30 BEGIN CTAB
M  V30 COUNTS 37 40 0 0 0
M  V30 BEGIN ATOM
M  V30 1 C 3.389332 -0.592099 3.846578 0
M  V30 2 C 2.217681 -0.326535 2.961635 0
M  V30 3 N 1.994391 -1.007261 1.799080 0
M  V30 4 C 0.919127 -0.735959 1.025464 0
M  V30 5 N 0.884653 -1.580578 -0.096343 0
M  V30 6 C 0.105872 -2.698989 -0.659021 0
M  V30 7 C 0.950328 -3.952351 -0.677475 0
M  V30 8 O 2.271029 -3.591309 -0.372104 0
M  V30 9 C 2.729057 -2.606445 -1.217473 0
M  V30 10 C 1.935735 -1.335074 -1.082027 0
M  V30 11 C 0.056494 0.244072 1.439219 0
M  V30 12 C 0.253323 0.948404 2.606390 0
M  V30 13 N 1.342373 0.627070 3.327794 0
M  V30 14 N -0.761222 1.825662 2.711671 0
M  V30 15 C -1.573716 1.684850 1.648573 0
M  V30 16 C -2.738897 2.321320 1.255900 0
M  V30 17 C -3.404233 1.992552 0.085479 0
M  V30 18 C -2.878084 0.980525 -0.727907 0
M  V30 19 O -3.591942 0.697344 -1.889071 0
M  V30 20 C -1.718795 0.348256 -0.335389 0
M  V30 21 C -1.082426 0.693898 0.827716 0
M  V30 22 H 3.910916 0.374996 3.993916 0
M  V30 23 H 3.056117 -1.028435 4.810649 0
M  V30 24 H 4.095882 -1.290843 3.337227 0
M  V30 25 H -0.770567 -2.863527 0.016873 0
M  V30 26 H -0.267569 -2.462098 -1.673139 0
M  V30 27 H 0.848944 -4.494994 -1.627800 0
M  V30 28 H 0.653714 -4.648189 0.160002 0
M  V30 29 H 3.782407 -2.378551 -0.955434 0
M  V30 30 H 2.717745 -3.008960 -2.251651 0
M  V30 31 H 2.575310 -0.479121 -0.849294 0
M  V30 32 H 1.495348 -1.120690 -2.088335 0
M  V30 33 H -0.870721 2.493056 3.502385 0
M  V30 34 H -3.151629 3.111113 1.888427 0
M  V30 35 H -4.313510 2.503455 -0.201141 0
M  V30 36 H -4.040337 -0.205963 -2.051276 0
M  V30 37 H -1.424485 -0.395022 -1.047128 0
M  V30 END ATOM
M  V30 BEGIN BOND
M  V30 1 1 1 2
M  V30 2 2 2 3
M  V30 3 1 3 4
M  V30 4 1 4 5
M  V30 5 1 5 6
M  V30 6 1 6 7
M  V30 7 1 7 8
M  V30 8 1 8 9
M  V30 9 1 9 10
M  V30 10 2 4 11
M  V30 11 1 11 12
M  V30 12 2 12 13
M  V30 13 1 12 14
M  V30 14 1 14 15
M  V30 15 2 15 16
M  V30 16 1 16 17
M  V30 17 2 17 18
M  V30 18 1 18 19
M  V30 19 1 18 20
M  V30 20 2 20 21
M  V30 21 1 13 2
M  V30 22 1 21 15
M  V30 23 1 10 5
M  V30 24 1 21 11
M  V30 25 1 1 22
M  V30 26 1 1 23
M  V30 27 1 1 24
M  V30 28 1 6 25
M  V30 29 1 6 26
M  V30 30 1 7 27
M  V30 31 1 7 28
M  V30 32 1 9 29
M  V30 33 1 9 30
M  V30 34 1 10 31
M  V30 35 1 10 32
M  V30 36 1 14 33
M  V30 37 1 16 34
M  V30 38 1 17 35
M  V30 39 1 19 36
M  V30 40 1 20 37
M  V30 END BOND
M  V30 END CTAB
M  END
>  <Dataset>  (373) 
ChEMBL_Kinases

>  <Ligand_Instance>  (373) 
nan

>  <PDB_ID>  (373) 
nan

>  <Standardized_SMILES>  (373) 
Cc1nc(N2CCOCC2)c2c(n1)[nH]c1ccc(O)cc12

>  <Name>  (373) 
nan

>  <Pocket>  (373) 
nan

>  <ATP_Site>  (373) 
nan

>  <Peripheral>  (373) 
nan

>  <Num_H_Atoms_ProtBoundConf>  (373) 
nan

>  <Num_Resolved_Atoms>  (373) 
nan

>  <Num_Not_Resolved_Atoms>  (373) 
nan

$$$$
CHEMBL3718453
     RDKit          3D

  0  0  0  0  0  0  0  0  0  0999 V3000
M  V30 BEGIN CTAB
M  V30 COUNTS 49 53 0 0 0
M  V30 BEGIN ATOM
M  V30 1 O 3.360557 -0.644766 1.259072 0
M  V30 2 C 2.251710 -0.330511 1.757736 0
M  V30 3 N 2.262820 0.840759 2.546146 0
M  V30 4 C 3.168583 1.832526 2.974537 0
M  V30 5 C 3.824510 2.700585 1.951843 0
M  V30 6 C 4.797803 2.043134 1.031387 0
M  V30 7 O 4.326255 1.839064 -0.258578 0
M  V30 8 C 2.992368 1.995323 -0.560340 0
M  V30 9 C 2.494569 1.273668 -1.654202 0
M  V30 10 C 1.159018 1.420377 -1.968302 0
M  V30 11 C 0.341158 2.250679 -1.229025 0
M  V30 12 C 0.838053 2.968269 -0.140700 0
M  V30 13 C 2.169765 2.820523 0.170637 0
M  V30 14 O 2.878347 3.420324 1.189395 0
M  V30 15 C 1.122794 -1.196586 1.464168 0
M  V30 16 C 1.368403 -2.286215 0.664877 0
M  V30 17 C 0.320621 -3.159069 0.345762 0
M  V30 18 C -0.962028 -2.976275 0.800216 0
M  V30 19 C -1.194247 -1.893651 1.591319 0
M  V30 20 C -0.163090 -1.033974 1.905824 0
M  V30 21 N -2.417528 -1.469006 2.193787 0
M  V30 22 C -3.724918 -1.870150 1.773096 0
M  V30 23 O -4.648519 -1.193195 2.279596 0
M  V30 24 C -4.098843 -2.941010 0.852606 0
M  V30 25 C -5.459964 -2.967218 0.622087 0
M  V30 26 C -5.927871 -3.936959 -0.231375 0
M  V30 27 C -5.129866 -4.864884 -0.856389 0
M  V30 28 C -3.767545 -4.845699 -0.631347 0
M  V30 29 C -3.293233 -3.871333 0.226829 0
M  V30 30 N -1.874237 -3.978666 0.358629 0
M  V30 31 H 1.254315 0.962842 2.896059 0
M  V30 32 H 3.963584 1.343773 3.640035 0
M  V30 33 H 2.660719 2.516902 3.703540 0
M  V30 34 H 4.413213 3.471730 2.557531 0
M  V30 35 H 5.661323 2.788666 0.907294 0
M  V30 36 H 5.318756 1.175361 1.494996 0
M  V30 37 H 3.067729 0.602216 -2.285002 0
M  V30 38 H 0.624120 0.928244 -2.787214 0
M  V30 39 H -0.723047 2.409839 -1.426091 0
M  V30 40 H 0.279463 3.639121 0.494023 0
M  V30 41 H 2.331573 -2.540386 0.244668 0
M  V30 42 H 0.515558 -4.016302 -0.283499 0
M  V30 43 H -0.375257 -0.185823 2.533381 0
M  V30 44 H -2.324310 -0.818309 2.998378 0
M  V30 45 H -6.114500 -2.257807 1.093082 0
M  V30 46 H -6.986959 -4.027192 -0.467029 0
M  V30 47 H -5.500703 -5.627784 -1.528236 0
M  V30 48 H -3.068984 -5.537523 -1.081394 0
M  V30 49 H -1.419137 -4.881085 0.111788 0
M  V30 END ATOM
M  V30 BEGIN BOND
M  V30 1 2 1 2
M  V30 2 1 2 3
M  V30 3 1 3 4
M  V30 4 1 4 5
M  V30 5 1 5 6
M  V30 6 1 6 7
M  V30 7 1 7 8
M  V30 8 2 8 9
M  V30 9 1 9 10
M  V30 10 2 10 11
M  V30 11 1 11 12
M  V30 12 2 12 13
M  V30 13 1 13 14
M  V30 14 1 2 15
M  V30 15 2 15 16
M  V30 16 1 16 17
M  V30 17 2 17 18
M  V30 18 1 18 19
M  V30 19 2 19 20
M  V30 20 1 19 21
M  V30 21 1 21 22
M  V30 22 2 22 23
M  V30 23 1 22 24
M  V30 24 2 24 25
M  V30 25 1 25 26
M  V30 26 2 26 27
M  V30 27 1 27 28
M  V30 28 2 28 29
M  V30 29 1 29 30
M  V30 30 1 14 5
M  V30 31 1 20 15
M  V30 32 1 29 24
M  V30 33 1 13 8
M  V30 34 1 30 18
M  V30 35 1 3 31
M  V30 36 1 4 32
M  V30 37 1 4 33
M  V30 38 1 5 34
M  V30 39 1 6 35
M  V30 40 1 6 36
M  V30 41 1 9 37
M  V30 42 1 10 38
M  V30 43 1 11 39
M  V30 44 1 12 40
M  V30 45 1 16 41
M  V30 46 1 17 42
M  V30 47 1 20 43
M  V30 48 1 21 44
M  V30 49 1 25 45
M  V30 50 1 26 46
M  V30 51 1 27 47
M  V30 52 1 28 48
M  V30 53 1 30 49
M  V30 END BOND
M  V30 END CTAB
M  END
>  <Dataset>  (374) 
ChEMBL_Kinases

>  <Ligand_Instance>  (374) 
nan

>  <PDB_ID>  (374) 
nan

>  <Standardized_SMILES>  (374) 
O=C(NCC1COc2ccccc2O1)c1ccc2c(c1)NC(=O)c1ccccc1N2

>  <Name>  (374) 
nan

>  <Pocket>  (374) 
nan

>  <ATP_Site>  (374) 
nan

>  <Peripheral>  (374) 
nan

>  <Num_H_Atoms_ProtBoundConf>  (374) 
nan

>  <Num_Resolved_Atoms>  (374) 
nan

>  <Num_Not_Resolved_Atoms>  (374) 
nan

$$$$
CHEMBL3718452
     RDKit          3D

  0  0  0  0  0  0  0  0  0  0999 V3000
M  V30 BEGIN CTAB
M  V30 COUNTS 32 33 0 0 0
M  V30 BEGIN ATOM
M  V30 1 C -1.221862 -4.152854 4.409301 0
M  V30 2 C -1.148450 -5.294830 3.428620 0
M  V30 3 S -1.972427 -4.943210 1.860041 0
M  V30 4 C -1.178709 -3.662966 0.934828 0
M  V30 5 C -1.612285 -2.355839 1.172142 0
M  V30 6 C -1.074089 -1.251109 0.514183 0
M  V30 7 C -0.072278 -1.494682 -0.404227 0
M  V30 8 C 0.525891 -0.369099 -1.120938 0
M  V30 9 N 1.509821 -0.439257 -2.043174 0
M  V30 10 N 1.801024 0.777180 -2.478155 0
M  V30 11 C 0.998316 1.657292 -1.833741 0
M  V30 12 S 0.794038 3.448312 -1.872148 0
M  V30 13 C 1.909805 4.123165 -0.645844 0
M  V30 14 C 1.861707 5.594840 -0.548865 0
M  V30 15 O 1.193239 6.500204 -1.156239 0
M  V30 16 O 2.663287 6.274439 0.356567 0
M  V30 17 N 0.219363 0.935019 -1.001725 0
M  V30 18 C 0.379682 -2.774095 -0.662559 0
M  V30 19 C -0.171921 -3.850391 0.004510 0
M  V30 20 H -1.448242 -3.185147 3.918268 0
M  V30 21 H -0.237252 -4.091961 4.917618 0
M  V30 22 H -1.962007 -4.360097 5.233077 0
M  V30 23 H -0.123227 -5.652243 3.306194 0
M  V30 24 H -1.733048 -6.148328 3.881183 0
M  V30 25 H -2.400642 -2.122522 1.889597 0
M  V30 26 H -1.436237 -0.258220 0.725421 0
M  V30 27 H 1.644951 3.640324 0.335495 0
M  V30 28 H 2.934531 3.739420 -0.865370 0
M  V30 29 H 2.313921 7.016744 0.984607 0
M  V30 30 H -0.537360 1.243162 -0.325760 0
M  V30 31 H 1.175735 -3.005012 -1.386674 0
M  V30 32 H 0.102612 -4.882537 -0.118858 0
M  V30 END ATOM
M  V30 BEGIN BOND
M  V30 1 1 1 2
M  V30 2 1 2 3
M  V30 3 1 3 4
M  V30 4 2 4 5
M  V30 5 1 5 6
M  V30 6 2 6 7
M  V30 7 1 7 8
M  V30 8 2 8 9
M  V30 9 1 9 10
M  V30 10 2 10 11
M  V30 11 1 11 12
M  V30 12 1 12 13
M  V30 13 1 13 14
M  V30 14 2 14 15
M  V30 15 1 14 16
M  V30 16 1 11 17
M  V30 17 1 7 18
M  V30 18 2 18 19
M  V30 19 1 19 4
M  V30 20 1 17 8
M  V30 21 1 1 20
M  V30 22 1 1 21
M  V30 23 1 1 22
M  V30 24 1 2 23
M  V30 25 1 2 24
M  V30 26 1 5 25
M  V30 27 1 6 26
M  V30 28 1 13 27
M  V30 29 1 13 28
M  V30 30 1 16 29
M  V30 31 1 17 30
M  V30 32 1 18 31
M  V30 33 1 19 32
M  V30 END BOND
M  V30 END CTAB
M  END
>  <Dataset>  (375) 
ChEMBL_Kinases

>  <Ligand_Instance>  (375) 
nan

>  <PDB_ID>  (375) 
nan

>  <Standardized_SMILES>  (375) 
CCSc1ccc(-c2nnc(SCC(=O)O)[nH]2)cc1

>  <Name>  (375) 
nan

>  <Pocket>  (375) 
nan

>  <ATP_Site>  (375) 
nan

>  <Peripheral>  (375) 
nan

>  <Num_H_Atoms_ProtBoundConf>  (375) 
nan

>  <Num_Resolved_Atoms>  (375) 
nan

>  <Num_Not_Resolved_Atoms>  (375) 
nan

$$$$
CHEMBL3718439
     RDKit          3D

  0  0  0  0  0  0  0  0  0  0999 V3000
M  V30 BEGIN CTAB
M  V30 COUNTS 43 46 0 0 0
M  V30 BEGIN ATOM
M  V30 1 N 1.514793 -5.764019 0.664208 0
M  V30 2 C 0.704296 -4.565276 0.521622 0
M  V30 3 C -0.278257 -4.570591 1.649341 0
M  V30 4 C -1.143219 -3.339205 1.544766 0
M  V30 5 C -0.352653 -2.068955 1.527194 0
M  V30 6 C 1.140236 -2.244749 1.441719 0
M  V30 7 N 1.645066 -1.024528 0.774137 0
M  V30 8 C 2.599726 -0.092384 1.267444 0
M  V30 9 O 3.099706 -0.299887 2.404092 0
M  V30 10 C 2.791582 0.978223 0.255670 0
M  V30 11 C 3.874295 1.249289 -0.578640 0
M  V30 12 C 3.775364 2.325786 -1.430550 0
M  V30 13 N 2.691684 3.114593 -1.487974 0
M  V30 14 C 1.635731 2.868068 -0.689598 0
M  V30 15 N 0.446304 3.523013 -0.579985 0
M  V30 16 C -0.280144 2.876342 0.367345 0
M  V30 17 C -1.653466 3.246273 0.818463 0
M  V30 18 C -2.405070 2.617017 1.734221 0
M  V30 19 C -3.641965 3.144840 1.996174 0
M  V30 20 C -4.035208 4.308045 1.284948 0
M  V30 21 S -2.504262 4.609968 0.201107 0
M  V30 22 N 0.472290 1.871906 0.796402 0
M  V30 23 C 1.668340 1.794528 0.196354 0
M  V30 24 C 1.596807 -3.377635 0.576094 0
M  V30 25 H 1.664328 -6.028060 1.642577 0
M  V30 26 H 1.273497 -6.520792 0.005840 0
M  V30 27 H 0.176780 -4.633190 -0.472060 0
M  V30 28 H 0.255807 -4.561815 2.604603 0
M  V30 29 H -0.957972 -5.455667 1.548975 0
M  V30 30 H -1.717030 -3.401164 0.595541 0
M  V30 31 H -1.906117 -3.394631 2.351538 0
M  V30 32 H -0.579171 -1.517648 2.465301 0
M  V30 33 H -0.702328 -1.392862 0.695291 0
M  V30 34 H 1.548390 -2.378766 2.443310 0
M  V30 35 H 1.142272 -0.995599 -0.162091 0
M  V30 36 H 4.664754 0.533325 -0.420566 0
M  V30 37 H 4.654614 2.469879 -2.044903 0
M  V30 38 H -2.047475 1.735409 2.241509 0
M  V30 39 H -4.346355 2.713087 2.726606 0
M  V30 40 H -5.052254 4.803091 1.450854 0
M  V30 41 H 0.132448 1.223745 1.529795 0
M  V30 42 H 1.787801 -3.059209 -0.494209 0
M  V30 43 H 2.621005 -3.699175 0.926325 0
M  V30 END ATOM
M  V30 BEGIN BOND
M  V30 1 1 1 2
M  V30 2 1 2 3
M  V30 3 1 3 4
M  V30 4 1 4 5
M  V30 5 1 5 6
M  V30 6 1 6 7
M  V30 7 1 7 8
M  V30 8 2 8 9
M  V30 9 1 8 10
M  V30 10 2 10 11
M  V30 11 1 11 12
M  V30 12 2 12 13
M  V30 13 1 13 14
M  V30 14 1 14 15
M  V30 15 2 15 16
M  V30 16 1 16 17
M  V30 17 2 17 18
M  V30 18 1 18 19
M  V30 19 2 19 20
M  V30 20 1 20 21
M  V30 21 1 16 22
M  V30 22 1 22 23
M  V30 23 1 6 24
M  V30 24 1 24 2
M  V30 25 1 23 10
M  V30 26 2 23 14
M  V30 27 1 21 17
M  V30 28 1 1 25
M  V30 29 1 1 26
M  V30 30 1 2 27
M  V30 31 1 3 28
M  V30 32 1 3 29
M  V30 33 1 4 30
M  V30 34 1 4 31
M  V30 35 1 5 32
M  V30 36 1 5 33
M  V30 37 1 6 34
M  V30 38 1 7 35
M  V30 39 1 11 36
M  V30 40 1 12 37
M  V30 41 1 18 38
M  V30 42 1 19 39
M  V30 43 1 20 40
M  V30 44 1 22 41
M  V30 45 1 24 42
M  V30 46 1 24 43
M  V30 END BOND
M  V30 END CTAB
M  END
>  <Dataset>  (376) 
ChEMBL_Kinases

>  <Ligand_Instance>  (376) 
nan

>  <PDB_ID>  (376) 
nan

>  <Standardized_SMILES>  (376) 
NC1CCCC(NC(=O)c2ccnc3nc(-c4cccs4)[nH]c23)C1

>  <Name>  (376) 
nan

>  <Pocket>  (376) 
nan

>  <ATP_Site>  (376) 
nan

>  <Peripheral>  (376) 
nan

>  <Num_H_Atoms_ProtBoundConf>  (376) 
nan

>  <Num_Resolved_Atoms>  (376) 
nan

>  <Num_Not_Resolved_Atoms>  (376) 
nan

$$$$
CHEMBL3718423
     RDKit          3D

  0  0  0  0  0  0  0  0  0  0999 V3000
M  V30 BEGIN CTAB
M  V30 COUNTS 46 49 0 0 0
M  V30 BEGIN ATOM
M  V30 1 O -0.107678 -0.778156 4.201093 0
M  V30 2 C 0.119326 0.032314 3.249339 0
M  V30 3 N 1.288070 -0.180979 2.446975 0
M  V30 4 C 2.205375 -1.279215 2.687537 0
M  V30 5 C 3.368264 -1.299333 1.717126 0 CFG=2
M  V30 6 C 2.860389 -1.434330 0.297879 0
M  V30 7 C 3.996483 -1.659173 -0.659331 0
M  V30 8 C 5.314816 -1.725406 0.110960 0
M  V30 9 N 5.191840 -2.806915 1.052409 0
M  V30 10 C 4.281067 -2.423347 2.112193 0
M  V30 11 C -0.657233 1.212876 2.812179 0
M  V30 12 C -0.806339 2.372278 3.560374 0
M  V30 13 C -1.554323 3.426989 3.049475 0
M  V30 14 N -2.145624 3.351908 1.831010 0
M  V30 15 C -1.996902 2.223854 1.109997 0
M  V30 16 N -2.460270 1.873446 -0.098978 0
M  V30 17 C -2.053058 0.625989 -0.418201 0
M  V30 18 C -2.411961 -0.037577 -1.701959 0
M  V30 19 C -3.689977 -0.734680 -1.640651 0
M  V30 20 C -5.027121 -0.287172 -1.923865 0
M  V30 21 C -6.052279 -1.170701 -1.779618 0
M  V30 22 C -5.787368 -2.526685 -1.350311 0
M  V30 23 S -3.901475 -2.509117 -1.141919 0
M  V30 24 N -1.304406 0.173029 0.628688 0
M  V30 25 C -1.268749 1.145646 1.562370 0
M  V30 26 H 1.553666 0.441007 1.639384 0
M  V30 27 H 1.655183 -2.246289 2.593194 0
M  V30 28 H 2.621553 -1.268999 3.726638 0
M  V30 29 H 3.865607 -0.311037 1.809040 0
M  V30 30 H 2.387179 -0.480706 -0.006960 0
M  V30 31 H 2.165383 -2.291045 0.286047 0
M  V30 32 H 3.854405 -2.559141 -1.280158 0
M  V30 33 H 4.136973 -0.817632 -1.389885 0
M  V30 34 H 5.462294 -0.750529 0.590939 0
M  V30 35 H 6.099275 -1.979285 -0.650293 0
M  V30 36 H 4.727975 -3.616263 0.555073 0
M  V30 37 H 4.926783 -2.066460 2.944866 0
M  V30 38 H 3.707091 -3.286061 2.466007 0
M  V30 39 H -0.316295 2.382191 4.524039 0
M  V30 40 H -1.629787 4.302715 3.686149 0
M  V30 41 H -1.599656 -0.719321 -2.030649 0
M  V30 42 H -2.498966 0.747892 -2.479744 0
M  V30 43 H -5.074294 0.733923 -2.230418 0
M  V30 44 H -7.051362 -0.832201 -1.991827 0
M  V30 45 H -6.652895 -3.232398 -1.240479 0
M  V30 46 H -0.852683 -0.782370 0.652167 0
M  V30 END ATOM
M  V30 BEGIN BOND
M  V30 1 2 1 2
M  V30 2 1 2 3
M  V30 3 1 3 4
M  V30 4 1 4 5
M  V30 5 1 5 6
M  V30 6 1 6 7
M  V30 7 1 7 8
M  V30 8 1 8 9
M  V30 9 1 9 10
M  V30 10 1 2 11
M  V30 11 2 11 12
M  V30 12 1 12 13
M  V30 13 2 13 14
M  V30 14 1 14 15
M  V30 15 1 15 16
M  V30 16 2 16 17
M  V30 17 1 17 18
M  V30 18 1 18 19
M  V30 19 2 19 20
M  V30 20 1 20 21
M  V30 21 2 21 22
M  V30 22 1 22 23
M  V30 23 1 17 24
M  V30 24 1 24 25
M  V30 25 1 10 5
M  V30 26 1 25 11
M  V30 27 2 25 15
M  V30 28 1 23 19
M  V30 29 1 3 26
M  V30 30 1 4 27
M  V30 31 1 4 28
M  V30 32 1 5 29 CFG=3
M  V30 33 1 6 30
M  V30 34 1 6 31
M  V30 35 1 7 32
M  V30 36 1 7 33
M  V30 37 1 8 34
M  V30 38 1 8 35
M  V30 39 1 9 36
M  V30 40 1 10 37
M  V30 41 1 10 38
M  V30 42 1 12 39
M  V30 43 1 13 40
M  V30 44 1 18 41
M  V30 45 1 18 42
M  V30 46 1 20 43
M  V30 47 1 21 44
M  V30 48 1 22 45
M  V30 49 1 24 46
M  V30 END BOND
M  V30 END CTAB
M  END
>  <Dataset>  (377) 
ChEMBL_Kinases

>  <Ligand_Instance>  (377) 
nan

>  <PDB_ID>  (377) 
nan

>  <Standardized_SMILES>  (377) 
O=C(NC[C@@H]1CCCNC1)c1ccnc2nc(Cc3cccs3)[nH]c12

>  <Name>  (377) 
nan

>  <Pocket>  (377) 
nan

>  <ATP_Site>  (377) 
nan

>  <Peripheral>  (377) 
nan

>  <Num_H_Atoms_ProtBoundConf>  (377) 
nan

>  <Num_Resolved_Atoms>  (377) 
nan

>  <Num_Not_Resolved_Atoms>  (377) 
nan

$$$$
CHEMBL371842
     RDKit          3D

  0  0  0  0  0  0  0  0  0  0999 V3000
M  V30 BEGIN CTAB
M  V30 COUNTS 50 53 0 0 0
M  V30 BEGIN ATOM
M  V30 1 C -0.658043 -5.310716 3.187066 0
M  V30 2 C -0.209019 -4.603378 1.946640 0
M  V30 3 C -0.499531 -3.255484 1.932603 0
M  V30 4 C -0.141104 -2.482217 0.846512 0
M  V30 5 C -0.311354 -1.084863 0.559707 0
M  V30 6 C 0.749557 -0.191884 0.403202 0
M  V30 7 C 0.291226 1.069307 0.135395 0
M  V30 8 C 1.141449 2.286685 -0.091140 0
M  V30 9 C 2.075759 2.164345 -1.233682 0
M  V30 10 C 3.432632 1.616741 -0.931524 0
M  V30 11 N 3.985465 1.954081 0.327993 0
M  V30 12 C 4.380924 0.823384 1.127631 0
M  V30 13 C 3.281442 2.961374 1.041608 0
M  V30 14 C 1.806898 2.677372 1.207470 0
M  V30 15 N -1.057212 0.951795 0.127248 0
M  V30 16 C -1.415406 -0.315469 0.376806 0
M  V30 17 C -2.793458 -0.786417 0.441699 0
M  V30 18 C -3.507432 -1.293745 1.507177 0
M  V30 19 C -4.809844 -1.687979 1.357688 0
M  V30 20 C -5.442658 -1.586450 0.131168 0
M  V30 21 F -6.732685 -2.003767 0.087919 0
M  V30 22 C -4.738296 -1.077883 -0.950641 0
M  V30 23 C -3.414011 -0.676908 -0.799819 0
M  V30 24 C 0.516154 -3.127956 -0.210378 0
M  V30 25 C 0.787194 -4.500026 -0.145225 0
M  V30 26 N 0.421554 -5.223040 0.932663 0
M  V30 27 H -0.659036 -6.391516 2.954265 0
M  V30 28 H -0.098790 -5.031202 4.081862 0
M  V30 29 H -1.737117 -5.052811 3.397195 0
M  V30 30 H -0.991655 -2.678141 2.684571 0
M  V30 31 H 1.802129 -0.424851 0.476108 0
M  V30 32 H 0.420133 3.104445 -0.305988 0
M  V30 33 H 2.162071 3.158425 -1.754640 0
M  V30 34 H 1.605676 1.502949 -2.009555 0
M  V30 35 H 4.130763 2.007326 -1.719293 0
M  V30 36 H 3.474941 0.494921 -1.060458 0
M  V30 37 H 4.544149 -0.083948 0.510255 0
M  V30 38 H 3.647227 0.556350 1.911839 0
M  V30 39 H 5.331378 1.074671 1.631942 0
M  V30 40 H 3.720918 3.148266 2.022356 0
M  V30 41 H 3.370239 3.909867 0.470085 0
M  V30 42 H 1.709720 1.854427 1.925141 0
M  V30 43 H 1.373526 3.585365 1.675768 0
M  V30 44 H -1.666161 1.798401 -0.059680 0
M  V30 45 H -2.944113 -1.332885 2.405195 0
M  V30 46 H -5.227601 -2.065075 2.293865 0
M  V30 47 H -5.334483 -1.046784 -1.852586 0
M  V30 48 H -3.033997 -0.310566 -1.747878 0
M  V30 49 H 0.868919 -2.681044 -1.137392 0
M  V30 50 H 1.292483 -5.034927 -0.939498 0
M  V30 END ATOM
M  V30 BEGIN BOND
M  V30 1 1 1 2
M  V30 2 2 2 3
M  V30 3 1 3 4
M  V30 4 1 4 5
M  V30 5 1 5 6
M  V30 6 2 6 7
M  V30 7 1 7 8
M  V30 8 1 8 9
M  V30 9 1 9 10
M  V30 10 1 10 11
M  V30 11 1 11 12
M  V30 12 1 11 13
M  V30 13 1 13 14
M  V30 14 1 7 15
M  V30 15 1 15 16
M  V30 16 1 16 17
M  V30 17 2 17 18
M  V30 18 1 18 19
M  V30 19 2 19 20
M  V30 20 1 20 21
M  V30 21 1 20 22
M  V30 22 2 22 23
M  V30 23 2 4 24
M  V30 24 1 24 25
M  V30 25 2 25 26
M  V30 26 1 26 2
M  V30 27 2 16 5
M  V30 28 1 23 17
M  V30 29 1 14 8
M  V30 30 1 1 27
M  V30 31 1 1 28
M  V30 32 1 1 29
M  V30 33 1 3 30
M  V30 34 1 6 31
M  V30 35 1 8 32
M  V30 36 1 9 33
M  V30 37 1 9 34
M  V30 38 1 10 35
M  V30 39 1 10 36
M  V30 40 1 12 37
M  V30 41 1 12 38
M  V30 42 1 12 39
M  V30 43 1 13 40
M  V30 44 1 13 41
M  V30 45 1 14 42
M  V30 46 1 14 43
M  V30 47 1 15 44
M  V30 48 1 18 45
M  V30 49 1 19 46
M  V30 50 1 22 47
M  V30 51 1 23 48
M  V30 52 1 24 49
M  V30 53 1 25 50
M  V30 END BOND
M  V30 END CTAB
M  END
>  <Dataset>  (378) 
ChEMBL_Kinases

>  <Ligand_Instance>  (378) 
nan

>  <PDB_ID>  (378) 
nan

>  <Standardized_SMILES>  (378) 
Cc1cc(-c2cc(C3CCN(C)CC3)[nH]c2-c2ccc(F)cc2)ccn1

>  <Name>  (378) 
nan

>  <Pocket>  (378) 
nan

>  <ATP_Site>  (378) 
nan

>  <Peripheral>  (378) 
nan

>  <Num_H_Atoms_ProtBoundConf>  (378) 
nan

>  <Num_Resolved_Atoms>  (378) 
nan

>  <Num_Not_Resolved_Atoms>  (378) 
nan

$$$$
CHEMBL3718407
     RDKit          3D

  0  0  0  0  0  0  0  0  0  0999 V3000
M  V30 BEGIN CTAB
M  V30 COUNTS 55 59 0 0 0
M  V30 BEGIN ATOM
M  V30 1 O 2.150397 -1.417812 1.305776 0
M  V30 2 C 2.865298 -0.605866 0.716230 0
M  V30 3 N 3.498651 -0.814395 -0.520125 0
M  V30 4 C 3.464938 -1.948156 -1.412844 0 CFG=1
M  V30 5 C 4.822496 -2.406665 -1.727664 0
M  V30 6 C 5.374012 -3.439951 -0.773273 0
M  V30 7 C 4.369171 -4.524750 -0.582898 0
M  V30 8 N 3.144885 -3.973388 -0.055616 0
M  V30 9 C 2.524805 -3.032446 -0.909607 0
M  V30 10 C 2.815086 0.499388 1.667533 0
M  V30 11 C 4.042863 0.834188 2.144715 0
M  V30 12 C 4.165898 1.886385 3.099849 0
M  V30 13 N 3.048875 2.554526 3.532281 0
M  V30 14 C 1.819498 2.209317 3.046356 0
M  V30 15 N 0.535351 2.591879 3.198173 0
M  V30 16 C -0.245299 1.887779 2.457546 0
M  V30 17 C -1.764010 1.884437 2.221537 0
M  V30 18 C -2.587818 2.746492 2.797361 0
M  V30 19 C -3.788598 2.398893 2.345078 0
M  V30 20 C -4.368055 1.499394 1.538677 0
M  V30 21 N -4.983150 0.532077 0.672312 0
M  V30 22 C -5.543883 -0.620758 1.326326 0
M  V30 23 C -5.166244 -1.832783 0.501744 0
M  V30 24 C -5.712431 -1.739546 -0.904020 0
M  V30 25 C -5.910149 -0.338350 -1.380993 0
M  V30 26 C -5.026820 0.687090 -0.761517 0
M  V30 27 S -2.681321 0.798460 1.216315 0
M  V30 28 N 0.430395 0.939099 1.713166 0
M  V30 29 C 1.707289 1.210038 2.141526 0
M  V30 30 H 4.067576 0.035706 -0.807683 0
M  V30 31 H 2.923368 -1.604083 -2.348698 0
M  V30 32 H 5.515795 -1.506643 -1.638595 0
M  V30 33 H 4.972613 -2.746078 -2.760416 0
M  V30 34 H 5.739363 -3.022263 0.184522 0
M  V30 35 H 6.282820 -3.889992 -1.272507 0
M  V30 36 H 4.766201 -5.232357 0.154277 0
M  V30 37 H 4.177221 -5.082323 -1.513616 0
M  V30 38 H 2.537313 -4.667157 0.380858 0
M  V30 39 H 2.093553 -3.633582 -1.761803 0
M  V30 40 H 1.672315 -2.556632 -0.444550 0
M  V30 41 H 5.014710 0.399692 1.901049 0
M  V30 42 H 5.146138 2.168442 3.497385 0
M  V30 43 H -2.500447 3.577117 3.467739 0
M  V30 44 H -4.793465 2.857566 2.568026 0
M  V30 45 H -6.619391 -0.561589 1.444932 0
M  V30 46 H -5.096863 -0.775923 2.344202 0
M  V30 47 H -5.479498 -2.783646 1.009563 0
M  V30 48 H -4.046517 -1.877413 0.441475 0
M  V30 49 H -6.625505 -2.361600 -1.010829 0
M  V30 50 H -4.935355 -2.238310 -1.572489 0
M  V30 51 H -6.967384 -0.020383 -1.216014 0
M  V30 52 H -5.680444 -0.317087 -2.485461 0
M  V30 53 H -5.371217 1.691965 -1.000548 0
M  V30 54 H -3.967298 0.518531 -1.104216 0
M  V30 55 H 0.117346 0.222531 1.036703 0
M  V30 END ATOM
M  V30 BEGIN BOND
M  V30 1 2 1 2
M  V30 2 1 2 3
M  V30 3 1 3 4
M  V30 4 1 4 5
M  V30 5 1 5 6
M  V30 6 1 6 7
M  V30 7 1 7 8
M  V30 8 1 8 9
M  V30 9 1 2 10
M  V30 10 2 10 11
M  V30 11 1 11 12
M  V30 12 2 12 13
M  V30 13 1 13 14
M  V30 14 1 14 15
M  V30 15 2 15 16
M  V30 16 1 16 17
M  V30 17 2 17 18
M  V30 18 1 18 19
M  V30 19 2 19 20
M  V30 20 1 20 21
M  V30 21 1 21 22
M  V30 22 1 22 23
M  V30 23 1 23 24
M  V30 24 1 24 25
M  V30 25 1 25 26
M  V30 26 1 20 27
M  V30 27 1 16 28
M  V30 28 1 28 29
M  V30 29 1 9 4
M  V30 30 1 29 10
M  V30 31 2 29 14
M  V30 32 1 27 17
M  V30 33 1 26 21
M  V30 34 1 3 30
M  V30 35 1 4 31 CFG=3
M  V30 36 1 5 32
M  V30 37 1 5 33
M  V30 38 1 6 34
M  V30 39 1 6 35
M  V30 40 1 7 36
M  V30 41 1 7 37
M  V30 42 1 8 38
M  V30 43 1 9 39
M  V30 44 1 9 40
M  V30 45 1 11 41
M  V30 46 1 12 42
M  V30 47 1 18 43
M  V30 48 1 19 44
M  V30 49 1 22 45
M  V30 50 1 22 46
M  V30 51 1 23 47
M  V30 52 1 23 48
M  V30 53 1 24 49
M  V30 54 1 24 50
M  V30 55 1 25 51
M  V30 56 1 25 52
M  V30 57 1 26 53
M  V30 58 1 26 54
M  V30 59 1 28 55
M  V30 END BOND
M  V30 END CTAB
M  END
>  <Dataset>  (379) 
ChEMBL_Kinases

>  <Ligand_Instance>  (379) 
nan

>  <PDB_ID>  (379) 
nan

>  <Standardized_SMILES>  (379) 
O=C(N[C@H]1CCCNC1)c1ccnc2nc(-c3ccc(N4CCCCC4)s3)[nH]c12

>  <Name>  (379) 
nan

>  <Pocket>  (379) 
nan

>  <ATP_Site>  (379) 
nan

>  <Peripheral>  (379) 
nan

>  <Num_H_Atoms_ProtBoundConf>  (379) 
nan

>  <Num_Resolved_Atoms>  (379) 
nan

>  <Num_Not_Resolved_Atoms>  (379) 
nan

$$$$
CHEMBL3718404
     RDKit          3D

  0  0  0  0  0  0  0  0  0  0999 V3000
M  V30 BEGIN CTAB
M  V30 COUNTS 54 58 0 0 0
M  V30 BEGIN ATOM
M  V30 1 C 0.355581 1.990723 6.093372 0
M  V30 2 O 0.388790 1.781571 4.705234 0
M  V30 3 C 1.434163 1.130749 4.067863 0
M  V30 4 C 2.550573 0.614873 4.689894 0
M  V30 5 C 3.543643 -0.018856 3.976020 0
M  V30 6 C 3.487088 -0.176995 2.608680 0
M  V30 7 C 2.363544 0.345193 2.004447 0
M  V30 8 C 1.348177 0.985649 2.680199 0
M  V30 9 C 0.164188 1.529122 1.978331 0
M  V30 10 C -0.265915 0.714718 0.793072 0
M  V30 11 C 0.726664 -0.365642 0.436215 0 CFG=2
M  V30 12 C 2.120037 0.264392 0.518567 0 CFG=1
M  V30 13 O 1.974735 1.506057 -0.070093 0
M  V30 14 C 1.979337 1.352006 -1.432302 0
M  V30 15 C 1.032180 0.305108 -1.964582 0
M  V30 16 N 0.584074 -0.640586 -1.007011 0
M  V30 17 C -0.028155 -1.874249 -1.323496 0
M  V30 18 N -1.368704 -1.767158 -1.270460 0
M  V30 19 C -2.216497 -2.789244 -1.527498 0
M  V30 20 C -3.666346 -2.632356 -1.450466 0
M  V30 21 C -4.607844 -3.606957 -1.693282 0
M  V30 22 C -5.950773 -3.302455 -1.572990 0
M  V30 23 N -6.404669 -2.086395 -1.226081 0
M  V30 24 C -5.507315 -1.103713 -0.979966 0
M  V30 25 C -4.155085 -1.370814 -1.090021 0
M  V30 26 C -1.642203 -4.000507 -1.861691 0
M  V30 27 C -0.250732 -4.098243 -1.913233 0
M  V30 28 O 0.345436 -5.180658 -2.213245 0
M  V30 29 N 0.558093 -3.041438 -1.645729 0
M  V30 30 C 1.984485 -3.025487 -1.667218 0
M  V30 31 H 0.869432 2.955727 6.353785 0
M  V30 32 H -0.697294 2.009764 6.476785 0
M  V30 33 H 0.864889 1.205634 6.686423 0
M  V30 34 H 2.621078 0.726205 5.768613 0
M  V30 35 H 4.397818 -0.403536 4.516888 0
M  V30 36 H 4.233988 -0.660956 2.012929 0
M  V30 37 H -0.675953 1.729834 2.683687 0
M  V30 38 H 0.475805 2.566343 1.653421 0
M  V30 39 H -1.282905 0.304868 0.969200 0
M  V30 40 H -0.287866 1.393714 -0.111048 0
M  V30 41 H 0.653439 -1.266578 1.045892 0
M  V30 42 H 2.866688 -0.360250 0.012631 0
M  V30 43 H 1.737807 2.344533 -1.902939 0
M  V30 44 H 3.031127 1.160642 -1.726507 0
M  V30 45 H 0.124239 0.846853 -2.338233 0
M  V30 46 H 1.473068 -0.138499 -2.878318 0
M  V30 47 H -4.242724 -4.572575 -1.969373 0
M  V30 48 H -6.661720 -4.112102 -1.776573 0
M  V30 49 H -5.878096 -0.119403 -0.698616 0
M  V30 50 H -3.503838 -0.517399 -0.872667 0
M  V30 51 H -2.235170 -4.874895 -2.084378 0
M  V30 52 H 2.321059 -4.094742 -1.808422 0
M  V30 53 H 2.439580 -2.486697 -2.516080 0
M  V30 54 H 2.369960 -2.598348 -0.730931 0
M  V30 END ATOM
M  V30 BEGIN BOND
M  V30 1 1 1 2
M  V30 2 1 2 3
M  V30 3 2 3 4
M  V30 4 1 4 5
M  V30 5 2 5 6
M  V30 6 1 6 7
M  V30 7 2 7 8
M  V30 8 1 8 9
M  V30 9 1 9 10
M  V30 10 1 10 11
M  V30 11 1 11 12
M  V30 12 1 12 13
M  V30 13 1 13 14
M  V30 14 1 14 15
M  V30 15 1 15 16
M  V30 16 1 16 17
M  V30 17 2 17 18
M  V30 18 1 18 19
M  V30 19 1 19 20
M  V30 20 2 20 21
M  V30 21 1 21 22
M  V30 22 2 22 23
M  V30 23 1 23 24
M  V30 24 2 24 25
M  V30 25 2 19 26
M  V30 26 1 26 27
M  V30 27 2 27 28
M  V30 28 1 27 29
M  V30 29 1 29 30
M  V30 30 1 8 3
M  V30 31 1 16 11
M  V30 32 1 29 17
M  V30 33 1 12 7
M  V30 34 1 25 20
M  V30 35 1 1 31
M  V30 36 1 1 32
M  V30 37 1 1 33
M  V30 38 1 4 34
M  V30 39 1 5 35
M  V30 40 1 6 36
M  V30 41 1 9 37
M  V30 42 1 9 38
M  V30 43 1 10 39
M  V30 44 1 10 40
M  V30 45 1 11 41 CFG=1
M  V30 46 1 12 42 CFG=3
M  V30 47 1 14 43
M  V30 48 1 14 44
M  V30 49 1 15 45
M  V30 50 1 15 46
M  V30 51 1 21 47
M  V30 52 1 22 48
M  V30 53 1 24 49
M  V30 54 1 25 50
M  V30 55 1 26 51
M  V30 56 1 30 52
M  V30 57 1 30 53
M  V30 58 1 30 54
M  V30 END BOND
M  V30 END CTAB
M  END
>  <Dataset>  (380) 
ChEMBL_Kinases

>  <Ligand_Instance>  (380) 
nan

>  <PDB_ID>  (380) 
nan

>  <Standardized_SMILES>  (380) 
COc1cccc2c1CC[C@@H]1[C@H]2OCCN1c1nc(-c2ccncc2)cc(=O)n1C

>  <Name>  (380) 
nan

>  <Pocket>  (380) 
nan

>  <ATP_Site>  (380) 
nan

>  <Peripheral>  (380) 
nan

>  <Num_H_Atoms_ProtBoundConf>  (380) 
nan

>  <Num_Resolved_Atoms>  (380) 
nan

>  <Num_Not_Resolved_Atoms>  (380) 
nan

$$$$
CHEMBL3718397
     RDKit          3D

  0  0  0  0  0  0  0  0  0  0999 V3000
M  V30 BEGIN CTAB
M  V30 COUNTS 62 65 0 0 0
M  V30 BEGIN ATOM
M  V30 1 C 6.867713 0.999671 5.882295 0
M  V30 2 O 5.721502 1.256548 5.235886 0
M  V30 3 C 4.753544 0.767146 4.503013 0
M  V30 4 C 4.727294 -0.588782 4.141162 0
M  V30 5 C 3.744664 -1.139588 3.383013 0
M  V30 6 C 2.700718 -0.368416 2.922914 0
M  V30 7 C 1.614324 -0.941786 2.114599 0
M  V30 8 C 0.563269 -0.331460 1.610265 0
M  V30 9 C -0.457788 -1.001897 0.819503 0
M  V30 10 O -0.319988 -2.239487 0.617479 0
M  V30 11 N -1.543949 -0.195567 0.331241 0
M  V30 12 C -1.849945 1.223932 0.456162 0
M  V30 13 C -3.053594 1.358707 1.293092 0
M  V30 14 N -3.458270 2.024740 2.372130 0
M  V30 15 C -4.749793 1.706575 2.673486 0
M  V30 16 N -5.129146 0.812625 1.729445 0
M  V30 17 C -4.119125 0.590006 0.886795 0
M  V30 18 C -3.932088 -0.256973 -0.306488 0
M  V30 19 C -2.570416 -0.848611 -0.426707 0
M  V30 20 C -2.225341 -0.933748 -1.879000 0
M  V30 21 O -1.052918 -0.504256 -1.804947 0
M  V30 22 N -3.093619 -1.390162 -2.906697 0
M  V30 23 C -2.434773 -1.335972 -4.190855 0
M  V30 24 C -1.228439 -2.232032 -4.263707 0
M  V30 25 C -1.564414 -3.654103 -4.056212 0
M  V30 26 C -1.575719 -4.257923 -2.823353 0
M  V30 27 C -1.867994 -5.548203 -2.489389 0
M  V30 28 C -2.204353 -6.376830 -3.562829 0
M  V30 29 C -2.222220 -5.865247 -4.858326 0
M  V30 30 Cl -2.646328 -6.955938 -6.163553 0
M  V30 31 C -1.906506 -4.531530 -5.072859 0
M  V30 32 C 2.695435 0.968378 3.260738 0
M  V30 33 C 3.697743 1.509271 4.029416 0
M  V30 34 O 3.688695 2.860154 4.369671 0
M  V30 35 C 2.719342 3.784234 3.986267 0
M  V30 36 H 7.514155 0.310188 5.268116 0
M  V30 37 H 6.769807 0.576590 6.921542 0
M  V30 38 H 7.440322 1.953800 6.042016 0
M  V30 39 H 5.540408 -1.220215 4.486779 0
M  V30 40 H 3.721749 -2.192592 3.098987 0
M  V30 41 H 1.676697 -2.020317 1.900677 0
M  V30 42 H 0.519262 0.726945 1.832384 0
M  V30 43 H -1.023290 1.761153 0.948774 0
M  V30 44 H -1.979694 1.707057 -0.552827 0
M  V30 45 H -2.798214 2.682210 2.858519 0
M  V30 46 H -5.189481 2.183882 3.529319 0
M  V30 47 H -4.701241 -1.079103 -0.222637 0
M  V30 48 H -4.247231 0.271213 -1.255000 0
M  V30 49 H -2.650234 -1.939104 -0.117643 0
M  V30 50 H -4.027286 -1.661696 -2.477036 0
M  V30 51 H -3.089982 -1.533991 -5.052195 0
M  V30 52 H -2.053816 -0.283751 -4.310724 0
M  V30 53 H -0.762566 -2.132010 -5.264556 0
M  V30 54 H -0.460324 -1.964191 -3.514040 0
M  V30 55 H -1.316509 -3.662853 -1.927811 0
M  V30 56 H -1.872957 -5.996015 -1.523941 0
M  V30 57 H -2.452492 -7.425758 -3.397171 0
M  V30 58 H -1.923321 -4.129463 -6.096815 0
M  V30 59 H 1.919603 1.639389 2.945490 0
M  V30 60 H 2.270023 3.626080 2.987839 0
M  V30 61 H 3.167324 4.818402 4.019532 0
M  V30 62 H 1.920591 3.798436 4.742477 0
M  V30 END ATOM
M  V30 BEGIN BOND
M  V30 1 1 1 2
M  V30 2 1 2 3
M  V30 3 2 3 4
M  V30 4 1 4 5
M  V30 5 2 5 6
M  V30 6 1 6 7
M  V30 7 2 7 8
M  V30 8 1 8 9
M  V30 9 2 9 10
M  V30 10 1 9 11
M  V30 11 1 11 12
M  V30 12 1 12 13
M  V30 13 1 13 14
M  V30 14 1 14 15
M  V30 15 2 15 16
M  V30 16 1 16 17
M  V30 17 1 17 18
M  V30 18 1 18 19
M  V30 19 1 19 20
M  V30 20 2 20 21
M  V30 21 1 20 22
M  V30 22 1 22 23
M  V30 23 1 23 24
M  V30 24 1 24 25
M  V30 25 2 25 26
M  V30 26 1 26 27
M  V30 27 2 27 28
M  V30 28 1 28 29
M  V30 29 1 29 30
M  V30 30 2 29 31
M  V30 31 1 6 32
M  V30 32 2 32 33
M  V30 33 1 33 34
M  V30 34 1 34 35
M  V30 35 1 33 3
M  V30 36 1 19 11
M  V30 37 1 31 25
M  V30 38 2 17 13
M  V30 39 1 1 36
M  V30 40 1 1 37
M  V30 41 1 1 38
M  V30 42 1 4 39
M  V30 43 1 5 40
M  V30 44 1 7 41
M  V30 45 1 8 42
M  V30 46 1 12 43
M  V30 47 1 12 44
M  V30 48 1 14 45
M  V30 49 1 15 46
M  V30 50 1 18 47
M  V30 51 1 18 48
M  V30 52 1 19 49
M  V30 53 1 22 50
M  V30 54 1 23 51
M  V30 55 1 23 52
M  V30 56 1 24 53
M  V30 57 1 24 54
M  V30 58 1 26 55
M  V30 59 1 27 56
M  V30 60 1 28 57
M  V30 61 1 31 58
M  V30 62 1 32 59
M  V30 63 1 35 60
M  V30 64 1 35 61
M  V30 65 1 35 62
M  V30 END BOND
M  V30 END CTAB
M  END
>  <Dataset>  (381) 
ChEMBL_Kinases

>  <Ligand_Instance>  (381) 
nan

>  <PDB_ID>  (381) 
nan

>  <Standardized_SMILES>  (381) 
COc1ccc(/C=C/C(=O)N2Cc3[nH]cnc3CC2C(=O)NCCc2cccc(Cl)c2)cc1OC

>  <Name>  (381) 
nan

>  <Pocket>  (381) 
nan

>  <ATP_Site>  (381) 
nan

>  <Peripheral>  (381) 
nan

>  <Num_H_Atoms_ProtBoundConf>  (381) 
nan

>  <Num_Resolved_Atoms>  (381) 
nan

>  <Num_Not_Resolved_Atoms>  (381) 
nan

$$$$
CHEMBL3718151
     RDKit          3D

  0  0  0  0  0  0  0  0  0  0999 V3000
M  V30 BEGIN CTAB
M  V30 COUNTS 55 59 0 0 0
M  V30 BEGIN ATOM
M  V30 1 O 1.518023 -1.710046 2.724054 0
M  V30 2 C 1.121134 -0.643274 2.145738 0
M  V30 3 N 1.676276 -0.015574 1.011008 0
M  V30 4 C 2.816802 -0.804736 0.585360 0
M  V30 5 C 3.452458 -0.173319 -0.631648 0
M  V30 6 C 4.633802 -0.960247 -1.101425 0
M  V30 7 C 5.952505 -0.323495 -0.738816 0
M  V30 8 C 5.868389 0.588549 0.452078 0
M  V30 9 N 4.942093 1.633831 0.188224 0
M  V30 10 C 3.728139 1.276529 -0.471890 0
M  V30 11 C -0.025353 -0.289461 2.976370 0
M  V30 12 C 0.095638 0.193572 4.263165 0
M  V30 13 C -1.055778 0.507542 4.990525 0
M  V30 14 C -2.297854 0.316766 4.376343 0
M  V30 15 O -3.405829 0.645259 5.145967 0
M  V30 16 C -2.391421 -0.169283 3.084356 0
M  V30 17 N -3.506213 -0.405484 2.363775 0
M  V30 18 C -3.049768 -0.870110 1.177575 0
M  V30 19 C -3.923896 -1.271904 0.043962 0
M  V30 20 C -3.624202 -0.467041 -1.210902 0
M  V30 21 C -3.257036 -1.487670 -2.261078 0
M  V30 22 C -4.498983 -2.225859 -2.640610 0
M  V30 23 C -4.812499 -3.025420 -1.384139 0
M  V30 24 C -3.716613 -2.677575 -0.403256 0
M  V30 25 C -2.553010 -2.515852 -1.380555 0
M  V30 26 N -1.689822 -0.919642 1.165752 0
M  V30 27 C -1.250821 -0.483185 2.355916 0
M  V30 28 H 1.141007 0.844295 0.762077 0
M  V30 29 H 2.494760 -1.841224 0.367106 0
M  V30 30 H 3.535223 -0.847530 1.407433 0
M  V30 31 H 2.679119 -0.266648 -1.450411 0
M  V30 32 H 4.560720 -1.986004 -0.634217 0
M  V30 33 H 4.639503 -1.100085 -2.220009 0
M  V30 34 H 6.385453 0.246849 -1.581374 0
M  V30 35 H 6.646624 -1.145316 -0.502410 0
M  V30 36 H 5.742463 0.087064 1.415910 0
M  V30 37 H 6.882145 1.078457 0.518936 0
M  V30 38 H 4.872744 2.355290 0.921234 0
M  V30 39 H 3.760865 1.734102 -1.504423 0
M  V30 40 H 2.830112 1.760730 -0.009925 0
M  V30 41 H 1.088882 0.316358 4.675613 0
M  V30 42 H -0.916361 0.882826 5.993332 0
M  V30 43 H -3.764072 1.595428 5.144655 0
M  V30 44 H -4.497713 -0.264059 2.649163 0
M  V30 45 H -4.973284 -1.131095 0.372692 0
M  V30 46 H -2.871240 0.318309 -1.062905 0
M  V30 47 H -4.560948 0.054846 -1.498840 0
M  V30 48 H -2.647716 -1.125837 -3.077088 0
M  V30 49 H -4.337171 -2.930703 -3.484900 0
M  V30 50 H -5.346149 -1.530611 -2.886662 0
M  V30 51 H -5.771825 -2.653503 -0.974126 0
M  V30 52 H -4.828337 -4.116333 -1.597993 0
M  V30 53 H -3.536527 -3.424744 0.358879 0
M  V30 54 H -2.355715 -3.461709 -1.926794 0
M  V30 55 H -1.653642 -2.112959 -0.893553 0
M  V30 END ATOM
M  V30 BEGIN BOND
M  V30 1 2 1 2
M  V30 2 1 2 3
M  V30 3 1 3 4
M  V30 4 1 4 5
M  V30 5 1 5 6
M  V30 6 1 6 7
M  V30 7 1 7 8
M  V30 8 1 8 9
M  V30 9 1 9 10
M  V30 10 1 2 11
M  V30 11 1 11 12
M  V30 12 2 12 13
M  V30 13 1 13 14
M  V30 14 1 14 15
M  V30 15 2 14 16
M  V30 16 1 16 17
M  V30 17 1 17 18
M  V30 18 1 18 19
M  V30 19 1 19 20
M  V30 20 1 20 21
M  V30 21 1 21 22
M  V30 22 1 22 23
M  V30 23 1 23 24
M  V30 24 1 24 25
M  V30 25 2 18 26
M  V30 26 1 26 27
M  V30 27 1 10 5
M  V30 28 2 27 11
M  V30 29 1 27 16
M  V30 30 1 24 19
M  V30 31 1 25 21
M  V30 32 1 3 28
M  V30 33 1 4 29
M  V30 34 1 4 30
M  V30 35 1 5 31
M  V30 36 1 6 32
M  V30 37 1 6 33
M  V30 38 1 7 34
M  V30 39 1 7 35
M  V30 40 1 8 36
M  V30 41 1 8 37
M  V30 42 1 9 38
M  V30 43 1 10 39
M  V30 44 1 10 40
M  V30 45 1 12 41
M  V30 46 1 13 42
M  V30 47 1 15 43
M  V30 48 1 17 44
M  V30 49 1 19 45
M  V30 50 1 20 46
M  V30 51 1 20 47
M  V30 52 1 21 48
M  V30 53 1 22 49
M  V30 54 1 22 50
M  V30 55 1 23 51
M  V30 56 1 23 52
M  V30 57 1 24 53
M  V30 58 1 25 54
M  V30 59 1 25 55
M  V30 END BOND
M  V30 END CTAB
M  END
>  <Dataset>  (382) 
ChEMBL_Kinases

>  <Ligand_Instance>  (382) 
nan

>  <PDB_ID>  (382) 
nan

>  <Standardized_SMILES>  (382) 
O=C(NCC1CCCNC1)c1ccc(O)c2[nH]c(C3CC4CCC3C4)nc12

>  <Name>  (382) 
nan

>  <Pocket>  (382) 
nan

>  <ATP_Site>  (382) 
nan

>  <Peripheral>  (382) 
nan

>  <Num_H_Atoms_ProtBoundConf>  (382) 
nan

>  <Num_Resolved_Atoms>  (382) 
nan

>  <Num_Not_Resolved_Atoms>  (382) 
nan

$$$$
CHEMBL3718376
     RDKit          3D

  0  0  0  0  0  0  0  0  0  0999 V3000
M  V30 BEGIN CTAB
M  V30 COUNTS 28 29 0 0 0
M  V30 BEGIN ATOM
M  V30 1 O 2.273649 -2.394489 4.849736 0
M  V30 2 C 1.391590 -3.267717 4.834837 0
M  V30 3 O 0.749343 -3.198081 6.061973 0
M  V30 4 C 0.928709 -4.286638 3.845164 0
M  V30 5 S 1.906224 -4.209150 2.317667 0
M  V30 6 C 1.565512 -2.624306 1.525652 0
M  V30 7 N 2.397711 -1.622674 1.907055 0
M  V30 8 N 2.030694 -0.509619 1.243982 0
M  V30 9 C 0.970308 -0.856287 0.462401 0
M  V30 10 C 0.211555 -0.007574 -0.449584 0
M  V30 11 C -0.833183 -0.532574 -1.178421 0
M  V30 12 C -1.496662 0.341063 -2.016424 0
M  V30 13 C -1.130972 1.675284 -2.119025 0
M  V30 14 O -1.829756 2.486743 -2.969077 0
M  V30 15 C -0.078973 2.195769 -1.382064 0
M  V30 16 N 0.330765 3.554686 -1.453126 0 CHG=1 VAL=4
M  V30 17 O 0.263237 4.300624 -2.453595 0
M  V30 18 O 0.846530 4.051189 -0.264722 0 CHG=-1 VAL=1
M  V30 19 C 0.580884 1.318191 -0.545931 0
M  V30 20 N 0.669122 -2.173612 0.628032 0
M  V30 21 H 0.499414 -2.376441 6.564759 0
M  V30 22 H -0.113402 -3.987889 3.550169 0
M  V30 23 H 0.887372 -5.297818 4.272589 0
M  V30 24 H -1.132502 -1.550613 -1.117881 0
M  V30 25 H -2.329869 -0.016891 -2.614124 0
M  V30 26 H -2.724974 2.862318 -2.681298 0
M  V30 27 H 1.397291 1.703863 0.030598 0
M  V30 28 H -0.024011 -2.830342 0.253267 0
M  V30 END ATOM
M  V30 BEGIN BOND
M  V30 1 2 1 2
M  V30 2 1 2 3
M  V30 3 1 2 4
M  V30 4 1 4 5
M  V30 5 1 5 6
M  V30 6 2 6 7
M  V30 7 1 7 8
M  V30 8 2 8 9
M  V30 9 1 9 10
M  V30 10 2 10 11
M  V30 11 1 11 12
M  V30 12 2 12 13
M  V30 13 1 13 14
M  V30 14 1 13 15
M  V30 15 1 15 16
M  V30 16 2 16 17
M  V30 17 1 16 18
M  V30 18 2 15 19
M  V30 19 1 9 20
M  V30 20 1 20 6
M  V30 21 1 19 10
M  V30 22 1 3 21
M  V30 23 1 4 22
M  V30 24 1 4 23
M  V30 25 1 11 24
M  V30 26 1 12 25
M  V30 27 1 14 26
M  V30 28 1 19 27
M  V30 29 1 20 28
M  V30 END BOND
M  V30 END CTAB
M  END
>  <Dataset>  (383) 
ChEMBL_Kinases

>  <Ligand_Instance>  (383) 
nan

>  <PDB_ID>  (383) 
nan

>  <Standardized_SMILES>  (383) 
O=C(O)CSc1nnc(-c2ccc(O)c([N+](=O)[O-])c2)[nH]1

>  <Name>  (383) 
nan

>  <Pocket>  (383) 
nan

>  <ATP_Site>  (383) 
nan

>  <Peripheral>  (383) 
nan

>  <Num_H_Atoms_ProtBoundConf>  (383) 
nan

>  <Num_Resolved_Atoms>  (383) 
nan

>  <Num_Not_Resolved_Atoms>  (383) 
nan

$$$$
CHEMBL3718375
     RDKit          3D

  0  0  0  0  0  0  0  0  0  0999 V3000
M  V30 BEGIN CTAB
M  V30 COUNTS 33 35 0 0 0
M  V30 BEGIN ATOM
M  V30 1 O 6.045132 -2.887042 1.701528 0
M  V30 2 C 5.048376 -2.996983 0.948121 0
M  V30 3 O 4.437394 -2.885917 2.162783 0
M  V30 4 C 5.114338 -3.152224 -0.531253 0
M  V30 5 S 5.155231 -1.526630 -1.326660 0
M  V30 6 C 3.624424 -0.656217 -1.121426 0
M  V30 7 N 3.524108 0.576688 -1.644217 0
M  V30 8 N 2.297942 1.044151 -1.377220 0
M  V30 9 C 1.602134 0.133607 -0.689368 0
M  V30 10 C 0.235348 0.182053 -0.183429 0
M  V30 11 C -0.269104 -0.913396 0.507341 0
M  V30 12 C -1.564735 -0.865697 0.980695 0
M  V30 13 C -2.334703 0.275044 0.755544 0
M  V30 14 C -3.709943 0.363558 1.242965 0
M  V30 15 C -4.302730 1.560076 1.622639 0
M  V30 16 N -5.583515 1.581716 2.069292 0
M  V30 17 C -6.296284 0.422992 2.147483 0
M  V30 18 N -5.760931 -0.772265 1.787610 0
M  V30 19 C -4.483478 -0.782450 1.343731 0
M  V30 20 C -1.857761 1.375072 0.072485 0
M  V30 21 C -0.550493 1.296726 -0.390621 0
M  V30 22 N 2.438236 -0.911994 -0.540124 0
M  V30 23 H 3.753618 -2.173068 2.355224 0
M  V30 24 H 6.037187 -3.687904 -0.767339 0
M  V30 25 H 4.252900 -3.760088 -0.882614 0
M  V30 26 H 0.309018 -1.810566 0.696356 0
M  V30 27 H -1.969291 -1.707984 1.517753 0
M  V30 28 H -3.694793 2.453620 1.541540 0
M  V30 29 H -7.294557 0.433231 2.495752 0
M  V30 30 H -4.055521 -1.719955 1.057292 0
M  V30 31 H -2.440427 2.257984 -0.107634 0
M  V30 32 H -0.078132 2.117768 -0.943110 0
M  V30 33 H 2.311992 -1.845977 -0.066007 0
M  V30 END ATOM
M  V30 BEGIN BOND
M  V30 1 2 1 2
M  V30 2 1 2 3
M  V30 3 1 2 4
M  V30 4 1 4 5
M  V30 5 1 5 6
M  V30 6 2 6 7
M  V30 7 1 7 8
M  V30 8 2 8 9
M  V30 9 1 9 10
M  V30 10 2 10 11
M  V30 11 1 11 12
M  V30 12 2 12 13
M  V30 13 1 13 14
M  V30 14 2 14 15
M  V30 15 1 15 16
M  V30 16 2 16 17
M  V30 17 1 17 18
M  V30 18 2 18 19
M  V30 19 1 13 20
M  V30 20 2 20 21
M  V30 21 1 9 22
M  V30 22 1 22 6
M  V30 23 1 21 10
M  V30 24 1 19 14
M  V30 25 1 3 23
M  V30 26 1 4 24
M  V30 27 1 4 25
M  V30 28 1 11 26
M  V30 29 1 12 27
M  V30 30 1 15 28
M  V30 31 1 17 29
M  V30 32 1 19 30
M  V30 33 1 20 31
M  V30 34 1 21 32
M  V30 35 1 22 33
M  V30 END BOND
M  V30 END CTAB
M  END
>  <Dataset>  (384) 
ChEMBL_Kinases

>  <Ligand_Instance>  (384) 
nan

>  <PDB_ID>  (384) 
nan

>  <Standardized_SMILES>  (384) 
O=C(O)CSc1nnc(-c2ccc(-c3cncnc3)cc2)[nH]1

>  <Name>  (384) 
nan

>  <Pocket>  (384) 
nan

>  <ATP_Site>  (384) 
nan

>  <Peripheral>  (384) 
nan

>  <Num_H_Atoms_ProtBoundConf>  (384) 
nan

>  <Num_Resolved_Atoms>  (384) 
nan

>  <Num_Not_Resolved_Atoms>  (384) 
nan

$$$$
CHEMBL3718368
     RDKit          3D

  0  0  0  0  0  0  0  0  0  0999 V3000
M  V30 BEGIN CTAB
M  V30 COUNTS 52 55 0 0 0
M  V30 BEGIN ATOM
M  V30 1 C 3.235614 -4.532658 3.531387 0
M  V30 2 N 3.767309 -3.846286 2.401640 0
M  V30 3 C 5.169139 -3.922363 2.061221 0
M  V30 4 C 6.013444 -3.220386 3.106907 0
M  V30 5 O 7.349377 -3.315397 2.738987 0
M  V30 6 C 2.838067 -3.094080 1.644688 0
M  V30 7 C 1.494588 -2.841665 1.845549 0
M  V30 8 C 0.849520 -2.071795 0.915950 0
M  V30 9 C 1.532463 -1.608531 -0.122560 0
M  V30 10 C 1.049878 -0.757974 -1.225974 0
M  V30 11 N -0.192451 -0.250387 -1.284778 0
M  V30 12 C -0.345981 0.494577 -2.388040 0
M  V30 13 C -1.459454 1.183195 -2.813752 0
M  V30 14 C -2.696901 1.184632 -2.037272 0
M  V30 15 O -3.796285 1.042510 -2.653781 0
M  V30 16 N -2.640487 1.343464 -0.626999 0
M  V30 17 C -3.570642 1.400853 0.457045 0 CFG=1
M  V30 18 C -3.428079 0.091552 1.245211 0
M  V30 19 C -4.470570 0.018941 2.301482 0
M  V30 20 C -5.232446 1.317233 2.344135 0
M  V30 21 N -4.380525 2.474332 2.417610 0
M  V30 22 C -3.387530 2.543019 1.385380 0
M  V30 23 C -1.314328 1.874594 -4.017537 0
M  V30 24 C -0.104740 1.826578 -4.682398 0
M  V30 25 N 0.935145 1.124874 -4.188041 0
M  V30 26 C 0.887010 0.430490 -3.038169 0
M  V30 27 N 1.720004 -0.340205 -2.308069 0
M  V30 28 S 3.167602 -2.188942 0.064569 0
M  V30 29 H 3.994232 -5.135617 4.073444 0
M  V30 30 H 2.756494 -3.882934 4.269029 0
M  V30 31 H 2.458917 -5.284472 3.206594 0
M  V30 32 H 5.547088 -4.968223 2.004441 0
M  V30 33 H 5.325952 -3.456429 1.088498 0
M  V30 34 H 5.897200 -3.721085 4.108656 0
M  V30 35 H 5.700691 -2.172537 3.226295 0
M  V30 36 H 7.572309 -4.063196 2.156934 0
M  V30 37 H 1.021332 -3.277937 2.742812 0
M  V30 38 H -0.219694 -1.850452 1.034287 0
M  V30 39 H -1.707143 1.455355 -0.176020 0
M  V30 40 H -4.643332 1.406766 0.102337 0
M  V30 41 H -3.529684 -0.769142 0.551541 0
M  V30 42 H -2.383797 0.061941 1.648880 0
M  V30 43 H -3.936689 -0.074186 3.278962 0
M  V30 44 H -5.180949 -0.826537 2.171540 0
M  V30 45 H -5.781690 1.297453 3.336248 0
M  V30 46 H -6.023070 1.400771 1.591959 0
M  V30 47 H -5.011963 3.307078 2.445486 0
M  V30 48 H -3.568626 3.489099 0.812485 0
M  V30 49 H -2.354110 2.548854 1.786560 0
M  V30 50 H -2.184362 2.430081 -4.386289 0
M  V30 51 H -0.078434 2.386841 -5.604991 0
M  V30 52 H 2.704925 -0.558211 -2.560386 0
M  V30 END ATOM
M  V30 BEGIN BOND
M  V30 1 1 1 2
M  V30 2 1 2 3
M  V30 3 1 3 4
M  V30 4 1 4 5
M  V30 5 1 2 6
M  V30 6 2 6 7
M  V30 7 1 7 8
M  V30 8 2 8 9
M  V30 9 1 9 10
M  V30 10 2 10 11
M  V30 11 1 11 12
M  V30 12 2 12 13
M  V30 13 1 13 14
M  V30 14 2 14 15
M  V30 15 1 14 16
M  V30 16 1 16 17
M  V30 17 1 17 18
M  V30 18 1 18 19
M  V30 19 1 19 20
M  V30 20 1 20 21
M  V30 21 1 21 22
M  V30 22 1 13 23
M  V30 23 2 23 24
M  V30 24 1 24 25
M  V30 25 2 25 26
M  V30 26 1 26 27
M  V30 27 1 9 28
M  V30 28 1 28 6
M  V30 29 1 27 10
M  V30 30 1 26 12
M  V30 31 1 22 17
M  V30 32 1 1 29
M  V30 33 1 1 30
M  V30 34 1 1 31
M  V30 35 1 3 32
M  V30 36 1 3 33
M  V30 37 1 4 34
M  V30 38 1 4 35
M  V30 39 1 5 36
M  V30 40 1 7 37
M  V30 41 1 8 38
M  V30 42 1 16 39
M  V30 43 1 17 40 CFG=3
M  V30 44 1 18 41
M  V30 45 1 18 42
M  V30 46 1 19 43
M  V30 47 1 19 44
M  V30 48 1 20 45
M  V30 49 1 20 46
M  V30 50 1 21 47
M  V30 51 1 22 48
M  V30 52 1 22 49
M  V30 53 1 23 50
M  V30 54 1 24 51
M  V30 55 1 27 52
M  V30 END BOND
M  V30 END CTAB
M  END
>  <Dataset>  (385) 
ChEMBL_Kinases

>  <Ligand_Instance>  (385) 
nan

>  <PDB_ID>  (385) 
nan

>  <Standardized_SMILES>  (385) 
CN(CCO)c1ccc(-c2nc3c(C(=O)N[C@H]4CCCNC4)ccnc3[nH]2)s1

>  <Name>  (385) 
nan

>  <Pocket>  (385) 
nan

>  <ATP_Site>  (385) 
nan

>  <Peripheral>  (385) 
nan

>  <Num_H_Atoms_ProtBoundConf>  (385) 
nan

>  <Num_Resolved_Atoms>  (385) 
nan

>  <Num_Not_Resolved_Atoms>  (385) 
nan

$$$$
CHEMBL3718276
     RDKit          3D

  0  0  0  0  0  0  0  0  0  0999 V3000
M  V30 BEGIN CTAB
M  V30 COUNTS 45 48 0 0 0
M  V30 BEGIN ATOM
M  V30 1 O -0.073737 -2.120112 1.656805 0
M  V30 2 C 0.876614 -1.444193 2.110467 0
M  V30 3 N 2.178321 -1.904142 1.823967 0
M  V30 4 C 2.797363 -2.979817 1.117894 0
M  V30 5 C 2.555853 -3.070095 -0.342167 0
M  V30 6 C 1.146609 -3.240244 -0.800906 0
M  V30 7 C 1.262680 -3.738676 -2.262860 0
M  V30 8 C 2.008170 -2.700844 -3.037666 0
M  V30 9 N 2.322033 -1.569278 -2.224226 0
M  V30 10 C 3.144209 -1.879304 -1.099211 0
M  V30 11 C 0.524022 -0.262012 2.880665 0
M  V30 12 C 1.235476 0.079972 4.010825 0
M  V30 13 C 0.821721 1.234595 4.683798 0
M  V30 14 C -0.247452 1.965878 4.209141 0
M  V30 15 O -0.603599 3.085053 4.911346 0
M  V30 16 C -0.946634 1.602290 3.071598 0
M  V30 17 N -1.993502 2.173956 2.465218 0
M  V30 18 C -2.270226 1.390733 1.386811 0
M  V30 19 C -3.351059 1.580128 0.367350 0
M  V30 20 C -3.591978 2.996390 -0.129303 0
M  V30 21 C -4.595336 2.323298 0.718221 0
M  V30 22 N -1.404672 0.379721 1.359138 0
M  V30 23 C -0.547799 0.454622 2.388748 0
M  V30 24 H 2.864949 -1.223109 2.285620 0
M  V30 25 H 2.419457 -3.944197 1.558999 0
M  V30 26 H 3.887608 -2.987876 1.274650 0
M  V30 27 H 3.108464 -3.993256 -0.690544 0
M  V30 28 H 0.689487 -2.237741 -0.920311 0
M  V30 29 H 0.540984 -3.959090 -0.217885 0
M  V30 30 H 0.232301 -3.909850 -2.627974 0
M  V30 31 H 1.838018 -4.689562 -2.192210 0
M  V30 32 H 2.879419 -3.112377 -3.578900 0
M  V30 33 H 1.304569 -2.358377 -3.851205 0
M  V30 34 H 2.549246 -0.701084 -2.710823 0
M  V30 35 H 3.184446 -0.980417 -0.423635 0
M  V30 36 H 4.174221 -2.137384 -1.417453 0
M  V30 37 H 2.071881 -0.533833 4.341125 0
M  V30 38 H 1.377023 1.522454 5.586365 0
M  V30 39 H -0.379284 3.994207 4.542713 0
M  V30 40 H -2.520963 3.038122 2.725890 0
M  V30 41 H -3.433472 0.833433 -0.466465 0
M  V30 42 H -3.033667 3.836864 0.343955 0
M  V30 43 H -3.884657 3.172609 -1.179181 0
M  V30 44 H -4.719888 2.692258 1.768063 0
M  V30 45 H -5.568387 1.947281 0.303699 0
M  V30 END ATOM
M  V30 BEGIN BOND
M  V30 1 2 1 2
M  V30 2 1 2 3
M  V30 3 1 3 4
M  V30 4 1 4 5
M  V30 5 1 5 6
M  V30 6 1 6 7
M  V30 7 1 7 8
M  V30 8 1 8 9
M  V30 9 1 9 10
M  V30 10 1 2 11
M  V30 11 2 11 12
M  V30 12 1 12 13
M  V30 13 2 13 14
M  V30 14 1 14 15
M  V30 15 1 14 16
M  V30 16 1 16 17
M  V30 17 1 17 18
M  V30 18 1 18 19
M  V30 19 1 19 20
M  V30 20 1 20 21
M  V30 21 2 18 22
M  V30 22 1 22 23
M  V30 23 1 10 5
M  V30 24 1 23 11
M  V30 25 2 23 16
M  V30 26 1 21 19
M  V30 27 1 3 24
M  V30 28 1 4 25
M  V30 29 1 4 26
M  V30 30 1 5 27
M  V30 31 1 6 28
M  V30 32 1 6 29
M  V30 33 1 7 30
M  V30 34 1 7 31
M  V30 35 1 8 32
M  V30 36 1 8 33
M  V30 37 1 9 34
M  V30 38 1 10 35
M  V30 39 1 10 36
M  V30 40 1 12 37
M  V30 41 1 13 38
M  V30 42 1 15 39
M  V30 43 1 17 40
M  V30 44 1 19 41
M  V30 45 1 20 42
M  V30 46 1 20 43
M  V30 47 1 21 44
M  V30 48 1 21 45
M  V30 END BOND
M  V30 END CTAB
M  END
>  <Dataset>  (386) 
ChEMBL_Kinases

>  <Ligand_Instance>  (386) 
nan

>  <PDB_ID>  (386) 
nan

>  <Standardized_SMILES>  (386) 
O=C(NCC1CCCNC1)c1ccc(O)c2[nH]c(C3CC3)nc12

>  <Name>  (386) 
nan

>  <Pocket>  (386) 
nan

>  <ATP_Site>  (386) 
nan

>  <Peripheral>  (386) 
nan

>  <Num_H_Atoms_ProtBoundConf>  (386) 
nan

>  <Num_Resolved_Atoms>  (386) 
nan

>  <Num_Not_Resolved_Atoms>  (386) 
nan

$$$$
CHEMBL3718269
     RDKit          3D

  0  0  0  0  0  0  0  0  0  0999 V3000
M  V30 BEGIN CTAB
M  V30 COUNTS 38 41 0 0 0
M  V30 BEGIN ATOM
M  V30 1 C 0.461759 -5.353136 2.496004 0
M  V30 2 C 1.343176 -4.230814 3.061243 0
M  V30 3 O 1.196260 -3.160707 2.152830 0
M  V30 4 C 1.802254 -1.934464 2.247057 0
M  V30 5 O 2.536499 -1.795309 3.233329 0
M  V30 6 C 1.400140 -1.084212 1.106909 0
M  V30 7 C 1.968910 -0.926909 -0.140262 0
M  V30 8 N 3.138497 -1.643195 -0.518310 0
M  V30 9 N 1.210452 -0.030330 -0.803769 0
M  V30 10 C 1.536875 0.370811 -2.173284 0
M  V30 11 C 2.248946 1.657786 -2.404772 0
M  V30 12 C 0.779490 1.418145 -2.868873 0
M  V30 13 C 0.192680 0.377502 -0.021656 0
M  V30 14 N -0.805365 1.244430 -0.236805 0
M  V30 15 C -1.745015 1.515855 0.706300 0
M  V30 16 C -2.772343 2.400378 0.501337 0
M  V30 17 C -3.707278 2.641383 1.500814 0
M  V30 18 C -3.561070 1.959859 2.698485 0
M  V30 19 C -2.546614 1.061538 2.953209 0
M  V30 20 C -1.652070 0.867786 1.919433 0
M  V30 21 N -0.640878 -0.016459 2.149814 0
M  V30 22 C 0.285443 -0.271405 1.193525 0
M  V30 23 H 0.716467 -5.395982 1.397596 0
M  V30 24 H -0.584980 -4.965055 2.564362 0
M  V30 25 H 0.617238 -6.303055 3.007661 0
M  V30 26 H 0.811224 -3.917014 3.994940 0
M  V30 27 H 2.373624 -4.552696 3.229441 0
M  V30 28 H 3.181921 -2.345486 -1.311483 0
M  V30 29 H 3.968457 -1.409629 0.068854 0
M  V30 30 H 1.887889 -0.470159 -2.829022 0
M  V30 31 H 3.000370 1.739575 -3.219442 0
M  V30 32 H 2.373183 2.343841 -1.542054 0
M  V30 33 H 0.624500 1.343767 -3.967651 0
M  V30 34 H 0.034415 2.054814 -2.372541 0
M  V30 35 H -2.852513 2.910128 -0.441498 0
M  V30 36 H -4.538606 3.343336 1.364015 0
M  V30 37 H -4.311763 2.167102 3.472104 0
M  V30 38 H -2.497453 0.566845 3.914340 0
M  V30 END ATOM
M  V30 BEGIN BOND
M  V30 1 1 1 2
M  V30 2 1 2 3
M  V30 3 1 3 4
M  V30 4 2 4 5
M  V30 5 1 4 6
M  V30 6 2 6 7
M  V30 7 1 7 8
M  V30 8 1 7 9
M  V30 9 1 9 10
M  V30 10 1 10 11
M  V30 11 1 11 12
M  V30 12 1 9 13
M  V30 13 2 13 14
M  V30 14 1 14 15
M  V30 15 2 15 16
M  V30 16 1 16 17
M  V30 17 2 17 18
M  V30 18 1 18 19
M  V30 19 2 19 20
M  V30 20 1 20 21
M  V30 21 2 21 22
M  V30 22 1 22 6
M  V30 23 1 12 10
M  V30 24 1 22 13
M  V30 25 1 20 15
M  V30 26 1 1 23
M  V30 27 1 1 24
M  V30 28 1 1 25
M  V30 29 1 2 26
M  V30 30 1 2 27
M  V30 31 1 8 28
M  V30 32 1 8 29
M  V30 33 1 10 30
M  V30 34 1 11 31
M  V30 35 1 11 32
M  V30 36 1 12 33
M  V30 37 1 12 34
M  V30 38 1 16 35
M  V30 39 1 17 36
M  V30 40 1 18 37
M  V30 41 1 19 38
M  V30 END BOND
M  V30 END CTAB
M  END
>  <Dataset>  (387) 
ChEMBL_Kinases

>  <Ligand_Instance>  (387) 
nan

>  <PDB_ID>  (387) 
nan

>  <Standardized_SMILES>  (387) 
CCOC(=O)c1c(N)n(C2CC2)c2nc3ccccc3nc12

>  <Name>  (387) 
nan

>  <Pocket>  (387) 
nan

>  <ATP_Site>  (387) 
nan

>  <Peripheral>  (387) 
nan

>  <Num_H_Atoms_ProtBoundConf>  (387) 
nan

>  <Num_Resolved_Atoms>  (387) 
nan

>  <Num_Not_Resolved_Atoms>  (387) 
nan

$$$$
CHEMBL3718268
     RDKit          3D

  0  0  0  0  0  0  0  0  0  0999 V3000
M  V30 BEGIN CTAB
M  V30 COUNTS 49 52 0 0 0
M  V30 BEGIN ATOM
M  V30 1 N 1.384177 -6.364606 -0.191888 0
M  V30 2 C 0.822817 -5.718883 0.972302 0
M  V30 3 C 0.847992 -4.199168 0.781549 0
M  V30 4 C 0.278956 -3.517450 1.958534 0
M  V30 5 C 1.087350 -2.504129 2.665687 0
M  V30 6 C 2.465477 -2.248540 2.128149 0
M  V30 7 C 2.550203 -2.369608 0.642354 0
M  V30 8 C 1.675881 -1.404069 -0.099169 0
M  V30 9 N 1.968372 -0.035564 0.168594 0
M  V30 10 C 1.065128 0.763144 -0.583153 0
M  V30 11 O 0.197031 0.192406 -1.326315 0
M  V30 12 C 0.889850 2.203338 -0.708772 0
M  V30 13 C 1.810697 3.099996 -1.209490 0
M  V30 14 C 1.472085 4.442878 -1.257771 0
M  V30 15 N 0.272492 4.865027 -0.826297 0
M  V30 16 C -0.668270 4.048162 -0.328524 0
M  V30 17 N -1.908755 4.206574 0.156424 0
M  V30 18 C -2.378471 3.002313 0.515706 0
M  V30 19 C -3.662615 2.731250 1.080345 0
M  V30 20 C -4.207342 1.565880 1.461707 0
M  V30 21 C -5.468361 1.505560 1.990164 0
M  V30 22 C -6.133070 2.765621 2.095621 0
M  V30 23 S -4.887110 3.957617 1.421463 0
M  V30 24 N -1.441392 2.080600 0.260977 0
M  V30 25 C -0.345848 2.698294 -0.272698 0
M  V30 26 C 2.197020 -3.804192 0.312903 0
M  V30 27 H 2.179357 -6.987615 0.035900 0
M  V30 28 H 0.629486 -6.948346 -0.636949 0
M  V30 29 H -0.238142 -5.987349 1.158371 0
M  V30 30 H 1.391809 -5.935112 1.892343 0
M  V30 31 H 0.115433 -4.040002 -0.072625 0
M  V30 32 H -0.767626 -3.111157 1.754118 0
M  V30 33 H 0.040955 -4.323049 2.725116 0
M  V30 34 H 1.163882 -2.730870 3.772137 0
M  V30 35 H 0.506345 -1.530310 2.671705 0
M  V30 36 H 2.917362 -1.324330 2.535948 0
M  V30 37 H 3.098637 -3.094703 2.534698 0
M  V30 38 H 3.595457 -2.202247 0.333350 0
M  V30 39 H 0.619530 -1.667035 0.137138 0
M  V30 40 H 1.775567 -1.561887 -1.214783 0
M  V30 41 H 2.607619 0.576799 0.717874 0
M  V30 42 H 2.763349 2.670068 -1.539017 0
M  V30 43 H 2.222182 5.120240 -1.658380 0
M  V30 44 H -2.396786 5.137712 0.225884 0
M  V30 45 H -3.636091 0.631871 1.350167 0
M  V30 46 H -6.002960 0.631470 2.329219 0
M  V30 47 H -7.164023 2.919686 2.500284 0
M  V30 48 H 3.035284 -4.442894 0.688072 0
M  V30 49 H 2.251978 -3.870841 -0.803373 0
M  V30 END ATOM
M  V30 BEGIN BOND
M  V30 1 1 1 2
M  V30 2 1 2 3
M  V30 3 1 3 4
M  V30 4 1 4 5
M  V30 5 1 5 6
M  V30 6 1 6 7
M  V30 7 1 7 8
M  V30 8 1 8 9
M  V30 9 1 9 10
M  V30 10 2 10 11
M  V30 11 1 10 12
M  V30 12 2 12 13
M  V30 13 1 13 14
M  V30 14 2 14 15
M  V30 15 1 15 16
M  V30 16 1 16 17
M  V30 17 1 17 18
M  V30 18 1 18 19
M  V30 19 2 19 20
M  V30 20 1 20 21
M  V30 21 2 21 22
M  V30 22 1 22 23
M  V30 23 2 18 24
M  V30 24 1 24 25
M  V30 25 1 7 26
M  V30 26 1 26 3
M  V30 27 1 25 12
M  V30 28 2 25 16
M  V30 29 1 23 19
M  V30 30 1 1 27
M  V30 31 1 1 28
M  V30 32 1 2 29
M  V30 33 1 2 30
M  V30 34 1 3 31
M  V30 35 1 4 32
M  V30 36 1 4 33
M  V30 37 1 5 34
M  V30 38 1 5 35
M  V30 39 1 6 36
M  V30 40 1 6 37
M  V30 41 1 7 38
M  V30 42 1 8 39
M  V30 43 1 8 40
M  V30 44 1 9 41
M  V30 45 1 13 42
M  V30 46 1 14 43
M  V30 47 1 17 44
M  V30 48 1 20 45
M  V30 49 1 21 46
M  V30 50 1 22 47
M  V30 51 1 26 48
M  V30 52 1 26 49
M  V30 END BOND
M  V30 END CTAB
M  END
>  <Dataset>  (388) 
ChEMBL_Kinases

>  <Ligand_Instance>  (388) 
nan

>  <PDB_ID>  (388) 
nan

>  <Standardized_SMILES>  (388) 
NCC1CCCC(CNC(=O)c2ccnc3[nH]c(-c4cccs4)nc23)C1

>  <Name>  (388) 
nan

>  <Pocket>  (388) 
nan

>  <ATP_Site>  (388) 
nan

>  <Peripheral>  (388) 
nan

>  <Num_H_Atoms_ProtBoundConf>  (388) 
nan

>  <Num_Resolved_Atoms>  (388) 
nan

>  <Num_Not_Resolved_Atoms>  (388) 
nan

$$$$
CHEMBL3718223
     RDKit          3D

  0  0  0  0  0  0  0  0  0  0999 V3000
M  V30 BEGIN CTAB
M  V30 COUNTS 39 42 0 0 0
M  V30 BEGIN ATOM
M  V30 1 O -2.629213 -1.603090 1.275588 0
M  V30 2 C -1.741362 -1.181634 0.478245 0
M  V30 3 N -0.598341 -2.010996 0.158941 0
M  V30 4 C -0.502916 -3.334768 0.778756 0
M  V30 5 C 0.772271 -3.964970 0.265627 0
M  V30 6 C 1.117166 -5.323691 0.741256 0
M  V30 7 N 2.036855 -4.769004 1.692754 0
M  V30 8 C 1.953017 -3.472911 1.068101 0
M  V30 9 C -1.728898 0.128509 -0.206357 0
M  V30 10 C -2.501529 0.532312 -1.270612 0
M  V30 11 C -2.331267 1.802689 -1.774707 0
M  V30 12 C -1.428529 2.718940 -1.283870 0
M  V30 13 O -1.295634 3.982908 -1.825555 0
M  V30 14 C -0.648913 2.308095 -0.206864 0
M  V30 15 N 0.304318 2.972086 0.476353 0
M  V30 16 C 0.761457 2.148246 1.425405 0
M  V30 17 C 1.810068 2.317036 2.479450 0
M  V30 18 C 2.467701 1.149574 3.071550 0
M  V30 19 C 1.467234 1.887713 3.873943 0
M  V30 20 N 0.089688 0.988334 1.318715 0
M  V30 21 C -0.812543 1.021869 0.312459 0
M  V30 22 H 0.154057 -1.662326 -0.512398 0
M  V30 23 H -0.387480 -3.256738 1.900047 0
M  V30 24 H -1.383665 -3.950880 0.568373 0
M  V30 25 H 0.909323 -3.755319 -0.819879 0
M  V30 26 H 0.303026 -5.950727 1.156733 0
M  V30 27 H 1.649234 -5.878565 -0.083655 0
M  V30 28 H 3.003531 -5.195693 1.665348 0
M  V30 29 H 2.819180 -3.188075 0.432655 0
M  V30 30 H 1.700399 -2.688434 1.831570 0
M  V30 31 H -3.194600 -0.219593 -1.623564 0
M  V30 32 H -2.952991 2.082259 -2.616533 0
M  V30 33 H -1.649250 4.176837 -2.745568 0
M  V30 34 H 0.669235 3.923834 0.356407 0
M  V30 35 H 2.326825 3.293203 2.447649 0
M  V30 36 H 2.227844 0.116632 2.761071 0
M  V30 37 H 3.546269 1.267525 3.369613 0
M  V30 38 H 0.453544 1.465665 4.055320 0
M  V30 39 H 1.831856 2.482344 4.753744 0
M  V30 END ATOM
M  V30 BEGIN BOND
M  V30 1 2 1 2
M  V30 2 1 2 3
M  V30 3 1 3 4
M  V30 4 1 4 5
M  V30 5 1 5 6
M  V30 6 1 6 7
M  V30 7 1 7 8
M  V30 8 1 2 9
M  V30 9 2 9 10
M  V30 10 1 10 11
M  V30 11 2 11 12
M  V30 12 1 12 13
M  V30 13 1 12 14
M  V30 14 1 14 15
M  V30 15 1 15 16
M  V30 16 1 16 17
M  V30 17 1 17 18
M  V30 18 1 18 19
M  V30 19 2 16 20
M  V30 20 1 20 21
M  V30 21 1 8 5
M  V30 22 1 21 9
M  V30 23 2 21 14
M  V30 24 1 19 17
M  V30 25 1 3 22
M  V30 26 1 4 23
M  V30 27 1 4 24
M  V30 28 1 5 25
M  V30 29 1 6 26
M  V30 30 1 6 27
M  V30 31 1 7 28
M  V30 32 1 8 29
M  V30 33 1 8 30
M  V30 34 1 10 31
M  V30 35 1 11 32
M  V30 36 1 13 33
M  V30 37 1 15 34
M  V30 38 1 17 35
M  V30 39 1 18 36
M  V30 40 1 18 37
M  V30 41 1 19 38
M  V30 42 1 19 39
M  V30 END BOND
M  V30 END CTAB
M  END
>  <Dataset>  (389) 
ChEMBL_Kinases

>  <Ligand_Instance>  (389) 
nan

>  <PDB_ID>  (389) 
nan

>  <Standardized_SMILES>  (389) 
O=C(NCC1CNC1)c1ccc(O)c2[nH]c(C3CC3)nc12

>  <Name>  (389) 
nan

>  <Pocket>  (389) 
nan

>  <ATP_Site>  (389) 
nan

>  <Peripheral>  (389) 
nan

>  <Num_H_Atoms_ProtBoundConf>  (389) 
nan

>  <Num_Resolved_Atoms>  (389) 
nan

>  <Num_Not_Resolved_Atoms>  (389) 
nan

$$$$
CHEMBL3718188
     RDKit          3D

  0  0  0  0  0  0  0  0  0  0999 V3000
M  V30 BEGIN CTAB
M  V30 COUNTS 43 45 0 0 0
M  V30 BEGIN ATOM
M  V30 1 C -0.125490 -4.737269 0.164744 0
M  V30 2 C 1.077257 -4.136647 0.911164 0
M  V30 3 C 1.766846 -3.247842 -0.056372 0
M  V30 4 C 2.965352 -2.539345 0.423071 0
M  V30 5 C 2.820181 -1.593958 1.557064 0
M  V30 6 N 1.919332 -0.500942 1.250495 0
M  V30 7 C 2.350557 0.664188 0.679666 0
M  V30 8 N 3.716286 0.951592 0.313493 0
M  V30 9 C 1.347808 1.570249 0.475223 0
M  V30 10 C 1.460358 2.901056 -0.108839 0
M  V30 11 O 2.586633 3.314016 -0.485424 0
M  V30 12 O 0.315968 3.675032 -0.231962 0
M  V30 13 C 0.366972 4.981562 -0.794718 0
M  V30 14 C 0.211829 0.948187 0.942158 0
M  V30 15 N -1.080876 1.312870 1.020450 0
M  V30 16 C -1.986717 0.453067 1.548474 0
M  V30 17 C -3.305488 0.883587 1.603583 0
M  V30 18 C -4.265466 0.021817 2.142248 0
M  V30 19 C -3.851406 -1.214744 2.592199 0
M  V30 20 C -2.550948 -1.670396 2.551056 0
M  V30 21 C -1.615793 -0.810959 2.017853 0
M  V30 22 N -0.314526 -1.115915 1.912607 0
M  V30 23 C 0.601257 -0.291126 1.397577 0
M  V30 24 H -0.940664 -3.992361 0.274330 0
M  V30 25 H -0.406160 -5.650732 0.713176 0
M  V30 26 H 0.120422 -4.899971 -0.905641 0
M  V30 27 H 1.802690 -4.971021 1.159416 0
M  V30 28 H 0.676870 -3.697036 1.817013 0
M  V30 29 H 0.986631 -2.532524 -0.452355 0
M  V30 30 H 2.012121 -3.867017 -0.944017 0
M  V30 31 H 3.796602 -3.269586 0.584104 0
M  V30 32 H 3.342822 -1.918913 -0.445076 0
M  V30 33 H 2.561886 -2.082380 2.522345 0
M  V30 34 H 3.831786 -1.168052 1.744718 0
M  V30 35 H 4.236671 1.553105 1.006527 0
M  V30 36 H 4.289469 0.670863 -0.519342 0
M  V30 37 H 0.626809 4.916714 -1.876963 0
M  V30 38 H 1.037961 5.651890 -0.236465 0
M  V30 39 H -0.665564 5.391984 -0.736962 0
M  V30 40 H -3.568520 1.866912 1.233831 0
M  V30 41 H -5.312163 0.325992 2.201903 0
M  V30 42 H -4.613793 -1.880811 3.012217 0
M  V30 43 H -2.250837 -2.644517 2.910221 0
M  V30 END ATOM
M  V30 BEGIN BOND
M  V30 1 1 1 2
M  V30 2 1 2 3
M  V30 3 1 3 4
M  V30 4 1 4 5
M  V30 5 1 5 6
M  V30 6 1 6 7
M  V30 7 1 7 8
M  V30 8 2 7 9
M  V30 9 1 9 10
M  V30 10 2 10 11
M  V30 11 1 10 12
M  V30 12 1 12 13
M  V30 13 1 9 14
M  V30 14 2 14 15
M  V30 15 1 15 16
M  V30 16 2 16 17
M  V30 17 1 17 18
M  V30 18 2 18 19
M  V30 19 1 19 20
M  V30 20 2 20 21
M  V30 21 1 21 22
M  V30 22 2 22 23
M  V30 23 1 23 6
M  V30 24 1 23 14
M  V30 25 1 21 16
M  V30 26 1 1 24
M  V30 27 1 1 25
M  V30 28 1 1 26
M  V30 29 1 2 27
M  V30 30 1 2 28
M  V30 31 1 3 29
M  V30 32 1 3 30
M  V30 33 1 4 31
M  V30 34 1 4 32
M  V30 35 1 5 33
M  V30 36 1 5 34
M  V30 37 1 8 35
M  V30 38 1 8 36
M  V30 39 1 13 37
M  V30 40 1 13 38
M  V30 41 1 13 39
M  V30 42 1 17 40
M  V30 43 1 18 41
M  V30 44 1 19 42
M  V30 45 1 20 43
M  V30 END BOND
M  V30 END CTAB
M  END
>  <Dataset>  (390) 
ChEMBL_Kinases

>  <Ligand_Instance>  (390) 
nan

>  <PDB_ID>  (390) 
nan

>  <Standardized_SMILES>  (390) 
CCCCCn1c(N)c(C(=O)OC)c2nc3ccccc3nc21

>  <Name>  (390) 
nan

>  <Pocket>  (390) 
nan

>  <ATP_Site>  (390) 
nan

>  <Peripheral>  (390) 
nan

>  <Num_H_Atoms_ProtBoundConf>  (390) 
nan

>  <Num_Resolved_Atoms>  (390) 
nan

>  <Num_Not_Resolved_Atoms>  (390) 
nan

$$$$
CHEMBL567068
     RDKit          3D

  0  0  0  0  0  0  0  0  0  0999 V3000
M  V30 BEGIN CTAB
M  V30 COUNTS 54 57 0 0 0
M  V30 BEGIN ATOM
M  V30 1 C 2.328355 -0.053171 -2.189345 0
M  V30 2 N 2.395811 0.826890 -1.033402 0
M  V30 3 C 3.568046 1.329203 -0.604464 0
M  V30 4 O 4.597118 0.998738 -1.252766 0
M  V30 5 C 3.719980 2.170210 0.481894 0
M  V30 6 C 5.017782 2.686309 0.902409 0
M  V30 7 C 5.409712 3.885414 0.339439 0
M  V30 8 Cl 4.456229 4.793891 -0.821095 0
M  V30 9 C 6.609178 4.478276 0.651553 0
M  V30 10 C 7.439466 3.830219 1.567570 0
M  V30 11 C 7.041007 2.622280 2.132472 0
M  V30 12 C 5.818802 2.022063 1.811922 0
M  V30 13 Cl 5.288912 0.515854 2.496691 0
M  V30 14 C 2.576805 2.524314 1.184851 0
M  V30 15 C 1.384686 1.993282 0.721746 0
M  V30 16 C 0.217066 2.335765 1.413019 0
M  V30 17 N -0.966695 1.844141 0.999369 0
M  V30 18 C -1.084573 1.022342 -0.068506 0
M  V30 19 N -2.362928 0.540015 -0.455985 0
M  V30 20 C -3.087985 -0.596070 -0.076622 0
M  V30 21 C -2.594031 -1.493058 0.835795 0
M  V30 22 C -3.426075 -2.556710 1.104145 0
M  V30 23 C -4.668190 -2.803105 0.563672 0
M  V30 24 N -5.511426 -3.902603 0.837243 0
M  V30 25 C -5.437008 -5.095136 1.633388 0
M  V30 26 C -4.641960 -6.219179 1.057815 0
M  V30 27 O -4.699767 -7.261925 1.992706 0
M  V30 28 C -3.198082 -5.926166 0.776243 0
M  V30 29 O -2.600024 -7.108951 0.280005 0
M  V30 30 C -5.092048 -1.856864 -0.342954 0
M  V30 31 C -4.320676 -0.766754 -0.664413 0
M  V30 32 N 0.048695 0.683489 -0.747816 0
M  V30 33 C 1.254864 1.154559 -0.366071 0
M  V30 34 H 2.064981 0.485394 -3.119204 0
M  V30 35 H 3.360737 -0.496462 -2.298136 0
M  V30 36 H 1.662949 -0.910288 -1.977062 0
M  V30 37 H 6.964711 5.413461 0.241781 0
M  V30 38 H 8.401152 4.277792 1.836152 0
M  V30 39 H 7.685940 2.117674 2.844775 0
M  V30 40 H 2.599066 3.175389 2.045406 0
M  V30 41 H 0.179895 2.983353 2.281194 0
M  V30 42 H -2.688424 1.257286 -1.138280 0
M  V30 43 H -1.639625 -1.384771 1.307643 0
M  V30 44 H -3.050103 -3.271389 1.832261 0
M  V30 45 H -6.453606 -3.910446 0.360273 0
M  V30 46 H -4.884397 -4.792971 2.591890 0
M  V30 47 H -6.421596 -5.425045 2.031608 0
M  V30 48 H -5.077754 -6.605311 0.109634 0
M  V30 49 H -3.807565 -7.414699 2.387084 0
M  V30 50 H -3.077293 -5.142347 -0.007521 0
M  V30 51 H -2.620107 -5.615024 1.656853 0
M  V30 52 H -2.022045 -6.892141 -0.509579 0
M  V30 53 H -6.065373 -1.941913 -0.842007 0
M  V30 54 H -4.701631 -0.048555 -1.386572 0
M  V30 END ATOM
M  V30 BEGIN BOND
M  V30 1 1 1 2
M  V30 2 1 2 3
M  V30 3 2 3 4
M  V30 4 1 3 5
M  V30 5 1 5 6
M  V30 6 2 6 7
M  V30 7 1 7 8
M  V30 8 1 7 9
M  V30 9 2 9 10
M  V30 10 1 10 11
M  V30 11 2 11 12
M  V30 12 1 12 13
M  V30 13 2 5 14
M  V30 14 1 14 15
M  V30 15 2 15 16
M  V30 16 1 16 17
M  V30 17 2 17 18
M  V30 18 1 18 19
M  V30 19 1 19 20
M  V30 20 2 20 21
M  V30 21 1 21 22
M  V30 22 2 22 23
M  V30 23 1 23 24
M  V30 24 1 24 25
M  V30 25 1 25 26
M  V30 26 1 26 27
M  V30 27 1 26 28
M  V30 28 1 28 29
M  V30 29 1 23 30
M  V30 30 2 30 31
M  V30 31 1 18 32
M  V30 32 2 32 33
M  V30 33 1 33 2
M  V30 34 1 12 6
M  V30 35 1 33 15
M  V30 36 1 31 20
M  V30 37 1 1 34
M  V30 38 1 1 35
M  V30 39 1 1 36
M  V30 40 1 9 37
M  V30 41 1 10 38
M  V30 42 1 11 39
M  V30 43 1 14 40
M  V30 44 1 16 41
M  V30 45 1 19 42
M  V30 46 1 21 43
M  V30 47 1 22 44
M  V30 48 1 24 45
M  V30 49 1 25 46
M  V30 50 1 25 47
M  V30 51 1 26 48
M  V30 52 1 27 49
M  V30 53 1 28 50
M  V30 54 1 28 51
M  V30 55 1 29 52
M  V30 56 1 30 53
M  V30 57 1 31 54
M  V30 END BOND
M  V30 END CTAB
M  END
>  <Dataset>  (391) 
ChEMBL_Kinases

>  <Ligand_Instance>  (391) 
nan

>  <PDB_ID>  (391) 
nan

>  <Standardized_SMILES>  (391) 
Cn1c(=O)c(-c2c(Cl)cccc2Cl)cc2cnc(Nc3ccc(NCC(O)CO)cc3)nc21

>  <Name>  (391) 
nan

>  <Pocket>  (391) 
nan

>  <ATP_Site>  (391) 
nan

>  <Peripheral>  (391) 
nan

>  <Num_H_Atoms_ProtBoundConf>  (391) 
nan

>  <Num_Resolved_Atoms>  (391) 
nan

>  <Num_Not_Resolved_Atoms>  (391) 
nan

$$$$
CHEMBL3714916
     RDKit          3D

  0  0  0  0  0  0  0  0  0  0999 V3000
M  V30 BEGIN CTAB
M  V30 COUNTS 43 47 0 0 0
M  V30 BEGIN ATOM
M  V30 1 C 0.265831 -4.794834 -0.956697 0
M  V30 2 C 1.248755 -3.811990 -1.493055 0
M  V30 3 C 1.946218 -4.200236 -2.592589 0
M  V30 4 C 2.905196 -3.436148 -3.244884 0
M  V30 5 N 3.747697 -3.476569 -4.289264 0
M  V30 6 N 4.440529 -2.353781 -4.382566 0
M  V30 7 C 4.090085 -1.492470 -3.388897 0
M  V30 8 C 3.146351 -2.191148 -2.711686 0
M  V30 9 C 2.414874 -1.818064 -1.581108 0
M  V30 10 S 2.398259 -0.281277 -0.543322 0
M  V30 11 C 1.132412 -0.922100 0.561249 0
M  V30 12 N 0.627372 -0.127308 1.697596 0
M  V30 13 C 1.142442 1.159350 1.927732 0
M  V30 14 O 2.036100 1.662745 1.184494 0
M  V30 15 C 0.661014 1.985255 3.054388 0
M  V30 16 N -0.369946 1.519307 3.942042 0
M  V30 17 C -1.712052 1.217584 3.588950 0
M  V30 18 C -2.682996 0.756625 4.484860 0
M  V30 19 C -3.956386 0.489686 4.088098 0
M  V30 20 C -4.370054 0.654926 2.786216 0
M  V30 21 Cl -6.022721 0.292895 2.343815 0
M  V30 22 C -3.467601 1.105440 1.850747 0
M  V30 23 C -2.194978 1.363119 2.289628 0
M  V30 24 C 0.816649 3.461591 2.996814 0
M  V30 25 C 1.823224 2.706230 3.792862 0
M  V30 26 N 0.878574 -2.032266 0.132653 0
M  V30 27 C 1.454470 -2.572806 -0.920906 0
M  V30 28 H -0.110442 -5.458818 -1.762049 0
M  V30 29 H 0.792796 -5.441701 -0.225914 0
M  V30 30 H -0.578621 -4.250674 -0.478569 0
M  V30 31 H 1.789544 -5.185031 -3.055503 0
M  V30 32 H 3.781950 -4.342259 -4.903924 0
M  V30 33 H 4.459195 -0.509790 -3.183974 0
M  V30 34 H -0.083901 -0.592227 2.253655 0
M  V30 35 H -0.159958 1.369074 4.972746 0
M  V30 36 H -2.380477 0.620269 5.509151 0
M  V30 37 H -4.642668 0.132756 4.866192 0
M  V30 38 H -3.732568 1.253916 0.818357 0
M  V30 39 H -1.469033 1.722620 1.550893 0
M  V30 40 H 0.124262 4.094192 3.576180 0
M  V30 41 H 1.167316 3.970580 2.068286 0
M  V30 42 H 1.791750 2.723897 4.899045 0
M  V30 43 H 2.826506 2.650058 3.367050 0
M  V30 END ATOM
M  V30 BEGIN BOND
M  V30 1 1 1 2
M  V30 2 2 2 3
M  V30 3 1 3 4
M  V30 4 1 4 5
M  V30 5 1 5 6
M  V30 6 2 6 7
M  V30 7 1 7 8
M  V30 8 1 8 9
M  V30 9 1 9 10
M  V30 10 1 10 11
M  V30 11 1 11 12
M  V30 12 1 12 13
M  V30 13 2 13 14
M  V30 14 1 13 15
M  V30 15 1 15 16
M  V30 16 1 16 17
M  V30 17 2 17 18
M  V30 18 1 18 19
M  V30 19 2 19 20
M  V30 20 1 20 21
M  V30 21 1 20 22
M  V30 22 2 22 23
M  V30 23 1 15 24
M  V30 24 1 24 25
M  V30 25 2 11 26
M  V30 26 1 26 27
M  V30 27 1 27 2
M  V30 28 2 8 4
M  V30 29 2 27 9
M  V30 30 1 25 15
M  V30 31 1 23 17
M  V30 32 1 1 28
M  V30 33 1 1 29
M  V30 34 1 1 30
M  V30 35 1 3 31
M  V30 36 1 5 32
M  V30 37 1 7 33
M  V30 38 1 12 34
M  V30 39 1 16 35
M  V30 40 1 18 36
M  V30 41 1 19 37
M  V30 42 1 22 38
M  V30 43 1 23 39
M  V30 44 1 24 40
M  V30 45 1 24 41
M  V30 46 1 25 42
M  V30 47 1 25 43
M  V30 END BOND
M  V30 END CTAB
M  END
>  <Dataset>  (392) 
ChEMBL_Kinases

>  <Ligand_Instance>  (392) 
nan

>  <PDB_ID>  (392) 
nan

>  <Standardized_SMILES>  (392) 
Cc1cc2[nH]ncc2c2sc(NC(=O)C3(Nc4ccc(Cl)cc4)CC3)nc12

>  <Name>  (392) 
nan

>  <Pocket>  (392) 
nan

>  <ATP_Site>  (392) 
nan

>  <Peripheral>  (392) 
nan

>  <Num_H_Atoms_ProtBoundConf>  (392) 
nan

>  <Num_Resolved_Atoms>  (392) 
nan

>  <Num_Not_Resolved_Atoms>  (392) 
nan

$$$$
CHEMBL3714949
     RDKit          3D

  0  0  0  0  0  0  0  0  0  0999 V3000
M  V30 BEGIN CTAB
M  V30 COUNTS 48 51 0 0 0
M  V30 BEGIN ATOM
M  V30 1 O 2.694561 -0.072786 1.963379 0
M  V30 2 C 1.468658 -0.241805 1.843378 0
M  V30 3 N 1.067915 -1.561750 1.563966 0
M  V30 4 C 1.880795 -2.763338 1.385721 0
M  V30 5 C 2.863780 -2.771107 0.261342 0
M  V30 6 C 2.378587 -2.583855 -1.177507 0
M  V30 7 C 3.348550 -1.755582 -1.993374 0
M  V30 8 C 4.777997 -2.118910 -1.807715 0
M  V30 9 N 5.102161 -2.840574 -0.603765 0
M  V30 10 C 4.324299 -2.446173 0.535279 0
M  V30 11 C 0.591067 0.903017 1.999587 0
M  V30 12 C 1.160479 2.104453 2.433927 0
M  V30 13 C 0.476374 3.279538 2.636977 0
M  V30 14 C -0.874274 3.265148 2.391421 0
M  V30 15 O -1.620604 4.438728 2.583132 0
M  V30 16 C -1.504936 2.119806 1.961880 0
M  V30 17 N -2.790086 1.853426 1.662608 0
M  V30 18 C -2.829877 0.551777 1.298178 0
M  V30 19 C -4.056590 -0.139183 0.912748 0
M  V30 20 C -5.242279 0.591519 0.977486 0
M  V30 21 C -6.432524 -0.039439 0.618846 0
M  V30 22 C -6.366724 -1.348467 0.220819 0
M  V30 23 C -5.188163 -2.101177 0.148474 0
M  V30 24 C -4.009503 -1.444074 0.513713 0
M  V30 25 N -1.609974 0.032260 1.369770 0
M  V30 26 C -0.763710 0.986496 1.780806 0
M  V30 27 H 0.007134 -1.658183 1.474392 0
M  V30 28 H 2.470702 -2.885316 2.299449 0
M  V30 29 H 1.195308 -3.610834 1.272962 0
M  V30 30 H 2.815069 -2.190427 0.217970 0
M  V30 31 H 1.364508 -2.162218 -1.299774 0
M  V30 32 H 2.387586 -3.592114 -1.592919 0
M  V30 33 H 3.052725 -1.950947 -3.043128 0
M  V30 34 H 3.148767 -0.679235 -1.756847 0
M  V30 35 H 5.348529 -1.153280 -1.794280 0
M  V30 36 H 5.157768 -2.685029 -2.668507 0
M  V30 37 H 6.094887 -2.708229 -0.332002 0
M  V30 38 H 4.650550 -1.398015 0.783402 0
M  V30 39 H 4.610806 -3.086369 1.372982 0
M  V30 40 H 2.236117 2.157605 2.642562 0
M  V30 41 H 0.988029 4.173053 2.978898 0
M  V30 42 H -1.827481 4.665938 3.555756 0
M  V30 43 H -3.546794 2.574984 1.728373 0
M  V30 44 H -5.337899 1.616843 1.282812 0
M  V30 45 H -7.409639 0.459784 0.643753 0
M  V30 46 H -7.290991 -1.832265 -0.055768 0
M  V30 47 H -5.156341 -3.129164 -0.167353 0
M  V30 48 H -3.061295 -1.991743 0.470916 0
M  V30 END ATOM
M  V30 BEGIN BOND
M  V30 1 2 1 2
M  V30 2 1 2 3
M  V30 3 1 3 4
M  V30 4 1 4 5
M  V30 5 1 5 6
M  V30 6 1 6 7
M  V30 7 1 7 8
M  V30 8 1 8 9
M  V30 9 1 9 10
M  V30 10 1 2 11
M  V30 11 2 11 12
M  V30 12 1 12 13
M  V30 13 2 13 14
M  V30 14 1 14 15
M  V30 15 1 14 16
M  V30 16 1 16 17
M  V30 17 1 17 18
M  V30 18 1 18 19
M  V30 19 2 19 20
M  V30 20 1 20 21
M  V30 21 2 21 22
M  V30 22 1 22 23
M  V30 23 2 23 24
M  V30 24 2 18 25
M  V30 25 1 25 26
M  V30 26 1 10 5
M  V30 27 1 26 11
M  V30 28 2 26 16
M  V30 29 1 24 19
M  V30 30 1 3 27
M  V30 31 1 4 28
M  V30 32 1 4 29
M  V30 33 1 5 30
M  V30 34 1 6 31
M  V30 35 1 6 32
M  V30 36 1 7 33
M  V30 37 1 7 34
M  V30 38 1 8 35
M  V30 39 1 8 36
M  V30 40 1 9 37
M  V30 41 1 10 38
M  V30 42 1 10 39
M  V30 43 1 12 40
M  V30 44 1 13 41
M  V30 45 1 15 42
M  V30 46 1 17 43
M  V30 47 1 20 44
M  V30 48 1 21 45
M  V30 49 1 22 46
M  V30 50 1 23 47
M  V30 51 1 24 48
M  V30 END BOND
M  V30 END CTAB
M  END
>  <Dataset>  (393) 
ChEMBL_Kinases

>  <Ligand_Instance>  (393) 
nan

>  <PDB_ID>  (393) 
nan

>  <Standardized_SMILES>  (393) 
O=C(NCC1CCCNC1)c1ccc(O)c2[nH]c(-c3ccccc3)nc12

>  <Name>  (393) 
nan

>  <Pocket>  (393) 
nan

>  <ATP_Site>  (393) 
nan

>  <Peripheral>  (393) 
nan

>  <Num_H_Atoms_ProtBoundConf>  (393) 
nan

>  <Num_Resolved_Atoms>  (393) 
nan

>  <Num_Not_Resolved_Atoms>  (393) 
nan

$$$$
CHEMBL3718378
     RDKit          3D

  0  0  0  0  0  0  0  0  0  0999 V3000
M  V30 BEGIN CTAB
M  V30 COUNTS 31 32 0 0 0
M  V30 BEGIN ATOM
M  V30 1 C -3.265074 -1.812619 1.916804 0
M  V30 2 C -2.016846 -2.217838 1.190587 0
M  V30 3 C -1.715051 -3.537200 0.927182 0
M  V30 4 C -0.541989 -3.801371 0.253560 0
M  V30 5 C -0.275803 -5.211720 0.004160 0
M  V30 6 O 0.696302 -5.754913 -0.576087 0
M  V30 7 C 0.350010 -2.857997 -0.176470 0
M  V30 8 O 1.498220 -3.221493 -0.843674 0
M  V30 9 C 0.008543 -1.552407 0.108148 0
M  V30 10 C 0.912441 -0.467961 -0.319049 0
M  V30 11 N 2.074479 -0.614555 -0.981674 0
M  V30 12 N 2.640690 0.572700 -1.212290 0
M  V30 13 C 1.813872 1.514740 -0.679650 0
M  V30 14 S 1.861705 3.307317 -0.573728 0
M  V30 15 C 2.718181 3.820004 0.958956 0
M  V30 16 C 1.914397 3.409111 2.154198 0
M  V30 17 O 1.014887 4.047691 2.770006 0
M  V30 18 O 2.034715 2.191479 2.816302 0
M  V30 19 N 0.749450 0.859043 -0.130619 0
M  V30 20 C -1.153438 -1.194295 0.782454 0
M  V30 21 H -2.963768 -1.616123 2.986988 0
M  V30 22 H -4.051814 -2.565862 1.860500 0
M  V30 23 H -3.621249 -0.816165 1.556811 0
M  V30 24 H -2.423110 -4.270941 1.269103 0
M  V30 25 H -0.878369 -6.037439 0.280514 0
M  V30 26 H 1.518837 -3.645168 -1.768145 0
M  V30 27 H 3.707976 3.374236 1.052472 0
M  V30 28 H 2.839454 4.913770 0.937234 0
M  V30 29 H 1.233926 1.598233 2.968943 0
M  V30 30 H -0.101357 1.238496 0.374712 0
M  V30 31 H -1.425580 -0.175066 1.007214 0
M  V30 END ATOM
M  V30 BEGIN BOND
M  V30 1 1 1 2
M  V30 2 2 2 3
M  V30 3 1 3 4
M  V30 4 1 4 5
M  V30 5 2 5 6
M  V30 6 2 4 7
M  V30 7 1 7 8
M  V30 8 1 7 9
M  V30 9 1 9 10
M  V30 10 2 10 11
M  V30 11 1 11 12
M  V30 12 2 12 13
M  V30 13 1 13 14
M  V30 14 1 14 15
M  V30 15 1 15 16
M  V30 16 2 16 17
M  V30 17 1 16 18
M  V30 18 1 13 19
M  V30 19 2 9 20
M  V30 20 1 20 2
M  V30 21 1 19 10
M  V30 22 1 1 21
M  V30 23 1 1 22
M  V30 24 1 1 23
M  V30 25 1 3 24
M  V30 26 1 5 25
M  V30 27 1 8 26
M  V30 28 1 15 27
M  V30 29 1 15 28
M  V30 30 1 18 29
M  V30 31 1 19 30
M  V30 32 1 20 31
M  V30 END BOND
M  V30 END CTAB
M  END
>  <Dataset>  (394) 
ChEMBL_Kinases

>  <Ligand_Instance>  (394) 
nan

>  <PDB_ID>  (394) 
nan

>  <Standardized_SMILES>  (394) 
Cc1cc(C=O)c(O)c(-c2nnc(SCC(=O)O)[nH]2)c1

>  <Name>  (394) 
nan

>  <Pocket>  (394) 
nan

>  <ATP_Site>  (394) 
nan

>  <Peripheral>  (394) 
nan

>  <Num_H_Atoms_ProtBoundConf>  (394) 
nan

>  <Num_Resolved_Atoms>  (394) 
nan

>  <Num_Not_Resolved_Atoms>  (394) 
nan

$$$$
CHEMBL3717362
     RDKit          3D

  0  0  0  0  0  0  0  0  0  0999 V3000
M  V30 BEGIN CTAB
M  V30 COUNTS 34 35 0 0 0
M  V30 BEGIN ATOM
M  V30 1 C -1.221349 -3.520833 4.114322 0
M  V30 2 O -2.008529 -2.989987 3.071599 0
M  V30 3 C -1.530207 -2.233035 2.036767 0
M  V30 4 C -0.197230 -1.903732 1.904295 0
M  V30 5 C 0.246105 -1.130590 0.834508 0
M  V30 6 C 1.642051 -0.752471 0.638946 0
M  V30 7 N 2.681391 -1.098326 1.441824 0
M  V30 8 N 3.793468 -0.557092 0.917468 0
M  V30 9 C 3.480790 0.114751 -0.185731 0
M  V30 10 S 4.650513 1.011099 -1.230454 0
M  V30 11 C 3.758912 1.788872 -2.614314 0
M  V30 12 C 2.838649 2.865616 -2.110364 0
M  V30 13 O 2.077971 3.595301 -2.786088 0
M  V30 14 O 2.542391 3.374475 -0.844214 0
M  V30 15 N 2.137664 0.000365 -0.371174 0
M  V30 16 C -0.696757 -0.708613 -0.083933 0
M  V30 17 C -2.039039 -1.033366 0.038764 0
M  V30 18 O -2.888847 -0.536373 -0.969156 0
M  V30 19 C -2.467888 -1.809750 1.117600 0
M  V30 20 O -3.833952 -2.060365 1.119122 0
M  V30 21 C -4.710940 -1.145235 1.782730 0
M  V30 22 H -1.690825 -4.426275 4.563876 0
M  V30 23 H -0.203762 -3.795769 3.825669 0
M  V30 24 H -1.162732 -2.704551 4.889201 0
M  V30 25 H 0.514117 -2.237445 2.620970 0
M  V30 26 H 3.145383 1.073670 -3.186761 0
M  V30 27 H 4.510726 2.238251 -3.273315 0
M  V30 28 H 2.937237 4.274396 -0.538915 0
M  V30 29 H 1.611628 0.430412 -1.165448 0
M  V30 30 H -0.359448 -0.099880 -0.929269 0
M  V30 31 H -2.779110 -0.920824 -1.919373 0
M  V30 32 H -5.153461 -1.572959 2.680011 0
M  V30 33 H -4.138814 -0.213490 2.040534 0
M  V30 34 H -5.487713 -0.859732 1.028544 0
M  V30 END ATOM
M  V30 BEGIN BOND
M  V30 1 1 1 2
M  V30 2 1 2 3
M  V30 3 2 3 4
M  V30 4 1 4 5
M  V30 5 1 5 6
M  V30 6 2 6 7
M  V30 7 1 7 8
M  V30 8 2 8 9
M  V30 9 1 9 10
M  V30 10 1 10 11
M  V30 11 1 11 12
M  V30 12 2 12 13
M  V30 13 1 12 14
M  V30 14 1 9 15
M  V30 15 2 5 16
M  V30 16 1 16 17
M  V30 17 1 17 18
M  V30 18 2 17 19
M  V30 19 1 19 20
M  V30 20 1 20 21
M  V30 21 1 19 3
M  V30 22 1 15 6
M  V30 23 1 1 22
M  V30 24 1 1 23
M  V30 25 1 1 24
M  V30 26 1 4 25
M  V30 27 1 11 26
M  V30 28 1 11 27
M  V30 29 1 14 28
M  V30 30 1 15 29
M  V30 31 1 16 30
M  V30 32 1 18 31
M  V30 33 1 21 32
M  V30 34 1 21 33
M  V30 35 1 21 34
M  V30 END BOND
M  V30 END CTAB
M  END
>  <Dataset>  (395) 
ChEMBL_Kinases

>  <Ligand_Instance>  (395) 
nan

>  <PDB_ID>  (395) 
nan

>  <Standardized_SMILES>  (395) 
COc1cc(-c2nnc(SCC(=O)O)[nH]2)cc(O)c1OC

>  <Name>  (395) 
nan

>  <Pocket>  (395) 
nan

>  <ATP_Site>  (395) 
nan

>  <Peripheral>  (395) 
nan

>  <Num_H_Atoms_ProtBoundConf>  (395) 
nan

>  <Num_Resolved_Atoms>  (395) 
nan

>  <Num_Not_Resolved_Atoms>  (395) 
nan

$$$$
CHEMBL570580
     RDKit          3D

  0  0  0  0  0  0  0  0  0  0999 V3000
M  V30 BEGIN CTAB
M  V30 COUNTS 36 38 0 0 0
M  V30 BEGIN ATOM
M  V30 1 C -2.106344 -1.888688 3.016426 0
M  V30 2 C -2.057894 -2.293649 1.565587 0
M  V30 3 C -0.724101 -2.132400 0.959108 0
M  V30 4 C 0.064042 -3.271708 0.758975 0
M  V30 5 C 1.314187 -3.143310 0.198432 0
M  V30 6 C 1.819572 -1.903426 -0.177455 0
M  V30 7 C 1.039526 -0.757639 0.018129 0
M  V30 8 C 1.530115 0.496289 -0.355256 0
M  V30 9 C 0.732676 1.615008 -0.151076 0
M  V30 10 O 1.252260 2.842241 -0.534250 0
M  V30 11 C 2.547650 2.877192 -1.101895 0
M  V30 12 C -0.540432 1.504056 0.417107 0
M  V30 13 O -1.209850 2.683057 0.557770 0
M  V30 14 C -2.480276 2.904175 1.081197 0
M  V30 15 C -0.988784 0.234650 0.774069 0
M  V30 16 C -0.213436 -0.909896 0.582820 0
M  V30 17 C 3.168703 -2.115635 -0.738586 0
M  V30 18 O 3.945015 -1.227456 -1.188197 0
M  V30 19 N 3.482290 -3.504704 -0.700867 0
M  V30 20 C 2.335723 -4.132313 -0.122742 0
M  V30 21 O 2.284780 -5.375726 0.055187 0
M  V30 22 H -1.552244 -0.975022 3.256719 0
M  V30 23 H -3.184012 -1.832170 3.289543 0
M  V30 24 H -1.713422 -2.764702 3.598036 0
M  V30 25 H -2.362674 -3.367088 1.525537 0
M  V30 26 H -2.830598 -1.768274 0.940761 0
M  V30 27 H -0.289759 -4.254087 1.036001 0
M  V30 28 H 2.501781 0.563385 -0.786263 0
M  V30 29 H 2.533157 2.211547 -1.988692 0
M  V30 30 H 3.256109 2.490094 -0.334099 0
M  V30 31 H 2.825989 3.879447 -1.461998 0
M  V30 32 H -3.175046 3.388307 0.355272 0
M  V30 33 H -2.446447 3.606132 1.949579 0
M  V30 34 H -2.966494 1.942682 1.337860 0
M  V30 35 H -1.961105 0.180776 1.202520 0
M  V30 36 H 4.383007 -3.928017 -1.040275 0
M  V30 END ATOM
M  V30 BEGIN BOND
M  V30 1 1 1 2
M  V30 2 1 2 3
M  V30 3 2 3 4
M  V30 4 1 4 5
M  V30 5 2 5 6
M  V30 6 1 6 7
M  V30 7 2 7 8
M  V30 8 1 8 9
M  V30 9 1 9 10
M  V30 10 1 10 11
M  V30 11 2 9 12
M  V30 12 1 12 13
M  V30 13 1 13 14
M  V30 14 1 12 15
M  V30 15 2 15 16
M  V30 16 1 6 17
M  V30 17 2 17 18
M  V30 18 1 17 19
M  V30 19 1 19 20
M  V30 20 2 20 21
M  V30 21 1 16 3
M  V30 22 1 20 5
M  V30 23 1 16 7
M  V30 24 1 1 22
M  V30 25 1 1 23
M  V30 26 1 1 24
M  V30 27 1 2 25
M  V30 28 1 2 26
M  V30 29 1 4 27
M  V30 30 1 8 28
M  V30 31 1 11 29
M  V30 32 1 11 30
M  V30 33 1 11 31
M  V30 34 1 14 32
M  V30 35 1 14 33
M  V30 36 1 14 34
M  V30 37 1 15 35
M  V30 38 1 19 36
M  V30 END BOND
M  V30 END CTAB
M  END
>  <Dataset>  (396) 
ChEMBL_Kinases

>  <Ligand_Instance>  (396) 
nan

>  <PDB_ID>  (396) 
nan

>  <Standardized_SMILES>  (396) 
CCc1cc2c(c3cc(OC)c(OC)cc13)C(=O)NC2=O

>  <Name>  (396) 
nan

>  <Pocket>  (396) 
nan

>  <ATP_Site>  (396) 
nan

>  <Peripheral>  (396) 
nan

>  <Num_H_Atoms_ProtBoundConf>  (396) 
nan

>  <Num_Resolved_Atoms>  (396) 
nan

>  <Num_Not_Resolved_Atoms>  (396) 
nan

$$$$
CHEMBL3717328
     RDKit          3D

  0  0  0  0  0  0  0  0  0  0999 V3000
M  V30 BEGIN CTAB
M  V30 COUNTS 26 27 0 0 0
M  V30 BEGIN ATOM
M  V30 1 N -1.981292 -6.508485 -0.693234 0
M  V30 2 C -1.448097 -5.606221 -0.166391 0
M  V30 3 C -0.808332 -4.498376 0.496010 0
M  V30 4 C 0.132454 -4.828666 1.465489 0
M  V30 5 C 0.776027 -3.781460 2.131675 0
M  V30 6 C 0.445443 -2.488834 1.793764 0
M  V30 7 C -0.493829 -2.200712 0.825747 0
M  V30 8 C -0.800323 -0.808021 0.512909 0
M  V30 9 N -1.686566 -0.370852 -0.400050 0
M  V30 10 N -1.686253 0.970106 -0.396600 0
M  V30 11 C -0.789406 1.363075 0.529227 0
M  V30 12 S -0.286962 2.996729 1.051181 0
M  V30 13 C 1.096265 3.576499 0.066374 0
M  V30 14 C 1.537759 4.951275 0.487366 0
M  V30 15 O 0.999733 5.602961 1.412589 0
M  V30 16 O 2.605480 5.504076 -0.207759 0
M  V30 17 N -0.233483 0.271782 1.100003 0
M  V30 18 C -1.146333 -3.208001 0.150445 0
M  V30 19 H 0.351118 -5.858886 1.688579 0
M  V30 20 H 1.517074 -4.017333 2.895385 0
M  V30 21 H 0.985647 -1.735068 2.352650 0
M  V30 22 H 1.976010 2.903807 0.163166 0
M  V30 23 H 0.860563 3.676993 -1.021295 0
M  V30 24 H 3.246430 6.149162 0.243932 0
M  V30 25 H 0.488611 0.195582 1.844512 0
M  V30 26 H -1.881780 -2.988062 -0.607530 0
M  V30 END ATOM
M  V30 BEGIN BOND
M  V30 1 3 1 2
M  V30 2 1 2 3
M  V30 3 2 3 4
M  V30 4 1 4 5
M  V30 5 2 5 6
M  V30 6 1 6 7
M  V30 7 1 7 8
M  V30 8 2 8 9
M  V30 9 1 9 10
M  V30 10 2 10 11
M  V30 11 1 11 12
M  V30 12 1 12 13
M  V30 13 1 13 14
M  V30 14 2 14 15
M  V30 15 1 14 16
M  V30 16 1 11 17
M  V30 17 2 7 18
M  V30 18 1 18 3
M  V30 19 1 17 8
M  V30 20 1 4 19
M  V30 21 1 5 20
M  V30 22 1 6 21
M  V30 23 1 13 22
M  V30 24 1 13 23
M  V30 25 1 16 24
M  V30 26 1 17 25
M  V30 27 1 18 26
M  V30 END BOND
M  V30 END CTAB
M  END
>  <Dataset>  (397) 
ChEMBL_Kinases

>  <Ligand_Instance>  (397) 
nan

>  <PDB_ID>  (397) 
nan

>  <Standardized_SMILES>  (397) 
N#Cc1cccc(-c2nnc(SCC(=O)O)[nH]2)c1

>  <Name>  (397) 
nan

>  <Pocket>  (397) 
nan

>  <ATP_Site>  (397) 
nan

>  <Peripheral>  (397) 
nan

>  <Num_H_Atoms_ProtBoundConf>  (397) 
nan

>  <Num_Resolved_Atoms>  (397) 
nan

>  <Num_Not_Resolved_Atoms>  (397) 
nan

$$$$
CHEMBL3717297
     RDKit          3D

  0  0  0  0  0  0  0  0  0  0999 V3000
M  V30 BEGIN CTAB
M  V30 COUNTS 40 43 0 0 0
M  V30 BEGIN ATOM
M  V30 1 O 0.872331 -0.986463 2.095437 0
M  V30 2 C 1.469908 -0.642145 1.044940 0
M  V30 3 N 1.476863 -1.634504 -0.017059 0
M  V30 4 C 0.891735 -2.931386 -0.028436 0 CFG=1
M  V30 5 C 0.334978 -3.234517 -1.387931 0
M  V30 6 C -0.235134 -4.626908 -1.425997 0
M  V30 7 C -0.364157 -5.198721 -0.031832 0
M  V30 8 N 0.861094 -5.195422 0.688040 0
M  V30 9 C 1.774997 -4.094795 0.319272 0
M  V30 10 C 2.136698 0.649979 0.833739 0
M  V30 11 C 3.407268 0.971109 0.408081 0
M  V30 12 C 3.845435 2.250690 0.259842 0
M  V30 13 N 3.010740 3.280434 0.542696 0
M  V30 14 C 1.747626 3.054730 0.968401 0
M  V30 15 N 0.719190 3.891890 1.316760 0
M  V30 16 C -0.330182 3.126141 1.674329 0
M  V30 17 C -1.645463 3.639588 2.110003 0
M  V30 18 C -2.733565 2.908673 2.447808 0
M  V30 19 C -3.867328 3.539138 2.831463 0
M  V30 20 C -3.825726 4.957796 2.852789 0
M  V30 21 S -2.049986 5.271097 2.277324 0
M  V30 22 N -0.012777 1.835225 1.564549 0
M  V30 23 C 1.276244 1.719693 1.124266 0
M  V30 24 H 1.983578 -1.377061 -0.925649 0
M  V30 25 H 0.037437 -3.004025 0.718092 0
M  V30 26 H 1.219713 -3.246391 -2.094202 0
M  V30 27 H -0.339130 -2.455270 -1.804024 0
M  V30 28 H -1.278101 -4.545343 -1.830749 0
M  V30 29 H 0.298372 -5.343340 -2.054193 0
M  V30 30 H -1.208410 -4.663473 0.438787 0
M  V30 31 H -0.706322 -6.253588 -0.155559 0
M  V30 32 H 0.638650 -5.017861 1.710074 0
M  V30 33 H 2.436255 -3.964555 1.165748 0
M  V30 34 H 2.377977 -4.464738 -0.516707 0
M  V30 35 H 3.966761 0.056572 0.220848 0
M  V30 36 H 4.868124 2.396659 -0.087890 0
M  V30 37 H -2.697978 1.805031 2.399237 0
M  V30 38 H -4.804111 3.036687 3.122321 0
M  V30 39 H -4.691884 5.595203 3.153672 0
M  V30 40 H -0.658240 1.045726 1.777538 0
M  V30 END ATOM
M  V30 BEGIN BOND
M  V30 1 2 1 2
M  V30 2 1 2 3
M  V30 3 1 3 4
M  V30 4 1 4 5
M  V30 5 1 5 6
M  V30 6 1 6 7
M  V30 7 1 7 8
M  V30 8 1 8 9
M  V30 9 1 2 10
M  V30 10 2 10 11
M  V30 11 1 11 12
M  V30 12 2 12 13
M  V30 13 1 13 14
M  V30 14 1 14 15
M  V30 15 2 15 16
M  V30 16 1 16 17
M  V30 17 2 17 18
M  V30 18 1 18 19
M  V30 19 2 19 20
M  V30 20 1 20 21
M  V30 21 1 16 22
M  V30 22 1 22 23
M  V30 23 1 9 4
M  V30 24 1 23 10
M  V30 25 2 23 14
M  V30 26 1 21 17
M  V30 27 1 3 24
M  V30 28 1 4 25 CFG=1
M  V30 29 1 5 26
M  V30 30 1 5 27
M  V30 31 1 6 28
M  V30 32 1 6 29
M  V30 33 1 7 30
M  V30 34 1 7 31
M  V30 35 1 8 32
M  V30 36 1 9 33
M  V30 37 1 9 34
M  V30 38 1 11 35
M  V30 39 1 12 36
M  V30 40 1 18 37
M  V30 41 1 19 38
M  V30 42 1 20 39
M  V30 43 1 22 40
M  V30 END BOND
M  V30 END CTAB
M  END
>  <Dataset>  (398) 
ChEMBL_Kinases

>  <Ligand_Instance>  (398) 
nan

>  <PDB_ID>  (398) 
nan

>  <Standardized_SMILES>  (398) 
O=C(N[C@H]1CCCNC1)c1ccnc2nc(-c3cccs3)[nH]c12

>  <Name>  (398) 
nan

>  <Pocket>  (398) 
nan

>  <ATP_Site>  (398) 
nan

>  <Peripheral>  (398) 
nan

>  <Num_H_Atoms_ProtBoundConf>  (398) 
nan

>  <Num_Resolved_Atoms>  (398) 
nan

>  <Num_Not_Resolved_Atoms>  (398) 
nan

$$$$
CHEMBL3717295
     RDKit          3D

  0  0  0  0  0  0  0  0  0  0999 V3000
M  V30 BEGIN CTAB
M  V30 COUNTS 43 46 0 0 0
M  V30 BEGIN ATOM
M  V30 1 O 2.534035 -0.805941 3.911187 0
M  V30 2 C 1.798861 -0.121577 3.138588 0
M  V30 3 N 2.269378 -0.240704 1.793801 0
M  V30 4 C 3.379988 -0.961229 1.154738 0
M  V30 5 C 4.274826 0.032127 0.434535 0
M  V30 6 C 3.649715 0.479617 -0.865422 0
M  V30 7 C 3.652207 -0.706153 -1.807972 0
M  V30 8 N 3.667312 -1.954445 -1.068511 0
M  V30 9 C 2.816277 -1.892697 0.100489 0
M  V30 10 C 0.608580 0.746030 3.274475 0
M  V30 11 C 0.712201 1.857964 4.084933 0
M  V30 12 C -0.388611 2.683713 4.226153 0
M  V30 13 N -1.532929 2.378314 3.567197 0
M  V30 14 C -1.624456 1.297645 2.783166 0
M  V30 15 N -2.623845 0.787096 2.038875 0
M  V30 16 C -2.171200 -0.331835 1.441202 0
M  V30 17 C -3.002540 -1.138379 0.557368 0
M  V30 18 C -4.313044 -0.829764 0.257389 0
M  V30 19 C -5.134007 -1.564215 -0.572641 0
M  V30 20 C -4.587819 -2.696413 -1.142200 0
M  V30 21 Cl -5.595791 -3.665095 -2.207416 0
M  V30 22 C -3.267936 -3.094263 -0.900312 0
M  V30 23 C -2.508774 -2.293058 -0.048266 0
M  V30 24 N -0.903680 -0.586448 1.760561 0
M  V30 25 C -0.554957 0.427229 2.598714 0
M  V30 26 H 1.800230 0.252139 0.976810 0
M  V30 27 H 3.958575 -1.522996 1.903670 0
M  V30 28 H 4.541822 0.887755 1.087100 0
M  V30 29 H 5.213403 -0.497129 0.172978 0
M  V30 30 H 4.293600 1.309929 -1.263602 0
M  V30 31 H 2.647773 0.907299 -0.758288 0
M  V30 32 H 4.557173 -0.636726 -2.442413 0
M  V30 33 H 2.747759 -0.645453 -2.457876 0
M  V30 34 H 4.629319 -2.273803 -0.841121 0
M  V30 35 H 2.729498 -2.911498 0.508955 0
M  V30 36 H 1.820348 -1.562355 -0.205127 0
M  V30 37 H 1.658365 2.048168 4.586598 0
M  V30 38 H -0.309544 3.555475 4.861074 0
M  V30 39 H -4.719050 0.062674 0.715811 0
M  V30 40 H -6.147798 -1.245810 -0.749576 0
M  V30 41 H -2.841868 -3.981628 -1.347535 0
M  V30 42 H -1.491910 -2.563898 0.162721 0
M  V30 43 H -0.266523 -1.369038 1.467979 0
M  V30 END ATOM
M  V30 BEGIN BOND
M  V30 1 2 1 2
M  V30 2 1 2 3
M  V30 3 1 3 4
M  V30 4 1 4 5
M  V30 5 1 5 6
M  V30 6 1 6 7
M  V30 7 1 7 8
M  V30 8 1 8 9
M  V30 9 1 2 10
M  V30 10 2 10 11
M  V30 11 1 11 12
M  V30 12 2 12 13
M  V30 13 1 13 14
M  V30 14 1 14 15
M  V30 15 2 15 16
M  V30 16 1 16 17
M  V30 17 2 17 18
M  V30 18 1 18 19
M  V30 19 2 19 20
M  V30 20 1 20 21
M  V30 21 1 20 22
M  V30 22 2 22 23
M  V30 23 1 16 24
M  V30 24 1 24 25
M  V30 25 1 9 4
M  V30 26 1 25 10
M  V30 27 2 25 14
M  V30 28 1 23 17
M  V30 29 1 3 26
M  V30 30 1 4 27
M  V30 31 1 5 28
M  V30 32 1 5 29
M  V30 33 1 6 30
M  V30 34 1 6 31
M  V30 35 1 7 32
M  V30 36 1 7 33
M  V30 37 1 8 34
M  V30 38 1 9 35
M  V30 39 1 9 36
M  V30 40 1 11 37
M  V30 41 1 12 38
M  V30 42 1 18 39
M  V30 43 1 19 40
M  V30 44 1 22 41
M  V30 45 1 23 42
M  V30 46 1 24 43
M  V30 END BOND
M  V30 END CTAB
M  END
>  <Dataset>  (399) 
ChEMBL_Kinases

>  <Ligand_Instance>  (399) 
nan

>  <PDB_ID>  (399) 
nan

>  <Standardized_SMILES>  (399) 
O=C(NC1CCCNC1)c1ccnc2nc(-c3ccc(Cl)cc3)[nH]c12

>  <Name>  (399) 
nan

>  <Pocket>  (399) 
nan

>  <ATP_Site>  (399) 
nan

>  <Peripheral>  (399) 
nan

>  <Num_H_Atoms_ProtBoundConf>  (399) 
nan

>  <Num_Resolved_Atoms>  (399) 
nan

>  <Num_Not_Resolved_Atoms>  (399) 
nan

$$$$
CHEMBL567952
     RDKit          3D

  0  0  0  0  0  0  0  0  0  0999 V3000
M  V30 BEGIN CTAB
M  V30 COUNTS 69 73 0 0 0
M  V30 BEGIN ATOM
M  V30 1 C 4.757075 1.108358 -0.082313 0
M  V30 2 C 3.802575 0.059304 -0.456902 0
M  V30 3 C 2.834355 -0.425319 0.410262 0
M  V30 4 N 2.680900 0.037733 1.717007 0
M  V30 5 C 2.480919 1.049207 2.670550 0
M  V30 6 C 3.615521 1.411805 3.412038 0
M  V30 7 C 4.875865 0.752434 3.214779 0
M  V30 8 N 5.896922 0.216362 3.065006 0
M  V30 9 C 3.615846 2.401382 4.395656 0
M  V30 10 N 2.414261 2.974716 4.562715 0
M  V30 11 C 1.317681 2.644552 3.866596 0
M  V30 12 C 1.292763 1.683059 2.902022 0
M  V30 13 C 0.092224 1.372075 2.152538 0
M  V30 14 C -1.085817 1.892080 2.368208 0
M  V30 15 C -2.374871 1.709671 1.735212 0
M  V30 16 C -3.428594 2.370700 2.386903 0
M  V30 17 C -4.731606 2.348237 1.958154 0
M  V30 18 C -5.044090 1.642028 0.825001 0
M  V30 19 C -4.019072 0.999213 0.189483 0
M  V30 20 C -2.707557 1.005963 0.596918 0
M  V30 21 O -1.727048 0.379353 -0.048402 0
M  V30 22 C -1.522305 -0.405662 -1.122320 0
M  V30 23 C -1.972923 -1.781581 -1.301886 0
M  V30 24 N -3.348582 -2.156024 -1.224015 0
M  V30 25 C -3.519945 -3.470672 -1.880842 0
M  V30 26 C -2.719269 -4.554449 -1.191990 0
M  V30 27 N -3.145547 -4.655593 0.200577 0
M  V30 28 C -2.070849 -4.627759 1.130757 0
M  V30 29 C -4.153036 -3.679031 0.488194 0
M  V30 30 C -3.797812 -2.274629 0.162664 0
M  V30 31 C 1.955680 -1.417569 -0.038383 0
M  V30 32 C 2.020703 -1.923703 -1.299351 0
M  V30 33 C 3.001842 -1.395778 -2.093840 0
M  V30 34 N 3.286473 -1.712593 -3.377100 0
M  V30 35 C 4.328582 -0.988249 -3.858912 0
M  V30 36 C 4.722059 -0.170535 -2.822350 0
M  V30 37 C 3.904727 -0.426275 -1.746258 0
M  V30 38 H 4.288787 1.867428 0.613003 0
M  V30 39 H 5.718855 0.728001 0.314829 0
M  V30 40 H 5.022823 1.718064 -0.987048 0
M  V30 41 H 2.742004 -0.808628 2.366669 0
M  V30 42 H 4.505849 2.657560 4.948381 0
M  V30 43 H 0.502182 3.244125 4.188453 0
M  V30 44 H 0.080777 0.665797 1.336489 0
M  V30 45 H -1.008089 2.591505 3.199931 0
M  V30 46 H -3.320554 2.970743 3.303994 0
M  V30 47 H -5.538378 2.856546 2.462380 0
M  V30 48 H -6.038999 1.588664 0.445812 0
M  V30 49 H -4.270129 0.447358 -0.707215 0
M  V30 50 H -1.849086 0.132748 -2.101186 0
M  V30 51 H -0.385500 -0.402764 -1.323695 0
M  V30 52 H -1.346912 -2.526821 -0.705324 0
M  V30 53 H -1.665796 -2.082585 -2.368486 0
M  V30 54 H -4.571809 -3.753652 -1.962229 0
M  V30 55 H -3.108106 -3.349892 -2.898882 0
M  V30 56 H -3.009912 -5.504173 -1.679617 0
M  V30 57 H -1.629255 -4.446046 -1.294526 0
M  V30 58 H -1.067401 -4.439852 0.705004 0
M  V30 59 H -1.979786 -5.594213 1.673523 0
M  V30 60 H -2.251336 -3.851597 1.929863 0
M  V30 61 H -4.400383 -3.702594 1.587306 0
M  V30 62 H -5.109512 -3.932872 -0.015817 0
M  V30 63 H -4.781362 -1.709159 0.185251 0
M  V30 64 H -3.116575 -1.805080 0.883673 0
M  V30 65 H 1.186060 -1.807167 0.640301 0
M  V30 66 H 1.348556 -2.696791 -1.676706 0
M  V30 67 H 2.810517 -2.407925 -3.974046 0
M  V30 68 H 4.786774 -1.007656 -4.827010 0
M  V30 69 H 5.536480 0.562342 -2.825125 0
M  V30 END ATOM
M  V30 BEGIN BOND
M  V30 1 1 1 2
M  V30 2 2 2 3
M  V30 3 1 3 4
M  V30 4 1 4 5
M  V30 5 2 5 6
M  V30 6 1 6 7
M  V30 7 3 7 8
M  V30 8 1 6 9
M  V30 9 2 9 10
M  V30 10 1 10 11
M  V30 11 2 11 12
M  V30 12 1 12 13
M  V30 13 2 13 14
M  V30 14 1 14 15
M  V30 15 2 15 16
M  V30 16 1 16 17
M  V30 17 2 17 18
M  V30 18 1 18 19
M  V30 19 2 19 20
M  V30 20 1 20 21
M  V30 21 1 21 22
M  V30 22 1 22 23
M  V30 23 1 23 24
M  V30 24 1 24 25
M  V30 25 1 25 26
M  V30 26 1 26 27
M  V30 27 1 27 28
M  V30 28 1 27 29
M  V30 29 1 29 30
M  V30 30 1 3 31
M  V30 31 2 31 32
M  V30 32 1 32 33
M  V30 33 1 33 34
M  V30 34 1 34 35
M  V30 35 2 35 36
M  V30 36 1 36 37
M  V30 37 1 37 2
M  V30 38 1 12 5
M  V30 39 1 20 15
M  V30 40 1 30 24
M  V30 41 2 37 33
M  V30 42 1 1 38
M  V30 43 1 1 39
M  V30 44 1 1 40
M  V30 45 1 4 41
M  V30 46 1 9 42
M  V30 47 1 11 43
M  V30 48 1 13 44
M  V30 49 1 14 45
M  V30 50 1 16 46
M  V30 51 1 17 47
M  V30 52 1 18 48
M  V30 53 1 19 49
M  V30 54 1 22 50
M  V30 55 1 22 51
M  V30 56 1 23 52
M  V30 57 1 23 53
M  V30 58 1 25 54
M  V30 59 1 25 55
M  V30 60 1 26 56
M  V30 61 1 26 57
M  V30 62 1 28 58
M  V30 63 1 28 59
M  V30 64 1 28 60
M  V30 65 1 29 61
M  V30 66 1 29 62
M  V30 67 1 30 63
M  V30 68 1 30 64
M  V30 69 1 31 65
M  V30 70 1 32 66
M  V30 71 1 34 67
M  V30 72 1 35 68
M  V30 73 1 36 69
M  V30 END BOND
M  V30 END CTAB
M  END
>  <Dataset>  (400) 
ChEMBL_Kinases

>  <Ligand_Instance>  (400) 
nan

>  <PDB_ID>  (400) 
nan

>  <Standardized_SMILES>  (400) 
Cc1c(Nc2c(C#N)cncc2/C=C/c2ccccc2OCCN2CCN(C)CC2)ccc2[nH]ccc12

>  <Name>  (400) 
nan

>  <Pocket>  (400) 
nan

>  <ATP_Site>  (400) 
nan

>  <Peripheral>  (400) 
nan

>  <Num_H_Atoms_ProtBoundConf>  (400) 
nan

>  <Num_Resolved_Atoms>  (400) 
nan

>  <Num_Not_Resolved_Atoms>  (400) 
nan

$$$$
CHEMBL3717283
     RDKit          3D

  0  0  0  0  0  0  0  0  0  0999 V3000
M  V30 BEGIN CTAB
M  V30 COUNTS 54 58 0 0 0
M  V30 BEGIN ATOM
M  V30 1 C -2.047564 -6.800501 -2.241318 0
M  V30 2 O -2.180661 -6.030084 -1.056911 0
M  V30 3 C -2.256465 -4.650298 -1.165764 0
M  V30 4 C -2.206638 -4.008005 -2.394599 0
M  V30 5 C -2.278332 -2.619010 -2.559789 0
M  V30 6 C -2.405529 -1.916393 -1.387800 0
M  V30 7 C -2.461102 -2.491173 -0.137994 0
M  V30 8 C -2.384998 -3.864476 -0.041540 0
M  V30 9 C -2.600712 -1.518079 0.967583 0
M  V30 10 C -1.506359 -0.447819 0.892133 0
M  V30 11 C -1.349410 0.031816 -0.502185 0 CFG=1
M  V30 12 C -2.490084 -0.408228 -1.404184 0 CFG=1
M  V30 13 O -2.332196 0.068276 -2.699744 0
M  V30 14 C -2.255644 1.432726 -2.782825 0
M  V30 15 C -2.314313 2.108839 -1.424440 0
M  V30 16 N -1.246308 1.491242 -0.631904 0
M  V30 17 C -0.139858 2.134907 -0.011880 0
M  V30 18 N 1.035336 1.893480 -0.621351 0
M  V30 19 C 2.211075 2.403297 -0.205475 0
M  V30 20 C 3.457856 2.108760 -0.898055 0
M  V30 21 C 4.687597 2.606798 -0.530521 0
M  V30 22 C 5.880500 2.341283 -1.168658 0
M  V30 23 N 5.793179 1.513521 -2.248005 0
M  V30 24 C 4.603310 1.020012 -2.619082 0
M  V30 25 C 3.391323 1.262621 -2.006572 0
M  V30 26 F 2.224792 0.736467 -2.426144 0
M  V30 27 C 2.140558 3.208947 0.909691 0
M  V30 28 C 0.962166 3.488137 1.570520 0
M  V30 29 O 0.882866 4.221408 2.589278 0
M  V30 30 N -0.143119 2.929438 1.071101 0
M  V30 31 C -1.425196 3.181616 1.694534 0
M  V30 32 H -1.114658 -6.452683 -2.757366 0
M  V30 33 H -2.910223 -6.503567 -2.886059 0
M  V30 34 H -1.999919 -7.881465 -2.031498 0
M  V30 35 H -2.103769 -4.652562 -3.277067 0
M  V30 36 H -2.237487 -2.147653 -3.518736 0
M  V30 37 H -2.432565 -4.270832 0.962309 0
M  V30 38 H -2.608174 -1.995389 1.967835 0
M  V30 39 H -3.576245 -1.009753 0.839142 0
M  V30 40 H -0.574695 -1.002306 1.217843 0
M  V30 41 H -1.723474 0.338448 1.616438 0
M  V30 42 H -0.397557 -0.380520 -0.932112 0
M  V30 43 H -3.427373 -0.057383 -0.936202 0
M  V30 44 H -3.159036 1.783363 -3.354898 0
M  V30 45 H -1.390500 1.781416 -3.376761 0
M  V30 46 H -1.996668 3.156825 -1.599371 0
M  V30 47 H -3.300871 2.014549 -0.960310 0
M  V30 48 H 4.756475 3.264387 0.327422 0
M  V30 49 H 6.822064 2.750442 -0.851477 0
M  V30 50 H 4.522569 0.349529 -3.489080 0
M  V30 51 H 3.030396 3.659844 1.314309 0
M  V30 52 H -2.246955 2.648819 1.218210 0
M  V30 53 H -1.380874 3.016878 2.807676 0
M  V30 54 H -1.625038 4.278837 1.512069 0
M  V30 END ATOM
M  V30 BEGIN BOND
M  V30 1 1 1 2
M  V30 2 1 2 3
M  V30 3 2 3 4
M  V30 4 1 4 5
M  V30 5 2 5 6
M  V30 6 1 6 7
M  V30 7 2 7 8
M  V30 8 1 7 9
M  V30 9 1 9 10
M  V30 10 1 10 11
M  V30 11 1 11 12
M  V30 12 1 12 13
M  V30 13 1 13 14
M  V30 14 1 14 15
M  V30 15 1 15 16
M  V30 16 1 16 17
M  V30 17 2 17 18
M  V30 18 1 18 19
M  V30 19 1 19 20
M  V30 20 2 20 21
M  V30 21 1 21 22
M  V30 22 2 22 23
M  V30 23 1 23 24
M  V30 24 2 24 25
M  V30 25 1 25 26
M  V30 26 2 19 27
M  V30 27 1 27 28
M  V30 28 2 28 29
M  V30 29 1 28 30
M  V30 30 1 30 31
M  V30 31 1 8 3
M  V30 32 1 16 11
M  V30 33 1 30 17
M  V30 34 1 12 6
M  V30 35 1 25 20
M  V30 36 1 1 32
M  V30 37 1 1 33
M  V30 38 1 1 34
M  V30 39 1 4 35
M  V30 40 1 5 36
M  V30 41 1 8 37
M  V30 42 1 9 38
M  V30 43 1 9 39
M  V30 44 1 10 40
M  V30 45 1 10 41
M  V30 46 1 11 42 CFG=3
M  V30 47 1 12 43 CFG=1
M  V30 48 1 14 44
M  V30 49 1 14 45
M  V30 50 1 15 46
M  V30 51 1 15 47
M  V30 52 1 21 48
M  V30 53 1 22 49
M  V30 54 1 24 50
M  V30 55 1 27 51
M  V30 56 1 31 52
M  V30 57 1 31 53
M  V30 58 1 31 54
M  V30 END BOND
M  V30 END CTAB
M  END
>  <Dataset>  (401) 
ChEMBL_Kinases

>  <Ligand_Instance>  (401) 
nan

>  <PDB_ID>  (401) 
nan

>  <Standardized_SMILES>  (401) 
COc1ccc2c(c1)CC[C@H]1[C@H]2OCCN1c1nc(-c2ccncc2F)cc(=O)n1C

>  <Name>  (401) 
nan

>  <Pocket>  (401) 
nan

>  <ATP_Site>  (401) 
nan

>  <Peripheral>  (401) 
nan

>  <Num_H_Atoms_ProtBoundConf>  (401) 
nan

>  <Num_Resolved_Atoms>  (401) 
nan

>  <Num_Not_Resolved_Atoms>  (401) 
nan

$$$$
CHEMBL3717281
     RDKit          3D

  0  0  0  0  0  0  0  0  0  0999 V3000
M  V30 BEGIN CTAB
M  V30 COUNTS 45 48 0 0 0
M  V30 BEGIN ATOM
M  V30 1 N -0.186346 -5.459353 -0.779430 0
M  V30 2 C 0.390110 -5.339829 0.554995 0 CFG=1
M  V30 3 C 1.880013 -5.137960 0.449085 0
M  V30 4 C 2.200886 -3.856678 -0.293868 0
M  V30 5 C 1.313838 -2.730420 0.108858 0 CFG=2
M  V30 6 N 1.947619 -1.431929 0.168087 0
M  V30 7 C 1.234178 -0.382119 -0.426182 0
M  V30 8 O 0.093627 -0.540041 -1.000377 0
M  V30 9 C 1.405885 1.062901 -0.624755 0
M  V30 10 C 2.271659 1.741074 -1.496222 0
M  V30 11 C 2.283243 3.117581 -1.522277 0
M  V30 12 C 1.454589 3.848098 -0.701133 0
M  V30 13 O 1.483187 5.241751 -0.741864 0
M  V30 14 C 0.574564 3.287417 0.184586 0
M  V30 15 N -0.338889 3.663035 1.094765 0
M  V30 16 C -0.896300 2.588264 1.661665 0
M  V30 17 C -1.920013 2.541339 2.693319 0
M  V30 18 C -2.566010 3.526917 3.352268 0
M  V30 19 C -3.494420 3.142530 4.277708 0
M  V30 20 C -3.721851 1.776587 4.489099 0
M  V30 21 S -2.551430 0.980509 3.306001 0
M  V30 22 N -0.308019 1.534242 1.084187 0
M  V30 23 C 0.595039 1.890662 0.177369 0
M  V30 24 C 0.807017 -3.088368 1.524144 0
M  V30 25 C -0.210994 -4.188886 1.291928 0
M  V30 26 H -0.776283 -6.344738 -0.846729 0
M  V30 27 H -0.882398 -4.676700 -0.973615 0
M  V30 28 H 0.184746 -6.284282 1.100965 0
M  V30 29 H 2.252910 -5.977917 -0.184551 0
M  V30 30 H 2.397381 -5.228786 1.406258 0
M  V30 31 H 3.276312 -3.631031 -0.181069 0
M  V30 32 H 2.021719 -4.082812 -1.373810 0
M  V30 33 H 0.365518 -2.680559 -0.487145 0
M  V30 34 H 2.823774 -1.028509 0.537425 0
M  V30 35 H 2.866709 1.054019 -2.087960 0
M  V30 36 H 2.974527 3.567362 -2.220178 0
M  V30 37 H 0.804140 5.733851 -1.296936 0
M  V30 38 H -0.561273 4.654993 1.308877 0
M  V30 39 H -2.369022 4.569684 3.164285 0
M  V30 40 H -4.112918 3.801032 4.904955 0
M  V30 41 H -4.420375 1.255885 5.184465 0
M  V30 42 H 0.294254 -2.177103 1.884038 0
M  V30 43 H 1.615553 -3.427151 2.180930 0
M  V30 44 H -0.665310 -4.540154 2.233496 0
M  V30 45 H -1.002315 -3.717409 0.634490 0
M  V30 END ATOM
M  V30 BEGIN BOND
M  V30 1 1 1 2
M  V30 2 1 2 3
M  V30 3 1 3 4
M  V30 4 1 4 5
M  V30 5 1 5 6
M  V30 6 1 6 7
M  V30 7 2 7 8
M  V30 8 1 7 9
M  V30 9 2 9 10
M  V30 10 1 10 11
M  V30 11 2 11 12
M  V30 12 1 12 13
M  V30 13 1 12 14
M  V30 14 1 14 15
M  V30 15 1 15 16
M  V30 16 1 16 17
M  V30 17 2 17 18
M  V30 18 1 18 19
M  V30 19 2 19 20
M  V30 20 1 20 21
M  V30 21 2 16 22
M  V30 22 1 22 23
M  V30 23 1 5 24
M  V30 24 1 24 25
M  V30 25 1 25 2
M  V30 26 1 23 9
M  V30 27 2 23 14
M  V30 28 1 21 17
M  V30 29 1 1 26
M  V30 30 1 1 27
M  V30 31 1 2 28 CFG=1
M  V30 32 1 3 29
M  V30 33 1 3 30
M  V30 34 1 4 31
M  V30 35 1 4 32
M  V30 36 1 5 33 CFG=3
M  V30 37 1 6 34
M  V30 38 1 10 35
M  V30 39 1 11 36
M  V30 40 1 13 37
M  V30 41 1 15 38
M  V30 42 1 18 39
M  V30 43 1 19 40
M  V30 44 1 20 41
M  V30 45 1 24 42
M  V30 46 1 24 43
M  V30 47 1 25 44
M  V30 48 1 25 45
M  V30 END BOND
M  V30 END CTAB
M  END
>  <Dataset>  (402) 
ChEMBL_Kinases

>  <Ligand_Instance>  (402) 
nan

>  <PDB_ID>  (402) 
nan

>  <Standardized_SMILES>  (402) 
N[C@H]1CC[C@H](NC(=O)c2ccc(O)c3[nH]c(-c4cccs4)nc23)CC1

>  <Name>  (402) 
nan

>  <Pocket>  (402) 
nan

>  <ATP_Site>  (402) 
nan

>  <Peripheral>  (402) 
nan

>  <Num_H_Atoms_ProtBoundConf>  (402) 
nan

>  <Num_Resolved_Atoms>  (402) 
nan

>  <Num_Not_Resolved_Atoms>  (402) 
nan

$$$$
CHEMBL3717261
     RDKit          3D

  0  0  0  0  0  0  0  0  0  0999 V3000
M  V30 BEGIN CTAB
M  V30 COUNTS 47 51 0 0 0
M  V30 BEGIN ATOM
M  V30 1 O -1.179476 0.327713 2.560452 0
M  V30 2 C -0.456430 -0.718893 2.412126 0
M  V30 3 N 0.748467 -0.296142 1.823773 0
M  V30 4 C 0.964242 1.127665 1.500528 0
M  V30 5 N 0.679616 1.647636 0.457299 0
M  V30 6 C 0.873935 2.931140 0.165293 0
M  V30 7 C 0.595176 3.644994 -0.981869 0
M  V30 8 C 0.881948 4.978441 -1.069172 0
M  V30 9 C 1.457782 5.736837 -0.068175 0
M  V30 10 N 1.862430 6.985477 0.196534 0
M  V30 11 N 2.365612 7.078087 1.420659 0
M  V30 12 C 2.323658 5.882326 2.046811 0
M  V30 13 C 1.756414 5.071521 1.099826 0
M  V30 14 C 1.454563 3.710508 1.165648 0
M  V30 15 S 1.688733 2.453555 2.532139 0
M  V30 16 C -0.723370 -2.138097 2.753707 0
M  V30 17 N 0.343310 -3.012917 2.327791 0
M  V30 18 C 0.744461 -3.276075 0.996851 0
M  V30 19 C 0.181608 -2.748152 -0.138958 0
M  V30 20 C 0.566892 -3.004823 -1.436236 0
M  V30 21 C 1.619877 -3.876747 -1.600203 0
M  V30 22 C 2.238960 -4.449152 -0.510647 0
M  V30 23 O 3.300839 -5.327812 -0.686511 0
M  V30 24 C 1.790637 -4.138006 0.749488 0
M  V30 25 C -1.993160 -2.597411 2.145142 0
M  V30 26 C -2.081268 -3.987686 2.241598 0
M  V30 27 C -3.190278 -4.686124 1.747965 0
M  V30 28 C -4.228868 -4.004115 1.149850 0
M  V30 29 C -4.124476 -2.638072 1.064107 0
M  V30 30 C -3.041890 -1.938024 1.544117 0
M  V30 31 H 1.550475 -0.954092 1.593493 0
M  V30 32 H 0.137749 3.167302 -1.853503 0
M  V30 33 H 0.657180 5.540833 -1.986059 0
M  V30 34 H 1.760768 7.746753 -0.528886 0
M  V30 35 H 2.631085 5.562197 3.025617 0
M  V30 36 H -0.852782 -2.177558 3.868441 0
M  V30 37 H 0.876874 -3.505727 3.100426 0
M  V30 38 H -0.643412 -2.059756 -0.025300 0
M  V30 39 H 0.050460 -2.530826 -2.275922 0
M  V30 40 H 1.966402 -4.116206 -2.596169 0
M  V30 41 H 4.227514 -4.903720 -0.763817 0
M  V30 42 H 2.311320 -4.614742 1.573064 0
M  V30 43 H -1.351390 -4.682531 2.683820 0
M  V30 44 H -3.303533 -5.754807 1.798952 0
M  V30 45 H -5.088011 -4.495520 0.762407 0
M  V30 46 H -4.894601 -2.029577 0.610148 0
M  V30 47 H -2.865955 -0.873947 1.524952 0
M  V30 END ATOM
M  V30 BEGIN BOND
M  V30 1 2 1 2
M  V30 2 1 2 3
M  V30 3 1 3 4
M  V30 4 2 4 5
M  V30 5 1 5 6
M  V30 6 2 6 7
M  V30 7 1 7 8
M  V30 8 2 8 9
M  V30 9 1 9 10
M  V30 10 1 10 11
M  V30 11 2 11 12
M  V30 12 1 12 13
M  V30 13 2 13 14
M  V30 14 1 14 15
M  V30 15 1 2 16
M  V30 16 1 16 17
M  V30 17 1 17 18
M  V30 18 2 18 19
M  V30 19 1 19 20
M  V30 20 2 20 21
M  V30 21 1 21 22
M  V30 22 1 22 23
M  V30 23 2 22 24
M  V30 24 1 16 25
M  V30 25 2 25 26
M  V30 26 1 26 27
M  V30 27 2 27 28
M  V30 28 1 28 29
M  V30 29 2 29 30
M  V30 30 1 15 4
M  V30 31 1 24 18
M  V30 32 1 30 25
M  V30 33 1 14 6
M  V30 34 1 13 9
M  V30 35 1 3 31
M  V30 36 1 7 32
M  V30 37 1 8 33
M  V30 38 1 10 34
M  V30 39 1 12 35
M  V30 40 1 16 36
M  V30 41 1 17 37
M  V30 42 1 19 38
M  V30 43 1 20 39
M  V30 44 1 21 40
M  V30 45 1 23 41
M  V30 46 1 24 42
M  V30 47 1 26 43
M  V30 48 1 27 44
M  V30 49 1 28 45
M  V30 50 1 29 46
M  V30 51 1 30 47
M  V30 END BOND
M  V30 END CTAB
M  END
>  <Dataset>  (403) 
ChEMBL_Kinases

>  <Ligand_Instance>  (403) 
nan

>  <PDB_ID>  (403) 
nan

>  <Standardized_SMILES>  (403) 
O=C(Nc1nc2ccc3[nH]ncc3c2s1)C(Nc1cccc(O)c1)c1ccccc1

>  <Name>  (403) 
nan

>  <Pocket>  (403) 
nan

>  <ATP_Site>  (403) 
nan

>  <Peripheral>  (403) 
nan

>  <Num_H_Atoms_ProtBoundConf>  (403) 
nan

>  <Num_Resolved_Atoms>  (403) 
nan

>  <Num_Not_Resolved_Atoms>  (403) 
nan

$$$$
CHEMBL3717241
     RDKit          3D

  0  0  0  0  0  0  0  0  0  0999 V3000
M  V30 BEGIN CTAB
M  V30 COUNTS 35 37 0 0 0
M  V30 BEGIN ATOM
M  V30 1 C 0.651754 -3.309493 4.105606 0
M  V30 2 C 0.963386 -3.335490 2.805392 0
M  V30 3 C -0.055637 -3.184430 1.726089 0
M  V30 4 N 0.204705 -2.048818 0.889441 0
M  V30 5 C 0.956563 -2.071836 -0.225666 0
M  V30 6 N 1.613710 -3.190126 -0.768110 0
M  V30 7 C 1.015138 -0.818812 -0.806369 0
M  V30 8 C 1.712263 -0.397548 -2.014482 0
M  V30 9 O 2.898700 0.023833 -1.989796 0
M  V30 10 O 1.163625 -0.411598 -3.298918 0
M  V30 11 C 1.913317 0.017462 -4.429589 0
M  V30 12 C 0.252197 0.010409 0.008015 0
M  V30 13 N -0.064949 1.327326 -0.036015 0
M  V30 14 C -0.844734 1.871002 0.915999 0
M  V30 15 C -1.202627 3.219518 0.920477 0
M  V30 16 C -2.006922 3.754904 1.912421 0
M  V30 17 C -2.455932 2.922291 2.911479 0
M  V30 18 C -2.115738 1.581612 2.930360 0
M  V30 19 C -1.312943 1.059620 1.935385 0
M  V30 20 N -1.011831 -0.253014 2.001702 0
M  V30 21 C -0.228147 -0.777047 1.036124 0
M  V30 22 H -0.317251 -3.184734 4.599937 0
M  V30 23 H -0.093196 -3.218687 4.900263 0
M  V30 24 H 1.822062 -3.459549 3.454504 0
M  V30 25 H -1.036286 -3.174888 2.232560 0
M  V30 26 H -0.028608 -4.131361 1.138971 0
M  V30 27 H 1.334865 -4.037152 -1.307029 0
M  V30 28 H 2.647671 -3.164032 -0.582415 0
M  V30 29 H 2.046233 1.131510 -4.416790 0
M  V30 30 H 1.275642 -0.175595 -5.316823 0
M  V30 31 H 2.848477 -0.536202 -4.545055 0
M  V30 32 H -0.821745 3.837820 0.107567 0
M  V30 33 H -2.228733 4.791360 1.836190 0
M  V30 34 H -3.077366 3.426223 3.642321 0
M  V30 35 H -2.523498 1.034070 3.755544 0
M  V30 END ATOM
M  V30 BEGIN BOND
M  V30 1 2 1 2
M  V30 2 1 2 3
M  V30 3 1 3 4
M  V30 4 1 4 5
M  V30 5 1 5 6
M  V30 6 2 5 7
M  V30 7 1 7 8
M  V30 8 2 8 9
M  V30 9 1 8 10
M  V30 10 1 10 11
M  V30 11 1 7 12
M  V30 12 2 12 13
M  V30 13 1 13 14
M  V30 14 2 14 15
M  V30 15 1 15 16
M  V30 16 2 16 17
M  V30 17 1 17 18
M  V30 18 2 18 19
M  V30 19 1 19 20
M  V30 20 2 20 21
M  V30 21 1 21 4
M  V30 22 1 21 12
M  V30 23 1 19 14
M  V30 24 1 1 22
M  V30 25 1 1 23
M  V30 26 1 2 24
M  V30 27 1 3 25
M  V30 28 1 3 26
M  V30 29 1 6 27
M  V30 30 1 6 28
M  V30 31 1 11 29
M  V30 32 1 11 30
M  V30 33 1 11 31
M  V30 34 1 15 32
M  V30 35 1 16 33
M  V30 36 1 17 34
M  V30 37 1 18 35
M  V30 END BOND
M  V30 END CTAB
M  END
>  <Dataset>  (404) 
ChEMBL_Kinases

>  <Ligand_Instance>  (404) 
nan

>  <PDB_ID>  (404) 
nan

>  <Standardized_SMILES>  (404) 
C=CCn1c(N)c(C(=O)OC)c2nc3ccccc3nc21

>  <Name>  (404) 
nan

>  <Pocket>  (404) 
nan

>  <ATP_Site>  (404) 
nan

>  <Peripheral>  (404) 
nan

>  <Num_H_Atoms_ProtBoundConf>  (404) 
nan

>  <Num_Resolved_Atoms>  (404) 
nan

>  <Num_Not_Resolved_Atoms>  (404) 
nan

$$$$
CHEMBL3717759
     RDKit          3D

  0  0  0  0  0  0  0  0  0  0999 V3000
M  V30 BEGIN CTAB
M  V30 COUNTS 57 60 0 0 0
M  V30 BEGIN ATOM
M  V30 1 O -1.929509 -4.525785 2.727088 0
M  V30 2 C -1.468015 -3.834000 1.796715 0
M  V30 3 C -0.563073 -2.838628 2.416104 0
M  V30 4 N 0.006905 -2.000199 1.402623 0
M  V30 5 C 0.874354 -1.058599 2.070413 0
M  V30 6 O 0.887338 -1.232566 3.317681 0
M  V30 7 C 1.677682 -0.001224 1.468722 0
M  V30 8 C 2.420505 0.741960 2.356795 0
M  V30 9 C 3.204647 1.759829 1.867201 0
M  V30 10 C 3.307775 2.100704 0.539357 0
M  V30 11 O 3.945553 2.995116 -0.249817 0
M  V30 12 C 4.826482 4.006886 0.106433 0
M  V30 13 C 4.276455 5.045464 0.997736 0
M  V30 14 C 4.309978 5.232675 2.362295 0
M  V30 15 C 3.697841 6.288190 2.997461 0
M  V30 16 C 3.000530 7.240238 2.285653 0
M  V30 17 C 2.936205 7.100711 0.915766 0
M  V30 18 C 3.554042 6.043168 0.321965 0
M  V30 19 C 2.531208 1.314844 -0.336122 0
M  V30 20 C 1.715968 0.265206 0.118428 0
M  V30 21 N -1.770321 -3.993764 0.419542 0
M  V30 22 C -2.634480 -4.943301 -0.182257 0
M  V30 23 C -1.949323 -5.870570 -1.151572 0
M  V30 24 C -2.840821 -7.013306 -1.507776 0
M  V30 25 C -4.304043 -6.718072 -1.520862 0
M  V30 26 C -4.555113 -5.246315 -1.575823 0
M  V30 27 C -5.640754 -4.822128 -2.313055 0
M  V30 28 C -5.870967 -3.445718 -2.358611 0
M  V30 29 C -5.081982 -2.517883 -1.716339 0
M  V30 30 C -4.000663 -2.974775 -0.985044 0
M  V30 31 C -3.765641 -4.315320 -0.933075 0
M  V30 32 H 0.232258 -3.336595 3.015859 0
M  V30 33 H -1.198593 -2.170979 3.050850 0
M  V30 34 H -0.018507 -1.871350 0.346321 0
M  V30 35 H 2.482907 0.640332 3.432050 0
M  V30 36 H 3.834391 2.407812 2.443195 0
M  V30 37 H 5.715179 3.542501 0.613371 0
M  V30 38 H 5.220988 4.536430 -0.812153 0
M  V30 39 H 4.881489 4.456950 2.859874 0
M  V30 40 H 3.824737 6.282851 4.088891 0
M  V30 41 H 2.564881 8.018594 2.896028 0
M  V30 42 H 2.384238 7.861827 0.390645 0
M  V30 43 H 3.431466 6.043181 -0.761541 0
M  V30 44 H 2.412824 1.353077 -1.433948 0
M  V30 45 H 1.093118 -0.384076 -0.468967 0
M  V30 46 H -1.297329 -3.329814 -0.230419 0
M  V30 47 H -3.089903 -5.584346 0.596610 0
M  V30 48 H -1.054015 -6.310565 -0.644764 0
M  V30 49 H -1.644916 -5.364470 -2.084234 0
M  V30 50 H -2.572332 -7.464808 -2.503868 0
M  V30 51 H -2.701452 -7.879931 -0.794534 0
M  V30 52 H -4.780836 -7.238797 -2.363249 0
M  V30 53 H -4.818514 -7.140236 -0.605153 0
M  V30 54 H -6.289448 -5.510923 -2.834773 0
M  V30 55 H -6.728651 -3.091697 -2.939602 0
M  V30 56 H -5.287954 -1.458294 -1.771814 0
M  V30 57 H -3.332775 -2.303265 -0.451209 0
M  V30 END ATOM
M  V30 BEGIN BOND
M  V30 1 2 1 2
M  V30 2 1 2 3
M  V30 3 1 3 4
M  V30 4 1 4 5
M  V30 5 2 5 6
M  V30 6 1 5 7
M  V30 7 2 7 8
M  V30 8 1 8 9
M  V30 9 2 9 10
M  V30 10 1 10 11
M  V30 11 1 11 12
M  V30 12 1 12 13
M  V30 13 2 13 14
M  V30 14 1 14 15
M  V30 15 2 15 16
M  V30 16 1 16 17
M  V30 17 2 17 18
M  V30 18 1 10 19
M  V30 19 2 19 20
M  V30 20 1 2 21
M  V30 21 1 21 22
M  V30 22 1 22 23
M  V30 23 1 23 24
M  V30 24 1 24 25
M  V30 25 1 25 26
M  V30 26 2 26 27
M  V30 27 1 27 28
M  V30 28 2 28 29
M  V30 29 1 29 30
M  V30 30 2 30 31
M  V30 31 1 20 7
M  V30 32 1 31 22
M  V30 33 1 18 13
M  V30 34 1 31 26
M  V30 35 1 3 32
M  V30 36 1 3 33
M  V30 37 1 4 34
M  V30 38 1 8 35
M  V30 39 1 9 36
M  V30 40 1 12 37
M  V30 41 1 12 38
M  V30 42 1 14 39
M  V30 43 1 15 40
M  V30 44 1 16 41
M  V30 45 1 17 42
M  V30 46 1 18 43
M  V30 47 1 19 44
M  V30 48 1 20 45
M  V30 49 1 21 46
M  V30 50 1 22 47
M  V30 51 1 23 48
M  V30 52 1 23 49
M  V30 53 1 24 50
M  V30 54 1 24 51
M  V30 55 1 25 52
M  V30 56 1 25 53
M  V30 57 1 27 54
M  V30 58 1 28 55
M  V30 59 1 29 56
M  V30 60 1 30 57
M  V30 END BOND
M  V30 END CTAB
M  END
>  <Dataset>  (405) 
ChEMBL_Kinases

>  <Ligand_Instance>  (405) 
nan

>  <PDB_ID>  (405) 
nan

>  <Standardized_SMILES>  (405) 
O=C(CNC(=O)c1ccc(OCc2ccccc2)cc1)NC1CCCc2ccccc21

>  <Name>  (405) 
nan

>  <Pocket>  (405) 
nan

>  <ATP_Site>  (405) 
nan

>  <Peripheral>  (405) 
nan

>  <Num_H_Atoms_ProtBoundConf>  (405) 
nan

>  <Num_Resolved_Atoms>  (405) 
nan

>  <Num_Not_Resolved_Atoms>  (405) 
nan

$$$$
CHEMBL3717226
     RDKit          3D

  0  0  0  0  0  0  0  0  0  0999 V3000
M  V30 BEGIN CTAB
M  V30 COUNTS 45 48 0 0 0
M  V30 BEGIN ATOM
M  V30 1 O 2.449911 -0.357165 2.552230 0
M  V30 2 C 1.320133 -0.906550 2.580335 0
M  V30 3 N 1.019294 -2.214468 2.160660 0
M  V30 4 C 2.052865 -3.083923 1.627619 0
M  V30 5 C 2.612725 -2.405657 0.395270 0
M  V30 6 C 1.513868 -2.200732 -0.623216 0
M  V30 7 C 2.128643 -1.835465 -1.939640 0
M  V30 8 C 3.613935 -1.561518 -1.815681 0
M  V30 9 N 4.328962 -2.721180 -1.317092 0
M  V30 10 C 3.713153 -3.293786 -0.148989 0
M  V30 11 C 0.401354 0.078590 3.129911 0
M  V30 12 C 0.569898 0.550941 4.417935 0
M  V30 13 C -0.284536 1.488216 4.968797 0
M  V30 14 C -1.316809 1.930394 4.168472 0
M  V30 15 O -2.181217 2.873099 4.713480 0
M  V30 16 C -1.473416 1.447414 2.878994 0
M  V30 17 N -2.436084 1.788860 1.982028 0
M  V30 18 C -2.162563 1.065955 0.906231 0
M  V30 19 C -2.942193 1.112512 -0.313603 0
M  V30 20 C -4.072938 1.883056 -0.604639 0
M  V30 21 C -4.622941 1.729754 -1.850620 0
M  V30 22 C -4.084762 0.860337 -2.762899 0
M  V30 23 S -2.609344 0.142693 -1.781723 0
M  V30 24 N -1.086648 0.298375 1.088938 0
M  V30 25 C -0.620325 0.512374 2.330035 0
M  V30 26 H 0.002788 -2.392407 2.305054 0
M  V30 27 H 1.677792 -4.066934 1.351426 0
M  V30 28 H 2.832478 -3.210583 2.408897 0
M  V30 29 H 3.084474 -1.428046 0.602530 0
M  V30 30 H 0.888649 -1.355185 -0.254208 0
M  V30 31 H 0.828569 -3.080494 -0.675850 0
M  V30 32 H 1.664753 -0.960421 -2.419798 0
M  V30 33 H 2.037999 -2.701640 -2.651427 0
M  V30 34 H 3.806598 -0.664935 -1.220582 0
M  V30 35 H 3.977395 -1.378326 -2.853652 0
M  V30 36 H 4.548058 -3.404809 -2.067565 0
M  V30 37 H 3.315822 -4.313870 -0.299849 0
M  V30 38 H 4.493452 -3.359240 0.641838 0
M  V30 39 H 1.394640 0.179929 5.020572 0
M  V30 40 H -0.120541 1.831397 5.977164 0
M  V30 41 H -1.947966 3.856193 4.733046 0
M  V30 42 H -3.209727 2.469790 2.126531 0
M  V30 43 H -4.456258 2.552378 0.148498 0
M  V30 44 H -5.497014 2.278643 -2.172663 0
M  V30 45 H -4.324091 0.593433 -3.722649 0
M  V30 END ATOM
M  V30 BEGIN BOND
M  V30 1 2 1 2
M  V30 2 1 2 3
M  V30 3 1 3 4
M  V30 4 1 4 5
M  V30 5 1 5 6
M  V30 6 1 6 7
M  V30 7 1 7 8
M  V30 8 1 8 9
M  V30 9 1 9 10
M  V30 10 1 2 11
M  V30 11 2 11 12
M  V30 12 1 12 13
M  V30 13 2 13 14
M  V30 14 1 14 15
M  V30 15 1 14 16
M  V30 16 1 16 17
M  V30 17 1 17 18
M  V30 18 1 18 19
M  V30 19 2 19 20
M  V30 20 1 20 21
M  V30 21 2 21 22
M  V30 22 1 22 23
M  V30 23 2 18 24
M  V30 24 1 24 25
M  V30 25 1 10 5
M  V30 26 1 25 11
M  V30 27 2 25 16
M  V30 28 1 23 19
M  V30 29 1 3 26
M  V30 30 1 4 27
M  V30 31 1 4 28
M  V30 32 1 5 29
M  V30 33 1 6 30
M  V30 34 1 6 31
M  V30 35 1 7 32
M  V30 36 1 7 33
M  V30 37 1 8 34
M  V30 38 1 8 35
M  V30 39 1 9 36
M  V30 40 1 10 37
M  V30 41 1 10 38
M  V30 42 1 12 39
M  V30 43 1 13 40
M  V30 44 1 15 41
M  V30 45 1 17 42
M  V30 46 1 20 43
M  V30 47 1 21 44
M  V30 48 1 22 45
M  V30 END BOND
M  V30 END CTAB
M  END
>  <Dataset>  (406) 
ChEMBL_Kinases

>  <Ligand_Instance>  (406) 
nan

>  <PDB_ID>  (406) 
nan

>  <Standardized_SMILES>  (406) 
O=C(NCC1CCCNC1)c1ccc(O)c2[nH]c(-c3cccs3)nc12

>  <Name>  (406) 
nan

>  <Pocket>  (406) 
nan

>  <ATP_Site>  (406) 
nan

>  <Peripheral>  (406) 
nan

>  <Num_H_Atoms_ProtBoundConf>  (406) 
nan

>  <Num_Resolved_Atoms>  (406) 
nan

>  <Num_Not_Resolved_Atoms>  (406) 
nan

$$$$
CHEMBL3717206
     RDKit          3D

  0  0  0  0  0  0  0  0  0  0999 V3000
M  V30 BEGIN CTAB
M  V30 COUNTS 45 48 0 0 0
M  V30 BEGIN ATOM
M  V30 1 O 2.395565 -0.259259 2.561638 0
M  V30 2 C 1.269433 -0.807821 2.662581 0
M  V30 3 N 0.982560 -2.135372 2.320493 0
M  V30 4 C 1.981609 -3.045551 1.794174 0
M  V30 5 C 2.489964 -2.457675 0.498567 0
M  V30 6 C 1.339252 -2.306267 -0.489081 0
M  V30 7 C 1.943542 -1.790379 -1.770444 0
M  V30 8 N 3.302142 -1.277716 -1.555172 0
M  V30 9 C 4.146145 -2.434390 -1.285254 0
M  V30 10 C 3.621059 -3.257484 -0.111151 0
M  V30 11 C 0.416864 0.240447 3.191474 0
M  V30 12 C 0.609119 0.822477 4.451566 0
M  V30 13 C -0.253576 1.822326 4.884827 0
M  V30 14 C -1.267797 2.184950 4.023955 0
M  V30 15 O -2.118944 3.201969 4.501686 0
M  V30 16 C -1.481747 1.625958 2.771273 0
M  V30 17 N -2.435911 1.887943 1.827766 0
M  V30 18 C -2.125299 1.040077 0.849538 0
M  V30 19 C -2.856204 0.927762 -0.404433 0
M  V30 20 C -3.993848 1.652776 -0.829117 0
M  V30 21 C -4.466209 1.328264 -2.070401 0
M  V30 22 C -3.884865 0.352098 -2.882364 0
M  V30 23 S -2.448267 -0.202936 -1.732087 0
M  V30 24 N -1.054821 0.304344 1.164564 0
M  V30 25 C -0.606085 0.629831 2.363758 0
M  V30 26 H -0.039832 -2.330023 2.508624 0
M  V30 27 H 1.527128 -4.029249 1.572510 0
M  V30 28 H 2.796565 -3.141241 2.543089 0
M  V30 29 H 2.895330 -1.439568 0.646376 0
M  V30 30 H 0.802989 -3.247066 -0.598422 0
M  V30 31 H 0.700850 -1.478597 -0.085008 0
M  V30 32 H 1.322062 -1.061981 -2.310783 0
M  V30 33 H 2.054945 -2.669044 -2.443321 0
M  V30 34 H 3.609207 -0.923813 -2.487527 0
M  V30 35 H 5.206260 -2.114889 -1.129585 0
M  V30 36 H 4.123551 -3.059737 -2.219003 0
M  V30 37 H 4.438296 -3.286585 0.635251 0
M  V30 38 H 3.329905 -4.279538 -0.415281 0
M  V30 39 H 1.452203 0.455825 5.058804 0
M  V30 40 H -0.103087 2.268219 5.856957 0
M  V30 41 H -1.754089 4.163386 4.493049 0
M  V30 42 H -3.212360 2.580279 1.866043 0
M  V30 43 H -4.441241 2.403407 -0.203892 0
M  V30 44 H -5.330329 1.803788 -2.523269 0
M  V30 45 H -4.053198 -0.032950 -3.782825 0
M  V30 END ATOM
M  V30 BEGIN BOND
M  V30 1 2 1 2
M  V30 2 1 2 3
M  V30 3 1 3 4
M  V30 4 1 4 5
M  V30 5 1 5 6
M  V30 6 1 6 7
M  V30 7 1 7 8
M  V30 8 1 8 9
M  V30 9 1 9 10
M  V30 10 1 2 11
M  V30 11 2 11 12
M  V30 12 1 12 13
M  V30 13 2 13 14
M  V30 14 1 14 15
M  V30 15 1 14 16
M  V30 16 1 16 17
M  V30 17 1 17 18
M  V30 18 1 18 19
M  V30 19 2 19 20
M  V30 20 1 20 21
M  V30 21 2 21 22
M  V30 22 1 22 23
M  V30 23 2 18 24
M  V30 24 1 24 25
M  V30 25 1 10 5
M  V30 26 1 25 11
M  V30 27 2 25 16
M  V30 28 1 23 19
M  V30 29 1 3 26
M  V30 30 1 4 27
M  V30 31 1 4 28
M  V30 32 1 5 29
M  V30 33 1 6 30
M  V30 34 1 6 31
M  V30 35 1 7 32
M  V30 36 1 7 33
M  V30 37 1 8 34
M  V30 38 1 9 35
M  V30 39 1 9 36
M  V30 40 1 10 37
M  V30 41 1 10 38
M  V30 42 1 12 39
M  V30 43 1 13 40
M  V30 44 1 15 41
M  V30 45 1 17 42
M  V30 46 1 20 43
M  V30 47 1 21 44
M  V30 48 1 22 45
M  V30 END BOND
M  V30 END CTAB
M  END
>  <Dataset>  (407) 
ChEMBL_Kinases

>  <Ligand_Instance>  (407) 
nan

>  <PDB_ID>  (407) 
nan

>  <Standardized_SMILES>  (407) 
O=C(NCC1CCNCC1)c1ccc(O)c2[nH]c(-c3cccs3)nc12

>  <Name>  (407) 
nan

>  <Pocket>  (407) 
nan

>  <ATP_Site>  (407) 
nan

>  <Peripheral>  (407) 
nan

>  <Num_H_Atoms_ProtBoundConf>  (407) 
nan

>  <Num_Resolved_Atoms>  (407) 
nan

>  <Num_Not_Resolved_Atoms>  (407) 
nan

$$$$
CHEMBL3717203
     RDKit          3D

  0  0  0  0  0  0  0  0  0  0999 V3000
M  V30 BEGIN CTAB
M  V30 COUNTS 48 51 0 0 0
M  V30 BEGIN ATOM
M  V30 1 C 0.958091 2.006133 2.420300 0
M  V30 2 C 1.126619 0.550572 2.033248 0
M  V30 3 C 1.510072 -0.264385 3.217124 0
M  V30 4 N 2.154209 0.424344 1.020308 0
M  V30 5 C 3.509608 0.813731 1.193327 0
M  V30 6 C 4.019685 1.359063 2.348522 0
M  V30 7 C 5.325888 1.749273 2.554075 0
M  V30 8 C 6.218252 1.584616 1.514931 0
M  V30 9 Cl 7.886916 2.067529 1.734906 0
M  V30 10 C 5.770254 1.042898 0.328739 0
M  V30 11 C 6.694201 0.858884 -0.784112 0
M  V30 12 O 7.888089 1.222682 -0.576576 0
M  V30 13 O 6.259599 0.321631 -1.967000 0
M  V30 14 C 4.450451 0.676043 0.196008 0
M  V30 15 C -0.145411 0.049548 1.400975 0
M  V30 16 O -0.008097 -0.339296 0.197723 0
M  V30 17 N -1.382550 0.005377 2.058082 0
M  V30 18 C -2.449260 -0.531812 1.191914 0
M  V30 19 N -2.749892 -1.750986 1.110329 0
M  V30 20 C -3.703523 -2.194533 0.330390 0
M  V30 21 C -4.122213 -3.523919 0.160666 0
M  V30 22 C -3.475010 -4.631298 0.904372 0
M  V30 23 F -4.084115 -5.813905 0.543084 0
M  V30 24 F -2.109205 -4.641443 0.609289 0
M  V30 25 F -3.599088 -4.375723 2.264413 0
M  V30 26 C -5.152449 -3.779850 -0.715907 0
M  V30 27 C -5.845814 -2.860063 -1.472074 0
M  V30 28 N -6.837997 -2.763239 -2.368523 0
M  V30 29 N -7.039902 -1.522734 -2.736770 0
M  V30 30 C -6.174470 -0.684758 -2.095247 0
M  V30 31 C -5.456536 -1.546500 -1.326077 0
M  V30 32 C -4.408135 -1.269386 -0.436588 0
M  V30 33 S -3.570699 0.269451 0.073376 0
M  V30 34 H 1.704696 2.600031 1.891940 0
M  V30 35 H 1.084404 2.100955 3.507160 0
M  V30 36 H -0.066588 2.343898 2.097413 0
M  V30 37 H 2.510909 -0.704453 3.047998 0
M  V30 38 H 0.837479 -1.157699 3.336460 0
M  V30 39 H 1.568940 0.297442 4.179234 0
M  V30 40 H 1.935686 0.017806 0.059584 0
M  V30 41 H 3.379009 1.516282 3.203184 0
M  V30 42 H 5.675089 2.170679 3.476356 0
M  V30 43 H 6.754782 0.618750 -2.819108 0
M  V30 44 H 4.157223 0.253944 -0.765092 0
M  V30 45 H -1.377059 0.347287 3.036119 0
M  V30 46 H -5.493664 -4.819775 -0.860842 0
M  V30 47 H -7.348833 -3.639608 -2.689088 0
M  V30 48 H -6.035615 0.379300 -2.133815 0
M  V30 END ATOM
M  V30 BEGIN BOND
M  V30 1 1 1 2
M  V30 2 1 2 3
M  V30 3 1 2 4
M  V30 4 1 4 5
M  V30 5 2 5 6
M  V30 6 1 6 7
M  V30 7 2 7 8
M  V30 8 1 8 9
M  V30 9 1 8 10
M  V30 10 1 10 11
M  V30 11 2 11 12
M  V30 12 1 11 13
M  V30 13 2 10 14
M  V30 14 1 2 15
M  V30 15 2 15 16
M  V30 16 1 15 17
M  V30 17 1 17 18
M  V30 18 2 18 19
M  V30 19 1 19 20
M  V30 20 2 20 21
M  V30 21 1 21 22
M  V30 22 1 22 23
M  V30 23 1 22 24
M  V30 24 1 22 25
M  V30 25 1 21 26
M  V30 26 2 26 27
M  V30 27 1 27 28
M  V30 28 1 28 29
M  V30 29 2 29 30
M  V30 30 1 30 31
M  V30 31 2 31 32
M  V30 32 1 32 33
M  V30 33 1 14 5
M  V30 34 1 33 18
M  V30 35 1 32 20
M  V30 36 1 31 27
M  V30 37 1 1 34
M  V30 38 1 1 35
M  V30 39 1 1 36
M  V30 40 1 3 37
M  V30 41 1 3 38
M  V30 42 1 3 39
M  V30 43 1 4 40
M  V30 44 1 6 41
M  V30 45 1 7 42
M  V30 46 1 13 43
M  V30 47 1 14 44
M  V30 48 1 17 45
M  V30 49 1 26 46
M  V30 50 1 28 47
M  V30 51 1 30 48
M  V30 END BOND
M  V30 END CTAB
M  END
>  <Dataset>  (408) 
ChEMBL_Kinases

>  <Ligand_Instance>  (408) 
nan

>  <PDB_ID>  (408) 
nan

>  <Standardized_SMILES>  (408) 
CC(C)(Nc1ccc(Cl)c(C(=O)O)c1)C(=O)Nc1nc2c(C(F)(F)F)cc3[nH]ncc3c2s1

>  <Name>  (408) 
nan

>  <Pocket>  (408) 
nan

>  <ATP_Site>  (408) 
nan

>  <Peripheral>  (408) 
nan

>  <Num_H_Atoms_ProtBoundConf>  (408) 
nan

>  <Num_Resolved_Atoms>  (408) 
nan

>  <Num_Not_Resolved_Atoms>  (408) 
nan

$$$$
CHEMBL3717200
     RDKit          3D

  0  0  0  0  0  0  0  0  0  0999 V3000
M  V30 BEGIN CTAB
M  V30 COUNTS 43 46 0 0 0
M  V30 BEGIN ATOM
M  V30 1 O 1.572920 1.229817 3.000602 0
M  V30 2 C 0.582829 0.462452 2.877251 0
M  V30 3 N 0.723373 -0.939364 2.705025 0
M  V30 4 C 2.027264 -1.590406 2.658811 0
M  V30 5 C 2.887141 -1.077436 1.528766 0 CFG=2
M  V30 6 C 2.215627 -1.316225 0.193076 0
M  V30 7 C 3.169555 -1.173455 -0.954291 0
M  V30 8 C 4.446322 -0.545887 -0.436991 0
M  V30 9 N 5.055718 -1.515676 0.473288 0
M  V30 10 C 4.216556 -1.798910 1.616956 0
M  V30 11 C -0.726639 1.120195 2.923568 0
M  V30 12 C -1.079011 2.029422 3.911856 0
M  V30 13 C -2.332819 2.605213 3.884428 0
M  V30 14 N -3.241454 2.315379 2.922654 0
M  V30 15 C -2.952460 1.443921 1.944815 0
M  V30 16 N -3.632027 0.956851 0.864847 0
M  V30 17 C -2.852587 0.091111 0.205168 0
M  V30 18 C -3.200664 -0.650085 -1.001869 0
M  V30 19 C -2.354071 -1.537670 -1.660227 0
M  V30 20 C -3.042534 -2.035415 -2.758019 0
M  V30 21 C -4.289950 -1.412108 -2.704740 0
M  V30 22 Br -5.633721 -1.752982 -4.000958 0
M  V30 23 O -4.317562 -0.615160 -1.655018 0
M  V30 24 N -1.692695 0.048690 0.883328 0
M  V30 25 C -1.689947 0.850555 1.953947 0
M  V30 26 H -0.138036 -1.534926 2.605795 0
M  V30 27 H 1.905730 -2.676899 2.502305 0
M  V30 28 H 2.526802 -1.458565 3.623247 0
M  V30 29 H 3.045518 -0.008703 1.684114 0
M  V30 30 H 1.431436 -0.531144 0.065579 0
M  V30 31 H 1.700892 -2.308827 0.211301 0
M  V30 32 H 2.732052 -0.531123 -1.771855 0
M  V30 33 H 3.413157 -2.191273 -1.374084 0
M  V30 34 H 4.214617 0.404384 0.071955 0
M  V30 35 H 5.158816 -0.418767 -1.274149 0
M  V30 36 H 5.157042 -2.400347 -0.111318 0
M  V30 37 H 4.008566 -2.883296 1.701642 0
M  V30 38 H 4.741189 -1.465499 2.519690 0
M  V30 39 H -0.354013 2.261623 4.678592 0
M  V30 40 H -2.582030 3.314151 4.674401 0
M  V30 41 H -1.324635 -1.823391 -1.402685 0
M  V30 42 H -2.606114 -2.759430 -3.452489 0
M  V30 43 H -0.915188 -0.560176 0.560476 0
M  V30 END ATOM
M  V30 BEGIN BOND
M  V30 1 2 1 2
M  V30 2 1 2 3
M  V30 3 1 3 4
M  V30 4 1 4 5
M  V30 5 1 5 6
M  V30 6 1 6 7
M  V30 7 1 7 8
M  V30 8 1 8 9
M  V30 9 1 9 10
M  V30 10 1 2 11
M  V30 11 2 11 12
M  V30 12 1 12 13
M  V30 13 2 13 14
M  V30 14 1 14 15
M  V30 15 1 15 16
M  V30 16 2 16 17
M  V30 17 1 17 18
M  V30 18 2 18 19
M  V30 19 1 19 20
M  V30 20 2 20 21
M  V30 21 1 21 22
M  V30 22 1 21 23
M  V30 23 1 17 24
M  V30 24 1 24 25
M  V30 25 1 10 5
M  V30 26 1 25 11
M  V30 27 2 25 15
M  V30 28 1 23 18
M  V30 29 1 3 26
M  V30 30 1 4 27
M  V30 31 1 4 28
M  V30 32 1 5 29 CFG=1
M  V30 33 1 6 30
M  V30 34 1 6 31
M  V30 35 1 7 32
M  V30 36 1 7 33
M  V30 37 1 8 34
M  V30 38 1 8 35
M  V30 39 1 9 36
M  V30 40 1 10 37
M  V30 41 1 10 38
M  V30 42 1 12 39
M  V30 43 1 13 40
M  V30 44 1 19 41
M  V30 45 1 20 42
M  V30 46 1 24 43
M  V30 END BOND
M  V30 END CTAB
M  END
>  <Dataset>  (409) 
ChEMBL_Kinases

>  <Ligand_Instance>  (409) 
nan

>  <PDB_ID>  (409) 
nan

>  <Standardized_SMILES>  (409) 
O=C(NC[C@@H]1CCCNC1)c1ccnc2nc(-c3ccc(Br)o3)[nH]c12

>  <Name>  (409) 
nan

>  <Pocket>  (409) 
nan

>  <ATP_Site>  (409) 
nan

>  <Peripheral>  (409) 
nan

>  <Num_H_Atoms_ProtBoundConf>  (409) 
nan

>  <Num_Resolved_Atoms>  (409) 
nan

>  <Num_Not_Resolved_Atoms>  (409) 
nan

$$$$
CHEMBL371720
     RDKit          3D

  0  0  0  0  0  0  0  0  0  0999 V3000
M  V30 BEGIN CTAB
M  V30 COUNTS 53 56 0 0 0
M  V30 BEGIN ATOM
M  V30 1 N 3.443933 -4.084676 4.937698 0 CHG=-1 VAL=2
M  V30 2 N 4.299722 -3.879065 4.058128 0 CHG=1 VAL=4
M  V30 3 N 4.932230 -3.295062 3.186346 0
M  V30 4 C 4.379207 -3.103796 1.869970 0
M  V30 5 C 4.291499 -4.096340 0.918025 0
M  V30 6 C 3.743700 -3.808098 -0.315531 0
M  V30 7 C 3.282165 -2.524048 -0.598787 0
M  V30 8 C 3.356151 -1.497010 0.341902 0
M  V30 9 C 2.872876 -0.153432 0.041204 0
M  V30 10 N 3.621133 0.971908 0.002165 0
M  V30 11 C 2.796579 1.994427 -0.311368 0
M  V30 12 N 1.512110 1.557360 -0.479734 0
M  V30 13 C 0.480700 2.507879 -0.812635 0
M  V30 14 C -0.141595 3.137322 0.407173 0
M  V30 15 C -0.817173 2.157891 1.329732 0
M  V30 16 N -1.903171 1.451093 0.677970 0
M  V30 17 C -2.504523 0.566508 1.588290 0
M  V30 18 O -1.983213 0.580085 2.737478 0
M  V30 19 C -3.641092 -0.312145 1.268466 0
M  V30 20 C -4.245901 -0.370588 0.036745 0
M  V30 21 C -5.308168 -1.199075 -0.243397 0
M  V30 22 C -5.749186 -1.996985 0.818308 0
M  V30 23 I -7.384903 -3.289214 0.429302 0
M  V30 24 C -5.182603 -1.988495 2.092600 0
M  V30 25 C -4.124787 -1.123694 2.268054 0
M  V30 26 C 1.588221 0.239383 -0.258177 0
M  V30 27 C 0.472291 -0.654422 -0.340898 0
M  V30 28 C 0.133623 -1.419078 0.783018 0
M  V30 29 C -0.947489 -2.286141 0.673070 0
M  V30 30 N -1.675480 -2.427479 -0.439363 0
M  V30 31 C -1.380040 -1.702514 -1.554541 0
M  V30 32 C -0.303623 -0.819790 -1.491307 0
M  V30 33 C 3.919253 -1.845762 1.572392 0
M  V30 34 H 4.658116 -5.079886 1.169028 0
M  V30 35 H 3.662337 -4.571776 -1.086544 0
M  V30 36 H 2.858499 -2.342560 -1.582317 0
M  V30 37 H 3.216793 3.003895 -0.392725 0
M  V30 38 H 0.881184 3.338046 -1.429992 0
M  V30 39 H -0.373309 1.994638 -1.332749 0
M  V30 40 H 0.695184 3.594964 1.015439 0
M  V30 41 H -0.800967 3.990827 0.148876 0
M  V30 42 H -0.076413 1.455124 1.753172 0
M  V30 43 H -1.204837 2.739581 2.183256 0
M  V30 44 H -2.280610 1.498926 -0.306135 0
M  V30 45 H -3.871343 0.264926 -0.754473 0
M  V30 46 H -5.783024 -1.246378 -1.205765 0
M  V30 47 H -5.600776 -2.641920 2.831246 0
M  V30 48 H -3.676676 -1.105007 3.244989 0
M  V30 49 H 0.673737 -1.366392 1.731732 0
M  V30 50 H -1.268322 -2.905959 1.490932 0
M  V30 51 H -1.882335 -1.721414 -2.506710 0
M  V30 52 H -0.020455 -0.208730 -2.363028 0
M  V30 53 H 3.946839 -0.991834 2.267072 0
M  V30 END ATOM
M  V30 BEGIN BOND
M  V30 1 2 1 2
M  V30 2 2 2 3
M  V30 3 1 3 4
M  V30 4 2 4 5
M  V30 5 1 5 6
M  V30 6 2 6 7
M  V30 7 1 7 8
M  V30 8 1 8 9
M  V30 9 1 9 10
M  V30 10 2 10 11
M  V30 11 1 11 12
M  V30 12 1 12 13
M  V30 13 1 13 14
M  V30 14 1 14 15
M  V30 15 1 15 16
M  V30 16 1 16 17
M  V30 17 2 17 18
M  V30 18 1 17 19
M  V30 19 2 19 20
M  V30 20 1 20 21
M  V30 21 2 21 22
M  V30 22 1 22 23
M  V30 23 1 22 24
M  V30 24 2 24 25
M  V30 25 1 12 26
M  V30 26 1 26 27
M  V30 27 2 27 28
M  V30 28 1 28 29
M  V30 29 2 29 30
M  V30 30 1 30 31
M  V30 31 2 31 32
M  V30 32 2 8 33
M  V30 33 1 33 4
M  V30 34 2 26 9
M  V30 35 1 32 27
M  V30 36 1 25 19
M  V30 37 1 5 34
M  V30 38 1 6 35
M  V30 39 1 7 36
M  V30 40 1 11 37
M  V30 41 1 13 38
M  V30 42 1 13 39
M  V30 43 1 14 40
M  V30 44 1 14 41
M  V30 45 1 15 42
M  V30 46 1 15 43
M  V30 47 1 16 44
M  V30 48 1 20 45
M  V30 49 1 21 46
M  V30 50 1 24 47
M  V30 51 1 25 48
M  V30 52 1 28 49
M  V30 53 1 29 50
M  V30 54 1 31 51
M  V30 55 1 32 52
M  V30 56 1 33 53
M  V30 END BOND
M  V30 END CTAB
M  END
>  <Dataset>  (410) 
ChEMBL_Kinases

>  <Ligand_Instance>  (410) 
nan

>  <PDB_ID>  (410) 
nan

>  <Standardized_SMILES>  (410) 
[N-]=[N+]=Nc1cccc(-c2ncn(CCCNC(=O)c3ccc(I)cc3)c2-c2ccncc2)c1

>  <Name>  (410) 
nan

>  <Pocket>  (410) 
nan

>  <ATP_Site>  (410) 
nan

>  <Peripheral>  (410) 
nan

>  <Num_H_Atoms_ProtBoundConf>  (410) 
nan

>  <Num_Resolved_Atoms>  (410) 
nan

>  <Num_Not_Resolved_Atoms>  (410) 
nan

$$$$
CHEMBL567958
     RDKit          3D

  0  0  0  0  0  0  0  0  0  0999 V3000
M  V30 BEGIN CTAB
M  V30 COUNTS 30 31 0 0 0
M  V30 BEGIN ATOM
M  V30 1 C -3.638953 -2.216071 2.810367 0
M  V30 2 O -2.543163 -2.850301 2.223232 0
M  V30 3 C -1.431999 -2.136825 1.824748 0
M  V30 4 C -1.371908 -0.767565 1.996141 0
M  V30 5 C -0.281481 -0.042859 1.608647 0
M  V30 6 C 0.810966 -0.652921 1.026833 0
M  V30 7 C 2.034159 -0.013087 0.572572 0
M  V30 8 C 2.069416 1.185117 0.022025 0
M  V30 9 S 0.686031 2.308755 -0.305297 0
M  V30 10 C 1.709071 3.466624 -1.210007 0
M  V30 11 N 1.125476 4.448774 -1.807310 0
M  V30 12 N 3.033632 3.052267 -1.085275 0
M  V30 13 C 3.268959 1.855621 -0.443056 0
M  V30 14 O 4.439980 1.405762 -0.287001 0
M  V30 15 C 0.711492 -2.011487 0.874542 0
M  V30 16 C -0.357374 -2.798434 1.243473 0
M  V30 17 O -0.461264 -4.169372 1.092547 0
M  V30 18 C 0.614359 -4.860246 0.500523 0
M  V30 19 H -4.107483 -1.495303 2.098912 0
M  V30 20 H -4.436237 -2.938274 3.086307 0
M  V30 21 H -3.316689 -1.666342 3.711092 0
M  V30 22 H -2.189319 -0.194969 2.448782 0
M  V30 23 H -0.207170 1.037857 1.732437 0
M  V30 24 H 2.974223 -0.571463 0.701865 0
M  V30 25 H 0.120081 4.622013 -1.807042 0
M  V30 26 H 3.742891 3.721914 -1.509975 0
M  V30 27 H 1.533646 -2.570662 0.421005 0
M  V30 28 H 1.569021 -4.538798 0.948822 0
M  V30 29 H 0.498618 -5.949026 0.696437 0
M  V30 30 H 0.603893 -4.677840 -0.603443 0
M  V30 END ATOM
M  V30 BEGIN BOND
M  V30 1 1 1 2
M  V30 2 1 2 3
M  V30 3 2 3 4
M  V30 4 1 4 5
M  V30 5 2 5 6
M  V30 6 1 6 7
M  V30 7 2 7 8
M  V30 8 1 8 9
M  V30 9 1 9 10
M  V30 10 2 10 11 CFG=2
M  V30 11 1 10 12
M  V30 12 1 12 13
M  V30 13 2 13 14
M  V30 14 1 6 15
M  V30 15 2 15 16
M  V30 16 1 16 17
M  V30 17 1 17 18
M  V30 18 1 16 3
M  V30 19 1 13 8
M  V30 20 1 1 19
M  V30 21 1 1 20
M  V30 22 1 1 21
M  V30 23 1 4 22
M  V30 24 1 5 23
M  V30 25 1 7 24
M  V30 26 1 11 25
M  V30 27 1 12 26
M  V30 28 1 15 27
M  V30 29 1 18 28
M  V30 30 1 18 29
M  V30 31 1 18 30
M  V30 END BOND
M  V30 END CTAB
M  END
>  <Dataset>  (411) 
ChEMBL_Kinases

>  <Ligand_Instance>  (411) 
nan

>  <PDB_ID>  (411) 
nan

>  <Standardized_SMILES>  (411) 
COc1ccc(/C=C2\SC(=N)NC2=O)cc1OC

>  <Name>  (411) 
nan

>  <Pocket>  (411) 
nan

>  <ATP_Site>  (411) 
nan

>  <Peripheral>  (411) 
nan

>  <Num_H_Atoms_ProtBoundConf>  (411) 
nan

>  <Num_Resolved_Atoms>  (411) 
nan

>  <Num_Not_Resolved_Atoms>  (411) 
nan

$$$$
CHEMBL3717192
     RDKit          3D

  0  0  0  0  0  0  0  0  0  0999 V3000
M  V30 BEGIN CTAB
M  V30 COUNTS 52 56 0 0 0
M  V30 BEGIN ATOM
M  V30 1 O 1.678056 -1.981830 0.502851 0
M  V30 2 C 1.809278 -1.086879 1.388171 0
M  V30 3 N 2.982795 -0.294343 1.297239 0
M  V30 4 C 4.023686 -0.416461 0.302168 0 CFG=1
M  V30 5 C 4.834898 0.837111 0.276269 0
M  V30 6 C 6.047203 0.763414 -0.631602 0
M  V30 7 C 5.967841 -0.614207 -1.321719 0
M  V30 8 N 5.952471 -1.676859 -0.372117 0
M  V30 9 C 4.948843 -1.588205 0.650191 0
M  V30 10 C 0.831781 -0.850281 2.468082 0
M  V30 11 C 1.094363 -0.786327 3.817471 0
M  V30 12 C 0.028896 -0.558583 4.704908 0
M  V30 13 C -1.284847 -0.394640 4.274043 0
M  V30 14 O -2.319316 -0.170827 5.168466 0
M  V30 15 C -1.528071 -0.461327 2.916349 0
M  V30 16 N -2.622470 -0.360221 2.137666 0
M  V30 17 C -2.336701 -0.504817 0.828626 0
M  V30 18 C -3.119967 -0.505152 -0.401839 0
M  V30 19 C -4.312932 0.415107 -0.415113 0
M  V30 20 C -5.505706 -0.483433 -0.673262 0
M  V30 21 C -5.413728 -1.008410 -2.077568 0
M  V30 22 C -4.214856 -1.941887 -2.002359 0
M  V30 23 C -3.752442 -1.876993 -0.558609 0
M  V30 24 C -5.074119 -1.696408 0.133734 0
M  V30 25 N -1.009825 -0.701946 0.821088 0
M  V30 26 C -0.501332 -0.681475 2.048863 0
M  V30 27 H 3.081847 0.454259 2.059740 0
M  V30 28 H 3.613462 -0.710369 -0.684935 0
M  V30 29 H 5.165954 1.059392 1.338904 0
M  V30 30 H 4.197041 1.691147 -0.080998 0
M  V30 31 H 5.997121 1.506698 -1.458795 0
M  V30 32 H 6.990261 0.801198 -0.049452 0
M  V30 33 H 5.153618 -0.622355 -2.067222 0
M  V30 34 H 6.917840 -0.698859 -1.912741 0
M  V30 35 H 6.034234 -2.591843 -0.836853 0
M  V30 36 H 4.373090 -2.553265 0.588547 0
M  V30 37 H 5.409209 -1.397536 1.626592 0
M  V30 38 H 2.115680 -0.921053 4.127416 0
M  V30 39 H 0.280870 -0.512280 5.759512 0
M  V30 40 H -2.631732 0.741122 5.484063 0
M  V30 41 H -3.577564 -0.176538 2.497754 0
M  V30 42 H -2.442749 -0.304298 -1.272053 0
M  V30 43 H -4.429508 1.050570 0.465735 0
M  V30 44 H -4.226948 1.048001 -1.347407 0
M  V30 45 H -6.476664 -0.079105 -0.394651 0
M  V30 46 H -6.346748 -1.611602 -2.270902 0
M  V30 47 H -5.303442 -0.205526 -2.820153 0
M  V30 48 H -3.382795 -1.538994 -2.612964 0
M  V30 49 H -4.430907 -2.967115 -2.327061 0
M  V30 50 H -3.131497 -2.688305 -0.227556 0
M  V30 51 H -5.013057 -1.493043 1.210544 0
M  V30 52 H -5.776075 -2.550963 -0.093371 0
M  V30 END ATOM
M  V30 BEGIN BOND
M  V30 1 2 1 2
M  V30 2 1 2 3
M  V30 3 1 3 4
M  V30 4 1 4 5
M  V30 5 1 5 6
M  V30 6 1 6 7
M  V30 7 1 7 8
M  V30 8 1 8 9
M  V30 9 1 2 10
M  V30 10 1 10 11
M  V30 11 2 11 12
M  V30 12 1 12 13
M  V30 13 1 13 14
M  V30 14 2 13 15
M  V30 15 1 15 16
M  V30 16 1 16 17
M  V30 17 1 17 18
M  V30 18 1 18 19
M  V30 19 1 19 20
M  V30 20 1 20 21
M  V30 21 1 21 22
M  V30 22 1 22 23
M  V30 23 1 23 24
M  V30 24 2 17 25
M  V30 25 1 25 26
M  V30 26 1 9 4
M  V30 27 2 26 10
M  V30 28 1 26 15
M  V30 29 1 23 18
M  V30 30 1 24 20
M  V30 31 1 3 27
M  V30 32 1 4 28 CFG=3
M  V30 33 1 5 29
M  V30 34 1 5 30
M  V30 35 1 6 31
M  V30 36 1 6 32
M  V30 37 1 7 33
M  V30 38 1 7 34
M  V30 39 1 8 35
M  V30 40 1 9 36
M  V30 41 1 9 37
M  V30 42 1 11 38
M  V30 43 1 12 39
M  V30 44 1 14 40
M  V30 45 1 16 41
M  V30 46 1 18 42
M  V30 47 1 19 43
M  V30 48 1 19 44
M  V30 49 1 20 45
M  V30 50 1 21 46
M  V30 51 1 21 47
M  V30 52 1 22 48
M  V30 53 1 22 49
M  V30 54 1 23 50
M  V30 55 1 24 51
M  V30 56 1 24 52
M  V30 END BOND
M  V30 END CTAB
M  END
>  <Dataset>  (412) 
ChEMBL_Kinases

>  <Ligand_Instance>  (412) 
nan

>  <PDB_ID>  (412) 
nan

>  <Standardized_SMILES>  (412) 
O=C(N[C@H]1CCCNC1)c1ccc(O)c2[nH]c(C3CC4CCC3C4)nc12

>  <Name>  (412) 
nan

>  <Pocket>  (412) 
nan

>  <ATP_Site>  (412) 
nan

>  <Peripheral>  (412) 
nan

>  <Num_H_Atoms_ProtBoundConf>  (412) 
nan

>  <Num_Resolved_Atoms>  (412) 
nan

>  <Num_Not_Resolved_Atoms>  (412) 
nan

$$$$
CHEMBL3717191
     RDKit          3D

  0  0  0  0  0  0  0  0  0  0999 V3000
M  V30 BEGIN CTAB
M  V30 COUNTS 40 43 0 0 0
M  V30 BEGIN ATOM
M  V30 1 O 2.523960 -2.844054 0.505595 0
M  V30 2 C 2.258977 -1.630580 0.524391 0
M  V30 3 N 1.023405 -1.398505 -0.152075 0
M  V30 4 C 0.135427 -2.327459 -0.798600 0 CFG=1
M  V30 5 C -1.164515 -2.592348 -0.169334 0
M  V30 6 C -2.259625 -2.491023 -1.209809 0
M  V30 7 C -2.017279 -3.322169 -2.430527 0
M  V30 8 N -0.728507 -3.011888 -3.004736 0
M  V30 9 C -0.064342 -1.980466 -2.265703 0
M  V30 10 C 2.958791 -0.483397 1.086569 0
M  V30 11 C 4.312474 -0.400089 0.853589 0
M  V30 12 C 5.063213 0.640838 1.337511 0
M  V30 13 N 4.428367 1.590591 2.055932 0
M  V30 14 C 3.103818 1.556506 2.313437 0
M  V30 15 N 2.263035 2.386586 2.999934 0
M  V30 16 C 1.058215 1.844896 2.918889 0
M  V30 17 C -0.200898 2.396734 3.509955 0
M  V30 18 C -1.443707 1.951016 3.472524 0
M  V30 19 C -2.457024 2.601381 4.073105 0
M  V30 20 Br -4.311925 2.088972 4.104368 0
M  V30 21 C -2.063175 3.813144 4.751380 0
M  V30 22 S -0.201573 3.881830 4.434900 0
M  V30 23 N 1.089731 0.705012 2.211044 0
M  V30 24 C 2.356022 0.507784 1.824316 0
M  V30 25 H 0.546542 -0.478139 -0.297245 0
M  V30 26 H 0.665574 -3.311611 -0.813795 0
M  V30 27 H -1.485543 -1.932569 0.646444 0
M  V30 28 H -1.248422 -3.632466 0.237424 0
M  V30 29 H -3.263470 -2.727032 -0.755984 0
M  V30 30 H -2.311248 -1.407572 -1.533689 0
M  V30 31 H -2.763603 -3.038292 -3.192672 0
M  V30 32 H -2.150713 -4.393927 -2.167336 0
M  V30 33 H -0.767181 -2.725849 -4.003398 0
M  V30 34 H 0.984442 -1.909774 -2.674843 0
M  V30 35 H -0.509392 -0.969345 -2.387426 0
M  V30 36 H 4.876941 -1.136885 0.280195 0
M  V30 37 H 6.127649 0.712730 1.157282 0
M  V30 38 H -1.633394 1.030159 2.935365 0
M  V30 39 H -2.818343 4.515435 5.335433 0
M  V30 40 H 0.290773 0.073380 1.993422 0
M  V30 END ATOM
M  V30 BEGIN BOND
M  V30 1 2 1 2
M  V30 2 1 2 3
M  V30 3 1 3 4
M  V30 4 1 4 5
M  V30 5 1 5 6
M  V30 6 1 6 7
M  V30 7 1 7 8
M  V30 8 1 8 9
M  V30 9 1 2 10
M  V30 10 2 10 11
M  V30 11 1 11 12
M  V30 12 2 12 13
M  V30 13 1 13 14
M  V30 14 1 14 15
M  V30 15 2 15 16
M  V30 16 1 16 17
M  V30 17 2 17 18
M  V30 18 1 18 19
M  V30 19 1 19 20
M  V30 20 2 19 21
M  V30 21 1 21 22
M  V30 22 1 16 23
M  V30 23 1 23 24
M  V30 24 1 9 4
M  V30 25 1 24 10
M  V30 26 2 24 14
M  V30 27 1 22 17
M  V30 28 1 3 25
M  V30 29 1 4 26 CFG=3
M  V30 30 1 5 27
M  V30 31 1 5 28
M  V30 32 1 6 29
M  V30 33 1 6 30
M  V30 34 1 7 31
M  V30 35 1 7 32
M  V30 36 1 8 33
M  V30 37 1 9 34
M  V30 38 1 9 35
M  V30 39 1 11 36
M  V30 40 1 12 37
M  V30 41 1 18 38
M  V30 42 1 21 39
M  V30 43 1 23 40
M  V30 END BOND
M  V30 END CTAB
M  END
>  <Dataset>  (413) 
ChEMBL_Kinases

>  <Ligand_Instance>  (413) 
nan

>  <PDB_ID>  (413) 
nan

>  <Standardized_SMILES>  (413) 
O=C(N[C@H]1CCCNC1)c1ccnc2nc(-c3cc(Br)cs3)[nH]c12

>  <Name>  (413) 
nan

>  <Pocket>  (413) 
nan

>  <ATP_Site>  (413) 
nan

>  <Peripheral>  (413) 
nan

>  <Num_H_Atoms_ProtBoundConf>  (413) 
nan

>  <Num_Resolved_Atoms>  (413) 
nan

>  <Num_Not_Resolved_Atoms>  (413) 
nan

$$$$
CHEMBL3717190
     RDKit          3D

  0  0  0  0  0  0  0  0  0  0999 V3000
M  V30 BEGIN CTAB
M  V30 COUNTS 34 36 0 0 0
M  V30 BEGIN ATOM
M  V30 1 N -3.271350 -2.254778 1.698941 0
M  V30 2 C -1.975706 -2.756574 1.946613 0
M  V30 3 O -1.847593 -3.906900 2.474269 0
M  V30 4 C -0.796602 -1.931589 1.586126 0
M  V30 5 C 0.490437 -2.660276 1.937295 0
M  V30 6 C 1.215388 -3.116458 0.683871 0
M  V30 7 C 1.628768 -1.960245 -0.203562 0
M  V30 8 N 0.539713 -0.966933 -0.105586 0
M  V30 9 C 0.890438 0.378721 -0.249912 0
M  V30 10 C 2.116588 0.705230 -0.825893 0
M  V30 11 C 2.507920 2.006650 -1.027362 0
M  V30 12 N 1.737877 3.041798 -0.683794 0
M  V30 13 C 0.541286 2.805373 -0.122321 0
M  V30 14 N -0.420048 3.630359 0.322558 0
M  V30 15 C -1.434071 2.898056 0.812960 0
M  V30 16 C -1.076037 1.581160 0.660412 0
M  V30 17 C 0.155583 1.497908 0.076718 0
M  V30 18 C -0.729951 -1.615280 0.105882 0
M  V30 19 H -3.648553 -2.702904 0.853211 0
M  V30 20 H -4.011461 -1.588717 2.051457 0
M  V30 21 H -0.811532 -1.034308 2.233612 0
M  V30 22 H 0.299415 -3.571035 2.524732 0
M  V30 23 H 1.202967 -2.014587 2.480613 0
M  V30 24 H 2.181045 -3.560531 1.063434 0
M  V30 25 H 0.717820 -3.933287 0.153600 0
M  V30 26 H 1.627347 -2.291980 -1.260148 0
M  V30 27 H 2.597553 -1.524502 0.116859 0
M  V30 28 H 2.860190 -0.001167 -1.165504 0
M  V30 29 H 3.448298 2.296725 -1.469944 0
M  V30 30 H -0.346754 4.679282 0.273970 0
M  V30 31 H -2.345080 3.291641 1.239784 0
M  V30 32 H -1.703830 0.791970 0.976138 0
M  V30 33 H -0.741534 -2.638579 -0.391060 0
M  V30 34 H -1.600139 -1.117726 -0.309724 0
M  V30 END ATOM
M  V30 BEGIN BOND
M  V30 1 1 1 2
M  V30 2 2 2 3
M  V30 3 1 2 4
M  V30 4 1 4 5
M  V30 5 1 5 6
M  V30 6 1 6 7
M  V30 7 1 7 8
M  V30 8 1 8 9
M  V30 9 2 9 10
M  V30 10 1 10 11
M  V30 11 2 11 12
M  V30 12 1 12 13
M  V30 13 1 13 14
M  V30 14 1 14 15
M  V30 15 2 15 16
M  V30 16 1 16 17
M  V30 17 1 8 18
M  V30 18 1 18 4
M  V30 19 1 17 9
M  V30 20 2 17 13
M  V30 21 1 1 19
M  V30 22 1 1 20
M  V30 23 1 4 21
M  V30 24 1 5 22
M  V30 25 1 5 23
M  V30 26 1 6 24
M  V30 27 1 6 25
M  V30 28 1 7 26
M  V30 29 1 7 27
M  V30 30 1 10 28
M  V30 31 1 11 29
M  V30 32 1 14 30
M  V30 33 1 15 31
M  V30 34 1 16 32
M  V30 35 1 18 33
M  V30 36 1 18 34
M  V30 END BOND
M  V30 END CTAB
M  END
>  <Dataset>  (414) 
ChEMBL_Kinases

>  <Ligand_Instance>  (414) 
nan

>  <PDB_ID>  (414) 
nan

>  <Standardized_SMILES>  (414) 
NC(=O)C1CCCN(c2ccnc3[nH]ccc23)C1

>  <Name>  (414) 
nan

>  <Pocket>  (414) 
nan

>  <ATP_Site>  (414) 
nan

>  <Peripheral>  (414) 
nan

>  <Num_H_Atoms_ProtBoundConf>  (414) 
nan

>  <Num_Resolved_Atoms>  (414) 
nan

>  <Num_Not_Resolved_Atoms>  (414) 
nan

$$$$
CHEMBL3715051
     RDKit          3D

  0  0  0  0  0  0  0  0  0  0999 V3000
M  V30 BEGIN CTAB
M  V30 COUNTS 27 28 0 0 0
M  V30 BEGIN ATOM
M  V30 1 O 1.386033 -3.700530 4.774646 0
M  V30 2 C 1.220104 -3.730045 3.514116 0
M  V30 3 O -0.043581 -3.262395 3.155443 0
M  V30 4 C 2.338855 -4.231005 2.676745 0
M  V30 5 S 1.917502 -4.200848 0.899598 0
M  V30 6 C 1.729241 -2.511312 0.355900 0
M  V30 7 N 2.726855 -1.768856 -0.123609 0
M  V30 8 N 2.263175 -0.572986 -0.434553 0
M  V30 9 C 0.940275 -0.501508 -0.164259 0
M  V30 10 C 0.134316 0.687400 -0.396301 0
M  V30 11 C 0.714031 1.848675 -0.926867 0
M  V30 12 C -0.074641 2.985551 -1.143559 0
M  V30 13 C -1.419436 2.996428 -0.847123 0
M  V30 14 O -2.129310 4.166749 -1.092756 0
M  V30 15 C -2.028582 1.852809 -0.316287 0
M  V30 16 C -1.210872 0.735084 -0.112584 0
M  V30 17 O -1.876301 -0.337093 0.405630 0
M  V30 18 N 0.650161 -1.710937 0.319402 0
M  V30 19 H -0.871467 -3.701320 3.541197 0
M  V30 20 H 2.648659 -5.251737 2.971248 0
M  V30 21 H 3.174167 -3.495443 2.829061 0
M  V30 22 H 1.770250 1.831904 -1.156863 0
M  V30 23 H 0.453632 3.836234 -1.554876 0
M  V30 24 H -2.427772 4.737294 -0.304134 0
M  V30 25 H -3.082677 1.867642 -0.086722 0
M  V30 26 H -2.764082 -0.707631 0.062744 0
M  V30 27 H -0.292875 -2.006488 0.632998 0
M  V30 END ATOM
M  V30 BEGIN BOND
M  V30 1 2 1 2
M  V30 2 1 2 3
M  V30 3 1 2 4
M  V30 4 1 4 5
M  V30 5 1 5 6
M  V30 6 2 6 7
M  V30 7 1 7 8
M  V30 8 2 8 9
M  V30 9 1 9 10
M  V30 10 2 10 11
M  V30 11 1 11 12
M  V30 12 2 12 13
M  V30 13 1 13 14
M  V30 14 1 13 15
M  V30 15 2 15 16
M  V30 16 1 16 17
M  V30 17 1 9 18
M  V30 18 1 18 6
M  V30 19 1 16 10
M  V30 20 1 3 19
M  V30 21 1 4 20
M  V30 22 1 4 21
M  V30 23 1 11 22
M  V30 24 1 12 23
M  V30 25 1 14 24
M  V30 26 1 15 25
M  V30 27 1 17 26
M  V30 28 1 18 27
M  V30 END BOND
M  V30 END CTAB
M  END
>  <Dataset>  (415) 
ChEMBL_Kinases

>  <Ligand_Instance>  (415) 
nan

>  <PDB_ID>  (415) 
nan

>  <Standardized_SMILES>  (415) 
O=C(O)CSc1nnc(-c2ccc(O)cc2O)[nH]1

>  <Name>  (415) 
nan

>  <Pocket>  (415) 
nan

>  <ATP_Site>  (415) 
nan

>  <Peripheral>  (415) 
nan

>  <Num_H_Atoms_ProtBoundConf>  (415) 
nan

>  <Num_Resolved_Atoms>  (415) 
nan

>  <Num_Not_Resolved_Atoms>  (415) 
nan

$$$$
CHEMBL3717187
     RDKit          3D

  0  0  0  0  0  0  0  0  0  0999 V3000
M  V30 BEGIN CTAB
M  V30 COUNTS 52 56 0 0 0
M  V30 BEGIN ATOM
M  V30 1 C 0.610959 -3.935357 2.572604 0
M  V30 2 N -0.128031 -3.610016 1.375209 0
M  V30 3 C -0.312229 -2.354912 0.945006 0
M  V30 4 N 0.205046 -1.180343 1.554516 0
M  V30 5 C -0.563020 -0.894877 2.759369 0
M  V30 6 C 0.211732 0.093496 3.606938 0
M  V30 7 C 1.633557 -0.380055 3.780236 0
M  V30 8 C 2.246382 -0.451612 2.415556 0
M  V30 9 C 1.250717 -0.178210 1.312684 0
M  V30 10 C 0.573185 1.148811 1.439727 0
M  V30 11 C 1.162575 2.276918 0.708687 0
M  V30 12 C 2.385329 2.856053 1.034468 0
M  V30 13 C 2.973717 3.910370 0.380828 0
M  V30 14 C 2.305350 4.455162 -0.697581 0
M  V30 15 C 1.087280 3.943571 -1.090494 0
M  V30 16 C 0.550990 2.881502 -0.388553 0
M  V30 17 C 0.338137 1.438430 2.897095 0
M  V30 18 N -1.038569 -2.114143 -0.185039 0
M  V30 19 C -1.589700 -3.110166 -0.902667 0
M  V30 20 C -2.364214 -2.850910 -2.104282 0
M  V30 21 C -2.962996 -3.782286 -2.898953 0
M  V30 22 C -3.707992 -3.619559 -4.038522 0
M  V30 23 N -3.850725 -2.303787 -4.402542 0
M  V30 24 C -3.284643 -1.341042 -3.661456 0
M  V30 25 C -2.525854 -1.513213 -2.500075 0
M  V30 26 C -1.377924 -4.386796 -0.429487 0
M  V30 27 C -0.652312 -4.660107 0.704197 0
M  V30 28 O -0.477545 -5.842950 1.110246 0
M  V30 29 H -0.061839 -4.359684 3.363740 0
M  V30 30 H 1.274865 -4.806276 2.296148 0
M  V30 31 H 1.174008 -3.134301 3.025230 0
M  V30 32 H -1.558946 -0.484422 2.483202 0
M  V30 33 H -0.746784 -1.774031 3.388281 0
M  V30 34 H -0.298605 0.235729 4.579053 0
M  V30 35 H 1.752047 -1.272934 4.403957 0
M  V30 36 H 2.158430 0.457032 4.325176 0
M  V30 37 H 3.153514 0.177180 2.345100 0
M  V30 38 H 2.622033 -1.485735 2.265965 0
M  V30 39 H 1.747335 -0.335598 0.342919 0
M  V30 40 H -0.461481 1.014723 0.996811 0
M  V30 41 H 2.945517 2.483581 1.856344 0
M  V30 42 H 3.927645 4.316031 0.686816 0
M  V30 43 H 2.723004 5.288138 -1.245563 0
M  V30 44 H 0.522398 4.327835 -1.922757 0
M  V30 45 H -0.412715 2.468596 -0.693290 0
M  V30 46 H -0.599343 2.017502 3.007057 0
M  V30 47 H 1.166739 2.006751 3.366452 0
M  V30 48 H -2.848577 -4.840683 -2.609711 0
M  V30 49 H -4.132290 -4.443707 -4.583839 0
M  V30 50 H -3.467875 -0.329365 -4.050616 0
M  V30 51 H -2.124857 -0.655347 -1.992218 0
M  V30 52 H -1.789085 -5.261529 -0.948280 0
M  V30 END ATOM
M  V30 BEGIN BOND
M  V30 1 1 1 2
M  V30 2 1 2 3
M  V30 3 1 3 4
M  V30 4 1 4 5
M  V30 5 1 5 6
M  V30 6 1 6 7
M  V30 7 1 7 8
M  V30 8 1 8 9
M  V30 9 1 9 10
M  V30 10 1 10 11
M  V30 11 2 11 12
M  V30 12 1 12 13
M  V30 13 2 13 14
M  V30 14 1 14 15
M  V30 15 2 15 16
M  V30 16 1 10 17
M  V30 17 2 3 18
M  V30 18 1 18 19
M  V30 19 1 19 20
M  V30 20 2 20 21
M  V30 21 1 21 22
M  V30 22 2 22 23
M  V30 23 1 23 24
M  V30 24 2 24 25
M  V30 25 2 19 26
M  V30 26 1 26 27
M  V30 27 2 27 28
M  V30 28 1 27 2
M  V30 29 1 9 4
M  V30 30 1 16 11
M  V30 31 1 25 20
M  V30 32 1 17 6
M  V30 33 1 1 29
M  V30 34 1 1 30
M  V30 35 1 1 31
M  V30 36 1 5 32
M  V30 37 1 5 33
M  V30 38 1 6 34
M  V30 39 1 7 35
M  V30 40 1 7 36
M  V30 41 1 8 37
M  V30 42 1 8 38
M  V30 43 1 9 39
M  V30 44 1 10 40
M  V30 45 1 12 41
M  V30 46 1 13 42
M  V30 47 1 14 43
M  V30 48 1 15 44
M  V30 49 1 16 45
M  V30 50 1 17 46
M  V30 51 1 17 47
M  V30 52 1 21 48
M  V30 53 1 22 49
M  V30 54 1 24 50
M  V30 55 1 25 51
M  V30 56 1 26 52
M  V30 END BOND
M  V30 END CTAB
M  END
>  <Dataset>  (416) 
ChEMBL_Kinases

>  <Ligand_Instance>  (416) 
nan

>  <PDB_ID>  (416) 
nan

>  <Standardized_SMILES>  (416) 
Cn1c(N2CC3CCC2C(c2ccccc2)C3)nc(-c2ccncc2)cc1=O

>  <Name>  (416) 
nan

>  <Pocket>  (416) 
nan

>  <ATP_Site>  (416) 
nan

>  <Peripheral>  (416) 
nan

>  <Num_H_Atoms_ProtBoundConf>  (416) 
nan

>  <Num_Resolved_Atoms>  (416) 
nan

>  <Num_Not_Resolved_Atoms>  (416) 
nan

$$$$
CHEMBL3717236
     RDKit          3D

  0  0  0  0  0  0  0  0  0  0999 V3000
M  V30 BEGIN CTAB
M  V30 COUNTS 74 79 0 0 0
M  V30 BEGIN ATOM
M  V30 1 C 3.131321 -6.779293 0.968892 0
M  V30 2 O 4.062392 -5.853102 0.455114 0
M  V30 3 C 4.093152 -4.549101 0.921729 0
M  V30 4 C 3.167729 -4.201939 1.914054 0
M  V30 5 C 3.181340 -2.916876 2.388922 0
M  V30 6 C 4.065901 -1.958788 1.929677 0
M  V30 7 C 4.973119 -2.349006 0.938305 0
M  V30 8 C 4.998657 -3.634841 0.426613 0
M  V30 9 O 5.854391 -4.087752 -0.540618 0
M  V30 10 C 6.854480 -3.373324 -1.198673 0
M  V30 11 N 3.890038 -0.686237 2.574465 0
M  V30 12 C 2.483852 -0.729143 3.008726 0
M  V30 13 C 1.697865 -0.399522 1.791488 0
M  V30 14 O 2.763956 -0.279805 1.129249 0
M  V30 15 N 0.335929 -0.264626 1.463825 0
M  V30 16 C -0.079157 0.081675 0.128396 0 CFG=1
M  V30 17 C -0.757836 -1.058452 -0.545093 0
M  V30 18 C -1.967295 -1.579899 0.119063 0
M  V30 19 C -3.310427 -1.301027 -0.166583 0
M  V30 20 N -4.138992 -1.948711 0.669396 0
M  V30 21 C -3.415532 -2.675382 1.534311 0
M  V30 22 C -3.759564 -3.514717 2.573389 0
M  V30 23 C -2.801869 -4.165993 3.321516 0
M  V30 24 C -1.459142 -3.957212 3.002961 0
M  V30 25 C -1.164697 -3.112587 1.960162 0
M  V30 26 C -2.094313 -2.455076 1.204049 0
M  V30 27 C -0.865119 1.339327 0.087747 0
M  V30 28 O -1.124387 1.874886 1.196167 0
M  V30 29 N -1.251353 1.826016 -1.193021 0
M  V30 30 C -2.006177 3.030919 -1.280989 0
M  V30 31 C -1.225214 4.142467 -1.961863 0
M  V30 32 C -2.019956 5.428186 -1.984488 0
M  V30 33 C -3.443639 5.214392 -1.512036 0
M  V30 34 C -3.935538 3.979525 -2.222530 0
M  V30 35 C -5.118231 4.047220 -2.966014 0
M  V30 36 C -5.519558 2.889300 -3.601741 0
M  V30 37 C -4.800792 1.707367 -3.520205 0
M  V30 38 C -3.645517 1.671929 -2.784166 0
M  V30 39 C -3.199414 2.800382 -2.128777 0
M  V30 40 C 2.384110 -2.181856 3.408602 0
M  V30 41 H 3.269906 -6.961033 2.048521 0
M  V30 42 H 2.116433 -6.307535 0.873100 0
M  V30 43 H 3.107468 -7.712844 0.388061 0
M  V30 44 H 2.436682 -4.899286 2.330042 0
M  V30 45 H 5.692001 -1.640083 0.538912 0
M  V30 46 H 7.367821 -4.114850 -1.879227 0
M  V30 47 H 7.627927 -2.947476 -0.539086 0
M  V30 48 H 6.472454 -2.558758 -1.848798 0
M  V30 49 H 4.692928 -0.003394 2.630683 0
M  V30 50 H 2.274495 -0.064998 3.850632 0
M  V30 51 H -0.165315 -0.459354 2.356419 0
M  V30 52 H 0.895031 0.220642 -0.439435 0
M  V30 53 H -1.074207 -0.777372 -1.593472 0
M  V30 54 H -0.005015 -1.878243 -0.740697 0
M  V30 55 H -3.688970 -0.666763 -0.934656 0
M  V30 56 H -5.182092 -1.920399 0.680974 0
M  V30 57 H -4.815391 -3.654092 2.793376 0
M  V30 58 H -3.040908 -4.817730 4.128208 0
M  V30 59 H -0.703905 -4.458745 3.576952 0
M  V30 60 H -0.133136 -2.984240 1.746158 0
M  V30 61 H -1.003173 1.332534 -2.077271 0
M  V30 62 H -2.325850 3.412376 -0.280486 0
M  V30 63 H -0.307478 4.329047 -1.382148 0
M  V30 64 H -1.060734 3.843001 -3.008259 0
M  V30 65 H -1.590763 6.193994 -1.302463 0
M  V30 66 H -2.075664 5.886495 -2.989533 0
M  V30 67 H -3.548656 5.045331 -0.440347 0
M  V30 68 H -4.014791 6.098487 -1.865586 0
M  V30 69 H -5.705668 4.961448 -3.048289 0
M  V30 70 H -6.430241 2.862740 -4.199722 0
M  V30 71 H -5.046138 0.774247 -3.982036 0
M  V30 72 H -2.971340 0.842563 -2.623159 0
M  V30 73 H 2.969239 -2.263942 4.367656 0
M  V30 74 H 1.368753 -2.546300 3.546418 0
M  V30 END ATOM
M  V30 BEGIN BOND
M  V30 1 1 1 2
M  V30 2 1 2 3
M  V30 3 2 3 4
M  V30 4 1 4 5
M  V30 5 2 5 6
M  V30 6 1 6 7
M  V30 7 2 7 8
M  V30 8 1 8 9
M  V30 9 1 9 10
M  V30 10 1 6 11
M  V30 11 1 11 12
M  V30 12 1 12 13
M  V30 13 2 13 14
M  V30 14 1 13 15
M  V30 15 1 15 16
M  V30 16 1 16 17
M  V30 17 1 17 18
M  V30 18 2 18 19
M  V30 19 1 19 20
M  V30 20 1 20 21
M  V30 21 2 21 22
M  V30 22 1 22 23
M  V30 23 2 23 24
M  V30 24 1 24 25
M  V30 25 2 25 26
M  V30 26 1 16 27
M  V30 27 2 27 28
M  V30 28 1 27 29
M  V30 29 1 29 30
M  V30 30 1 30 31
M  V30 31 1 31 32
M  V30 32 1 32 33
M  V30 33 1 33 34
M  V30 34 2 34 35
M  V30 35 1 35 36
M  V30 36 2 36 37
M  V30 37 1 37 38
M  V30 38 2 38 39
M  V30 39 1 12 40
M  V30 40 1 8 3
M  V30 41 1 26 18
M  V30 42 1 39 30
M  V30 43 1 40 5
M  V30 44 1 26 21
M  V30 45 1 39 34
M  V30 46 1 1 41
M  V30 47 1 1 42
M  V30 48 1 1 43
M  V30 49 1 4 44
M  V30 50 1 7 45
M  V30 51 1 10 46
M  V30 52 1 10 47
M  V30 53 1 10 48
M  V30 54 1 11 49
M  V30 55 1 12 50
M  V30 56 1 15 51
M  V30 57 1 16 52 CFG=3
M  V30 58 1 17 53
M  V30 59 1 17 54
M  V30 60 1 19 55
M  V30 61 1 20 56
M  V30 62 1 22 57
M  V30 63 1 23 58
M  V30 64 1 24 59
M  V30 65 1 25 60
M  V30 66 1 29 61
M  V30 67 1 30 62
M  V30 68 1 31 63
M  V30 69 1 31 64
M  V30 70 1 32 65
M  V30 71 1 32 66
M  V30 72 1 33 67
M  V30 73 1 33 68
M  V30 74 1 35 69
M  V30 75 1 36 70
M  V30 76 1 37 71
M  V30 77 1 38 72
M  V30 78 1 40 73
M  V30 79 1 40 74
M  V30 END BOND
M  V30 END CTAB
M  END
>  <Dataset>  (417) 
ChEMBL_Kinases

>  <Ligand_Instance>  (417) 
nan

>  <PDB_ID>  (417) 
nan

>  <Standardized_SMILES>  (417) 
COc1cc2c(cc1OC)NC(C(=O)N[C@@H](Cc1c[nH]c3ccccc13)C(=O)NC1CCCc3ccccc31)C2

>  <Name>  (417) 
nan

>  <Pocket>  (417) 
nan

>  <ATP_Site>  (417) 
nan

>  <Peripheral>  (417) 
nan

>  <Num_H_Atoms_ProtBoundConf>  (417) 
nan

>  <Num_Resolved_Atoms>  (417) 
nan

>  <Num_Not_Resolved_Atoms>  (417) 
nan

$$$$
CHEMBL3717733
     RDKit          3D

  0  0  0  0  0  0  0  0  0  0999 V3000
M  V30 BEGIN CTAB
M  V30 COUNTS 31 34 0 0 0
M  V30 BEGIN ATOM
M  V30 1 N 0.118440 -4.089662 4.562944 0
M  V30 2 C 0.279626 -2.752260 4.102264 0
M  V30 3 O 0.772039 -1.818742 4.816601 0
M  V30 4 C -0.154551 -2.460464 2.721994 0
M  V30 5 C -0.035715 -1.190757 2.191133 0
M  V30 6 C -0.427227 -0.879578 0.914069 0
M  V30 7 C -0.273126 0.484352 0.416041 0
M  V30 8 C -1.280768 1.441577 0.562594 0
M  V30 9 O -0.843443 2.566513 0.013910 0
M  V30 10 C 0.357260 2.393925 -0.465571 0
M  V30 11 C 1.283405 3.198453 -1.130687 0
M  V30 12 C 2.523324 2.733616 -1.535567 0
M  V30 13 C 2.874174 1.431313 -1.281444 0
M  V30 14 C 2.000495 0.561747 -0.619174 0
M  V30 15 C 0.790332 1.095525 -0.249232 0
M  V30 16 C -0.966309 -1.855106 0.100956 0
M  V30 17 C -1.448196 -1.894497 -1.186517 0
M  V30 18 N -1.843610 -3.173764 -1.403386 0
M  V30 19 N -1.622768 -3.895229 -0.315438 0
M  V30 20 C -1.075258 -3.124358 0.658466 0
M  V30 21 N -0.685266 -3.418905 1.920193 0
M  V30 22 H -0.818161 -3.998025 5.052531 0
M  V30 23 H 0.539897 -5.053501 4.599295 0
M  V30 24 H 0.386765 -0.463956 2.853751 0
M  V30 25 H -2.255269 1.401090 1.008601 0
M  V30 26 H 0.994194 4.224745 -1.325295 0
M  V30 27 H 3.201410 3.407870 -2.049376 0
M  V30 28 H 3.837498 1.037124 -1.585602 0
M  V30 29 H 2.234822 -0.467186 -0.399325 0
M  V30 30 H -1.474439 -1.042225 -1.831944 0
M  V30 31 H -1.834937 -4.923946 -0.201319 0
M  V30 END ATOM
M  V30 BEGIN BOND
M  V30 1 1 1 2
M  V30 2 2 2 3
M  V30 3 1 2 4
M  V30 4 2 4 5
M  V30 5 1 5 6
M  V30 6 1 6 7
M  V30 7 2 7 8
M  V30 8 1 8 9
M  V30 9 1 9 10
M  V30 10 2 10 11
M  V30 11 1 11 12
M  V30 12 2 12 13
M  V30 13 1 13 14
M  V30 14 2 14 15
M  V30 15 2 6 16
M  V30 16 1 16 17
M  V30 17 2 17 18
M  V30 18 1 18 19
M  V30 19 1 19 20
M  V30 20 2 20 21
M  V30 21 1 21 4
M  V30 22 1 15 7
M  V30 23 1 20 16
M  V30 24 1 15 10
M  V30 25 1 1 22
M  V30 26 1 1 23
M  V30 27 1 5 24
M  V30 28 1 8 25
M  V30 29 1 11 26
M  V30 30 1 12 27
M  V30 31 1 13 28
M  V30 32 1 14 29
M  V30 33 1 17 30
M  V30 34 1 19 31
M  V30 END BOND
M  V30 END CTAB
M  END
>  <Dataset>  (418) 
ChEMBL_Kinases

>  <Ligand_Instance>  (418) 
nan

>  <PDB_ID>  (418) 
nan

>  <Standardized_SMILES>  (418) 
NC(=O)c1cc(-c2coc3ccccc23)c2cn[nH]c2n1

>  <Name>  (418) 
nan

>  <Pocket>  (418) 
nan

>  <ATP_Site>  (418) 
nan

>  <Peripheral>  (418) 
nan

>  <Num_H_Atoms_ProtBoundConf>  (418) 
nan

>  <Num_Resolved_Atoms>  (418) 
nan

>  <Num_Not_Resolved_Atoms>  (418) 
nan

$$$$
CHEMBL3717704
     RDKit          3D

  0  0  0  0  0  0  0  0  0  0999 V3000
M  V30 BEGIN CTAB
M  V30 COUNTS 26 27 0 0 0
M  V30 BEGIN ATOM
M  V30 1 O -0.453663 -3.403797 4.088383 0
M  V30 2 C -0.247390 -3.638205 2.869864 0
M  V30 3 O -1.292730 -3.591553 1.930347 0
M  V30 4 C 1.172648 -3.952117 2.582669 0
M  V30 5 S 1.380499 -4.275396 0.803267 0
M  V30 6 C 1.070259 -2.791966 -0.142996 0
M  V30 7 N 1.122101 -2.628076 -1.472526 0
M  V30 8 N 0.818197 -1.354001 -1.768862 0
M  V30 9 C 0.576189 -0.728478 -0.593751 0
M  V30 10 C 0.207105 0.676760 -0.447908 0
M  V30 11 C 0.053701 1.556976 -1.492141 0
M  V30 12 C -0.296599 2.881308 -1.313663 0
M  V30 13 C -0.497055 3.321847 -0.021011 0
M  V30 14 O -0.855444 4.661634 0.222642 0
M  V30 15 C -0.364881 2.506891 1.094809 0
M  V30 16 F -0.559943 2.932366 2.366299 0
M  V30 17 C -0.012821 1.202992 0.809179 0
M  V30 18 N 0.730884 -1.611403 0.406959 0
M  V30 19 H -2.261629 -3.575310 2.237762 0
M  V30 20 H 1.498365 -4.806261 3.191306 0
M  V30 21 H 1.813198 -3.097725 2.899844 0
M  V30 22 H 0.219987 1.167588 -2.490821 0
M  V30 23 H -0.418351 3.575991 -2.125324 0
M  V30 24 H -0.333097 5.109325 0.978387 0
M  V30 25 H 0.097124 0.540350 1.679258 0
M  V30 26 H 0.609304 -1.416668 1.426173 0
M  V30 END ATOM
M  V30 BEGIN BOND
M  V30 1 2 1 2
M  V30 2 1 2 3
M  V30 3 1 2 4
M  V30 4 1 4 5
M  V30 5 1 5 6
M  V30 6 2 6 7
M  V30 7 1 7 8
M  V30 8 2 8 9
M  V30 9 1 9 10
M  V30 10 2 10 11
M  V30 11 1 11 12
M  V30 12 2 12 13
M  V30 13 1 13 14
M  V30 14 1 13 15
M  V30 15 1 15 16
M  V30 16 2 15 17
M  V30 17 1 9 18
M  V30 18 1 18 6
M  V30 19 1 17 10
M  V30 20 1 3 19
M  V30 21 1 4 20
M  V30 22 1 4 21
M  V30 23 1 11 22
M  V30 24 1 12 23
M  V30 25 1 14 24
M  V30 26 1 17 25
M  V30 27 1 18 26
M  V30 END BOND
M  V30 END CTAB
M  END
>  <Dataset>  (419) 
ChEMBL_Kinases

>  <Ligand_Instance>  (419) 
nan

>  <PDB_ID>  (419) 
nan

>  <Standardized_SMILES>  (419) 
O=C(O)CSc1nnc(-c2ccc(O)c(F)c2)[nH]1

>  <Name>  (419) 
nan

>  <Pocket>  (419) 
nan

>  <ATP_Site>  (419) 
nan

>  <Peripheral>  (419) 
nan

>  <Num_H_Atoms_ProtBoundConf>  (419) 
nan

>  <Num_Resolved_Atoms>  (419) 
nan

>  <Num_Not_Resolved_Atoms>  (419) 
nan

$$$$
CHEMBL567124
     RDKit          3D

  0  0  0  0  0  0  0  0  0  0999 V3000
M  V30 BEGIN CTAB
M  V30 COUNTS 69 73 0 0 0
M  V30 BEGIN ATOM
M  V30 1 C 3.164589 -0.826059 3.920070 0
M  V30 2 C 2.590083 -1.225778 2.632880 0
M  V30 3 C 2.602642 -0.302410 1.617813 0
M  V30 4 N 3.103464 1.018293 1.623756 0
M  V30 5 C 3.051103 2.284874 2.212678 0
M  V30 6 C 4.042004 2.699620 3.106985 0
M  V30 7 C 5.162152 1.865330 3.434688 0
M  V30 8 N 6.075153 1.195877 3.681477 0
M  V30 9 C 4.030784 3.928904 3.722570 0
M  V30 10 N 3.013499 4.753404 3.437397 0
M  V30 11 C 2.022555 4.430526 2.588749 0
M  V30 12 C 2.049967 3.203205 1.986197 0
M  V30 13 C 0.950677 2.892269 1.091641 0
M  V30 14 C -0.059976 3.665858 0.744591 0
M  V30 15 C -1.152761 3.325560 -0.156028 0
M  V30 16 C -2.131757 4.248052 -0.465641 0
M  V30 17 C -3.194736 4.014015 -1.286112 0
M  V30 18 C -3.339086 2.780236 -1.867839 0
M  V30 19 C -2.400033 1.807819 -1.605062 0
M  V30 20 O -2.452210 0.512559 -2.144443 0
M  V30 21 C -1.485004 -0.478980 -1.867733 0
M  V30 22 C -1.847780 -1.749282 -2.596412 0
M  V30 23 N -3.138493 -2.254895 -2.203083 0
M  V30 24 C -3.463322 -3.464887 -2.929471 0
M  V30 25 C -4.124494 -4.504797 -2.066887 0
M  V30 26 N -3.309763 -4.932711 -0.946313 0
M  V30 27 C -2.637246 -6.181780 -1.183383 0
M  V30 28 C -2.407632 -3.880147 -0.515375 0
M  V30 29 C -3.120991 -2.576200 -0.796575 0
M  V30 30 C -1.329478 2.100735 -0.757176 0
M  V30 31 C 2.044212 -0.687432 0.392859 0
M  V30 32 C 1.494355 -1.931595 0.171332 0
M  V30 33 C 1.538580 -2.775151 1.263909 0
M  V30 34 N 1.087789 -4.041025 1.362525 0
M  V30 35 C 1.313434 -4.544226 2.607939 0
M  V30 36 C 1.939405 -3.562952 3.356667 0
M  V30 37 C 2.065306 -2.487134 2.505797 0
M  V30 38 H 4.258751 -0.889062 3.932948 0
M  V30 39 H 2.753211 -1.425136 4.770890 0
M  V30 40 H 2.878658 0.231583 4.094548 0
M  V30 41 H 3.841644 1.191091 0.891106 0
M  V30 42 H 4.808719 4.248628 4.423065 0
M  V30 43 H 1.307967 5.231475 2.501800 0
M  V30 44 H 0.907365 1.920000 0.624701 0
M  V30 45 H -0.073563 4.658823 1.178848 0
M  V30 46 H -2.055323 5.249871 -0.020620 0
M  V30 47 H -3.916466 4.805691 -1.471531 0
M  V30 48 H -4.157965 2.536313 -2.524717 0
M  V30 49 H -0.514603 -0.055527 -2.268033 0
M  V30 50 H -1.327676 -0.590199 -0.794969 0
M  V30 51 H -1.731299 -1.589776 -3.677736 0
M  V30 52 H -1.041075 -2.495225 -2.336487 0
M  V30 53 H -2.639867 -3.857785 -3.530346 0
M  V30 54 H -4.260509 -3.149165 -3.668544 0
M  V30 55 H -5.117160 -4.187210 -1.699053 0
M  V30 56 H -4.297708 -5.414084 -2.675930 0
M  V30 57 H -1.899761 -6.049103 -1.990693 0
M  V30 58 H -3.402260 -6.941836 -1.418538 0
M  V30 59 H -2.195203 -6.492239 -0.211780 0
M  V30 60 H -2.261789 -3.955431 0.574467 0
M  V30 61 H -1.439634 -3.987674 -1.011652 0
M  V30 62 H -2.819517 -1.766667 -0.131733 0
M  V30 63 H -4.205826 -2.770373 -0.535660 0
M  V30 64 H -0.606646 1.320323 -0.569386 0
M  V30 65 H 2.009245 -0.014487 -0.475403 0
M  V30 66 H 1.067318 -2.225999 -0.767876 0
M  V30 67 H 0.620196 -4.623444 0.632055 0
M  V30 68 H 1.076905 -5.510017 3.003153 0
M  V30 69 H 2.295717 -3.528834 4.382444 0
M  V30 END ATOM
M  V30 BEGIN BOND
M  V30 1 1 1 2
M  V30 2 2 2 3
M  V30 3 1 3 4
M  V30 4 1 4 5
M  V30 5 2 5 6
M  V30 6 1 6 7
M  V30 7 3 7 8
M  V30 8 1 6 9
M  V30 9 2 9 10
M  V30 10 1 10 11
M  V30 11 2 11 12
M  V30 12 1 12 13
M  V30 13 2 13 14
M  V30 14 1 14 15
M  V30 15 2 15 16
M  V30 16 1 16 17
M  V30 17 2 17 18
M  V30 18 1 18 19
M  V30 19 1 19 20
M  V30 20 1 20 21
M  V30 21 1 21 22
M  V30 22 1 22 23
M  V30 23 1 23 24
M  V30 24 1 24 25
M  V30 25 1 25 26
M  V30 26 1 26 27
M  V30 27 1 26 28
M  V30 28 1 28 29
M  V30 29 2 19 30
M  V30 30 1 3 31
M  V30 31 2 31 32
M  V30 32 1 32 33
M  V30 33 1 33 34
M  V30 34 1 34 35
M  V30 35 2 35 36
M  V30 36 1 36 37
M  V30 37 1 37 2
M  V30 38 1 12 5
M  V30 39 1 30 15
M  V30 40 2 37 33
M  V30 41 1 29 23
M  V30 42 1 1 38
M  V30 43 1 1 39
M  V30 44 1 1 40
M  V30 45 1 4 41
M  V30 46 1 9 42
M  V30 47 1 11 43
M  V30 48 1 13 44
M  V30 49 1 14 45
M  V30 50 1 16 46
M  V30 51 1 17 47
M  V30 52 1 18 48
M  V30 53 1 21 49
M  V30 54 1 21 50
M  V30 55 1 22 51
M  V30 56 1 22 52
M  V30 57 1 24 53
M  V30 58 1 24 54
M  V30 59 1 25 55
M  V30 60 1 25 56
M  V30 61 1 27 57
M  V30 62 1 27 58
M  V30 63 1 27 59
M  V30 64 1 28 60
M  V30 65 1 28 61
M  V30 66 1 29 62
M  V30 67 1 29 63
M  V30 68 1 30 64
M  V30 69 1 31 65
M  V30 70 1 32 66
M  V30 71 1 34 67
M  V30 72 1 35 68
M  V30 73 1 36 69
M  V30 END BOND
M  V30 END CTAB
M  END
>  <Dataset>  (420) 
ChEMBL_Kinases

>  <Ligand_Instance>  (420) 
nan

>  <PDB_ID>  (420) 
nan

>  <Standardized_SMILES>  (420) 
Cc1c(Nc2c(C#N)cncc2/C=C/c2cccc(OCCN3CCN(C)CC3)c2)ccc2[nH]ccc12

>  <Name>  (420) 
nan

>  <Pocket>  (420) 
nan

>  <ATP_Site>  (420) 
nan

>  <Peripheral>  (420) 
nan

>  <Num_H_Atoms_ProtBoundConf>  (420) 
nan

>  <Num_Resolved_Atoms>  (420) 
nan

>  <Num_Not_Resolved_Atoms>  (420) 
nan

$$$$
CHEMBL3717649
     RDKit          3D

  0  0  0  0  0  0  0  0  0  0999 V3000
M  V30 BEGIN CTAB
M  V30 COUNTS 30 31 0 0 0
M  V30 BEGIN ATOM
M  V30 1 C -1.619182 -2.423229 3.287299 0
M  V30 2 C -0.679623 -3.413621 2.700297 0
M  V30 3 O -0.688950 -4.546774 3.241745 0
M  V30 4 C 0.220413 -3.166734 1.577572 0
M  V30 5 C 1.007821 -4.234507 1.198924 0
M  V30 6 C 1.900735 -4.085633 0.129558 0
M  V30 7 C 1.951459 -2.858931 -0.504515 0
M  V30 8 C 1.146711 -1.797015 -0.103871 0
M  V30 9 C 1.226671 -0.513432 -0.798475 0
M  V30 10 N 2.029960 -0.220008 -1.837144 0
M  V30 11 N 1.820330 1.054552 -2.203959 0
M  V30 12 C 0.880230 1.585781 -1.401244 0
M  V30 13 S 0.210376 3.260750 -1.440640 0
M  V30 14 C -1.018209 3.409106 -0.106892 0
M  V30 15 C -0.322677 3.311880 1.226007 0
M  V30 16 O 0.689895 3.215607 0.480175 0
M  V30 17 O 0.392658 3.215382 2.391774 0
M  V30 18 N 0.529192 0.611698 -0.548085 0
M  V30 19 C 0.261774 -1.936836 0.952273 0
M  V30 20 H -2.585882 -2.913685 3.537858 0
M  V30 21 H -1.184163 -1.898888 4.162597 0
M  V30 22 H -1.877927 -1.640119 2.542779 0
M  V30 23 H 0.989407 -5.205159 1.676521 0
M  V30 24 H 2.535723 -4.896564 -0.199553 0
M  V30 25 H 2.613705 -2.661070 -1.338349 0
M  V30 26 H -1.538595 4.366644 -0.127539 0
M  V30 27 H -1.749430 2.575753 -0.170261 0
M  V30 28 H 0.593889 2.280675 2.763851 0
M  V30 29 H -0.165363 0.626596 0.221598 0
M  V30 30 H -0.368075 -1.119362 1.272603 0
M  V30 END ATOM
M  V30 BEGIN BOND
M  V30 1 1 1 2
M  V30 2 2 2 3
M  V30 3 1 2 4
M  V30 4 2 4 5
M  V30 5 1 5 6
M  V30 6 2 6 7
M  V30 7 1 7 8
M  V30 8 1 8 9
M  V30 9 2 9 10
M  V30 10 1 10 11
M  V30 11 2 11 12
M  V30 12 1 12 13
M  V30 13 1 13 14
M  V30 14 1 14 15
M  V30 15 2 15 16
M  V30 16 1 15 17
M  V30 17 1 12 18
M  V30 18 2 8 19
M  V30 19 1 19 4
M  V30 20 1 18 9
M  V30 21 1 1 20
M  V30 22 1 1 21
M  V30 23 1 1 22
M  V30 24 1 5 23
M  V30 25 1 6 24
M  V30 26 1 7 25
M  V30 27 1 14 26
M  V30 28 1 14 27
M  V30 29 1 17 28
M  V30 30 1 18 29
M  V30 31 1 19 30
M  V30 END BOND
M  V30 END CTAB
M  END
>  <Dataset>  (421) 
ChEMBL_Kinases

>  <Ligand_Instance>  (421) 
nan

>  <PDB_ID>  (421) 
nan

>  <Standardized_SMILES>  (421) 
CC(=O)c1cccc(-c2nnc(SCC(=O)O)[nH]2)c1

>  <Name>  (421) 
nan

>  <Pocket>  (421) 
nan

>  <ATP_Site>  (421) 
nan

>  <Peripheral>  (421) 
nan

>  <Num_H_Atoms_ProtBoundConf>  (421) 
nan

>  <Num_Resolved_Atoms>  (421) 
nan

>  <Num_Not_Resolved_Atoms>  (421) 
nan

$$$$
CHEMBL3717643
     RDKit          3D

  0  0  0  0  0  0  0  0  0  0999 V3000
M  V30 BEGIN CTAB
M  V30 COUNTS 73 76 0 0 0
M  V30 BEGIN ATOM
M  V30 1 C 6.741912 -5.747268 3.565818 0
M  V30 2 C 7.018662 -5.666106 2.061175 0
M  V30 3 C 6.197460 -4.600930 1.425187 0
M  V30 4 C 4.947332 -4.674083 0.865914 0
M  V30 5 C 4.352010 -3.563542 0.327035 0
M  V30 6 C 4.972131 -2.331841 0.319971 0
M  V30 7 C 4.295331 -1.165870 -0.264107 0
M  V30 8 C 2.899419 -1.199794 -0.130107 0
M  V30 9 C 2.173058 -0.145936 -0.645240 0
M  V30 10 C 2.721289 0.945795 -1.286450 0
M  V30 11 C 1.967165 2.067839 -1.829851 0
M  V30 12 O 2.592681 3.014350 -2.410738 0
M  V30 13 N 0.554111 2.175906 -1.751082 0
M  V30 14 C 0.057138 3.368040 -2.355241 0
M  V30 15 C -1.417312 3.526220 -2.291720 0
M  V30 16 O -1.879088 4.568082 -2.809649 0
M  V30 17 N -2.293562 2.606215 -1.703989 0
M  V30 18 C -3.677929 2.506349 -1.505302 0
M  V30 19 C -4.204627 2.176076 -0.166708 0
M  V30 20 N -4.029969 0.772456 0.195864 0
M  V30 21 C -4.133212 0.398922 1.584582 0
M  V30 22 O -4.364291 1.209490 2.518106 0
M  V30 23 O -3.985838 -0.891087 2.009783 0
M  V30 24 C -4.053903 -1.408390 3.293166 0
M  V30 25 C -3.813196 -2.918320 3.165585 0
M  V30 26 C -2.858891 -0.888543 4.065962 0
M  V30 27 C -5.331746 -1.196991 4.022540 0
M  V30 28 C -3.754439 -0.299113 -0.740879 0
M  V30 29 C -4.235254 0.118826 -2.072122 0
M  V30 30 C -4.710377 -0.878748 -2.906323 0
M  V30 31 C -5.164353 -0.514476 -4.155614 0
M  V30 32 C -5.157130 0.790941 -4.585703 0
M  V30 33 C -4.671670 1.736332 -3.708519 0
M  V30 34 C -4.201676 1.446139 -2.444752 0
M  V30 35 C 4.095024 0.925006 -1.389097 0
M  V30 36 C 4.889476 -0.092217 -0.899596 0
M  V30 37 C 6.217956 -2.230233 0.870424 0
M  V30 38 C 6.819353 -3.352054 1.414855 0
M  V30 39 H 5.951790 -5.027839 3.862893 0
M  V30 40 H 7.677791 -5.367685 4.057574 0
M  V30 41 H 6.591734 -6.773599 3.920747 0
M  V30 42 H 8.080925 -5.531105 1.845710 0
M  V30 43 H 6.604884 -6.633803 1.656949 0
M  V30 44 H 4.525595 -5.681482 0.910715 0
M  V30 45 H 3.367747 -3.729155 -0.087924 0
M  V30 46 H 2.373326 -2.010362 0.356319 0
M  V30 47 H 1.101072 -0.186708 -0.534937 0
M  V30 48 H 0.071096 1.387121 -1.272444 0
M  V30 49 H 0.387056 3.437193 -3.412412 0
M  V30 50 H 0.507900 4.243692 -1.833238 0
M  V30 51 H -1.923359 1.730268 -1.271445 0
M  V30 52 H -4.144941 3.437222 -1.896668 0
M  V30 53 H -5.307924 2.334698 -0.195391 0
M  V30 54 H -3.872244 2.847528 0.650793 0
M  V30 55 H -2.743498 -3.167372 3.197352 0
M  V30 56 H -4.218290 -3.256079 2.189211 0
M  V30 57 H -4.305693 -3.432400 4.019058 0
M  V30 58 H -3.091256 -1.019938 5.135355 0
M  V30 59 H -1.924461 -1.454880 3.848689 0
M  V30 60 H -2.667018 0.182361 3.855512 0
M  V30 61 H -5.636882 -2.146476 4.504591 0
M  V30 62 H -5.183219 -0.477288 4.854081 0
M  V30 63 H -6.131568 -0.853639 3.334813 0
M  V30 64 H -4.314562 -1.224892 -0.414414 0
M  V30 65 H -2.693719 -0.608151 -0.734504 0
M  V30 66 H -4.732616 -1.926859 -2.598886 0
M  V30 67 H -5.553818 -1.262489 -4.864109 0
M  V30 68 H -5.506331 1.099083 -5.556333 0
M  V30 69 H -4.666765 2.777289 -4.053749 0
M  V30 70 H 4.591869 1.762254 -1.888587 0
M  V30 71 H 5.950403 -0.148150 -0.956973 0
M  V30 72 H 6.698391 -1.254369 0.859465 0
M  V30 73 H 7.804280 -3.157053 1.822135 0
M  V30 END ATOM
M  V30 BEGIN BOND
M  V30 1 1 1 2
M  V30 2 1 2 3
M  V30 3 2 3 4
M  V30 4 1 4 5
M  V30 5 2 5 6
M  V30 6 1 6 7
M  V30 7 2 7 8
M  V30 8 1 8 9
M  V30 9 2 9 10
M  V30 10 1 10 11
M  V30 11 2 11 12
M  V30 12 1 11 13
M  V30 13 1 13 14
M  V30 14 1 14 15
M  V30 15 2 15 16
M  V30 16 1 15 17
M  V30 17 1 17 18
M  V30 18 1 18 19
M  V30 19 1 19 20
M  V30 20 1 20 21
M  V30 21 2 21 22
M  V30 22 1 21 23
M  V30 23 1 23 24
M  V30 24 1 24 25
M  V30 25 1 24 26
M  V30 26 1 24 27
M  V30 27 1 20 28
M  V30 28 1 28 29
M  V30 29 2 29 30
M  V30 30 1 30 31
M  V30 31 2 31 32
M  V30 32 1 32 33
M  V30 33 2 33 34
M  V30 34 1 10 35
M  V30 35 2 35 36
M  V30 36 1 6 37
M  V30 37 2 37 38
M  V30 38 1 38 3
M  V30 39 1 36 7
M  V30 40 1 34 18
M  V30 41 1 34 29
M  V30 42 1 1 39
M  V30 43 1 1 40
M  V30 44 1 1 41
M  V30 45 1 2 42
M  V30 46 1 2 43
M  V30 47 1 4 44
M  V30 48 1 5 45
M  V30 49 1 8 46
M  V30 50 1 9 47
M  V30 51 1 13 48
M  V30 52 1 14 49
M  V30 53 1 14 50
M  V30 54 1 17 51
M  V30 55 1 18 52
M  V30 56 1 19 53
M  V30 57 1 19 54
M  V30 58 1 25 55
M  V30 59 1 25 56
M  V30 60 1 25 57
M  V30 61 1 26 58
M  V30 62 1 26 59
M  V30 63 1 26 60
M  V30 64 1 27 61
M  V30 65 1 27 62
M  V30 66 1 27 63
M  V30 67 1 28 64
M  V30 68 1 28 65
M  V30 69 1 30 66
M  V30 70 1 31 67
M  V30 71 1 32 68
M  V30 72 1 33 69
M  V30 73 1 35 70
M  V30 74 1 36 71
M  V30 75 1 37 72
M  V30 76 1 38 73
M  V30 END BOND
M  V30 END CTAB
M  END
>  <Dataset>  (422) 
ChEMBL_Kinases

>  <Ligand_Instance>  (422) 
nan

>  <PDB_ID>  (422) 
nan

>  <Standardized_SMILES>  (422) 
CCc1ccc(-c2ccc(C(=O)NCC(=O)NC3CN(C(=O)OC(C)(C)C)Cc4ccccc43)cc2)cc1

>  <Name>  (422) 
nan

>  <Pocket>  (422) 
nan

>  <ATP_Site>  (422) 
nan

>  <Peripheral>  (422) 
nan

>  <Num_H_Atoms_ProtBoundConf>  (422) 
nan

>  <Num_Resolved_Atoms>  (422) 
nan

>  <Num_Not_Resolved_Atoms>  (422) 
nan

$$$$
CHEMBL3717595
     RDKit          3D

  0  0  0  0  0  0  0  0  0  0999 V3000
M  V30 BEGIN CTAB
M  V30 COUNTS 114 119 0 0 0
M  V30 BEGIN ATOM
M  V30 1 C -0.597125 -4.892285 0.260309 0
M  V30 2 C -0.546150 -3.639842 1.057076 0
M  V30 3 C -1.155084 -3.503502 2.287858 0
M  V30 4 C -1.131889 -2.354788 3.062623 0
M  V30 5 C -1.760792 -2.286010 4.294492 0
M  V30 6 C -2.494546 -3.428928 4.830612 0
M  V30 7 C -1.564800 -4.258836 5.690254 0
M  V30 8 C -3.649814 -2.936107 5.675299 0
M  V30 9 C -1.644314 -1.068660 4.961611 0
M  V30 10 O -2.227299 -0.868316 6.211409 0
M  V30 11 C -0.956093 0.042455 4.473554 0
M  V30 12 O -0.897550 1.214425 5.215720 0
M  V30 13 C -0.343774 -0.069379 3.238935 0
M  V30 14 C 0.360941 1.114985 2.769757 0
M  V30 15 N 0.376527 2.166423 3.493021 0
M  V30 16 C 1.060283 3.408941 3.105463 0
M  V30 17 C 0.484040 3.957216 1.827230 0
M  V30 18 C 1.142291 5.219466 1.352833 0
M  V30 19 N 2.542619 5.065858 1.091676 0
M  V30 20 C 3.155394 6.309183 0.620132 0
M  V30 21 C 4.640995 6.058903 0.428602 0
M  V30 22 O 4.947404 4.691069 0.590310 0
M  V30 23 C 4.202104 3.997459 -0.359585 0
M  V30 24 C 2.738715 4.100401 0.027194 0
M  V30 25 C -0.438631 -1.251956 2.558359 0
M  V30 26 C 0.166641 -1.369065 1.348018 0
M  V30 27 O 0.888816 -0.369978 0.714527 0
M  V30 28 C 0.140584 -2.533005 0.566888 0
M  V30 29 C 0.809557 -2.634068 -0.752921 0
M  V30 30 C 2.111583 -3.035710 -0.980086 0
M  V30 31 C 2.896983 -3.399939 0.203832 0
M  V30 32 C 2.571768 -3.063982 -2.281934 0
M  V30 33 C 1.818206 -2.716594 -3.386122 0
M  V30 34 C 2.342980 -2.769025 -4.661717 0
M  V30 35 C 3.748713 -3.193718 -4.907643 0
M  V30 36 C 3.826612 -4.698448 -5.054005 0
M  V30 37 C 4.278954 -2.621459 -6.213459 0
M  V30 38 C 1.476408 -2.394094 -5.686084 0
M  V30 39 O 1.915742 -2.415903 -7.000048 0
M  V30 40 C 0.176741 -1.995005 -5.446640 0
M  V30 41 O -0.647374 -1.629155 -6.522860 0
M  V30 42 C -0.318065 -1.952822 -4.159828 0
M  V30 43 C -1.705520 -1.518760 -3.993921 0
M  V30 44 N -1.884960 -0.256815 -3.831713 0
M  V30 45 C -3.157236 0.395031 -3.649938 0
M  V30 46 C -3.629801 0.327874 -2.188899 0
M  V30 47 C -4.952155 1.007597 -1.998358 0
M  V30 48 N -5.457705 0.993548 -0.674349 0
M  V30 49 C -4.769146 1.758127 0.294521 0
M  V30 50 C -4.038767 0.907129 1.286946 0
M  V30 51 O -4.925423 -0.030533 1.860281 0
M  V30 52 C -5.224406 -0.905626 0.802146 0
M  V30 53 C -6.058702 -0.172764 -0.190445 0
M  V30 54 C 0.521562 -2.319991 -3.126936 0
M  V30 55 C 0.022654 -2.277800 -1.840511 0
M  V30 56 O -1.298874 -1.866528 -1.650761 0
M  V30 57 H -0.496621 -5.808004 0.888908 0
M  V30 58 H -1.516814 -4.965685 -0.357072 0
M  V30 59 H 0.240711 -4.912002 -0.444884 0
M  V30 60 H -1.651357 -4.387898 2.597819 0
M  V30 61 H -2.857354 -4.125046 4.043681 0
M  V30 62 H -1.868727 -4.236164 6.759235 0
M  V30 63 H -0.505144 -3.929391 5.557469 0
M  V30 64 H -1.552980 -5.331755 5.409733 0
M  V30 65 H -4.003217 -1.963600 5.295059 0
M  V30 66 H -3.307480 -2.812770 6.713970 0
M  V30 67 H -4.446387 -3.717212 5.595919 0
M  V30 68 H -1.644859 -1.030480 7.028010 0
M  V30 69 H -1.585229 1.925810 5.105081 0
M  V30 70 H 0.924941 1.380343 1.905522 0
M  V30 71 H 0.941865 4.174918 3.892810 0
M  V30 72 H 2.135455 3.234289 2.953334 0
M  V30 73 H 0.426845 3.177816 1.044588 0
M  V30 74 H -0.594824 4.234786 2.016404 0
M  V30 75 H 0.589579 5.533183 0.428886 0
M  V30 76 H 1.003260 6.060990 2.057584 0
M  V30 77 H 2.720746 6.624621 -0.351461 0
M  V30 78 H 3.030486 7.077593 1.386155 0
M  V30 79 H 5.238540 6.694289 1.093484 0
M  V30 80 H 4.932557 6.277593 -0.639003 0
M  V30 81 H 4.537440 2.922523 -0.322372 0
M  V30 82 H 4.394018 4.467412 -1.341251 0
M  V30 83 H 2.186543 4.458265 -0.865232 0
M  V30 84 H 2.324515 3.123289 0.331534 0
M  V30 85 H 0.845188 -0.136200 -0.261512 0
M  V30 86 H 2.965332 -4.483765 0.401143 0
M  V30 87 H 2.573831 -2.799962 1.078843 0
M  V30 88 H 3.965215 -3.076074 0.032333 0
M  V30 89 H 3.590052 -3.385037 -2.397481 0
M  V30 90 H 4.429699 -2.791650 -4.131684 0
M  V30 91 H 4.737242 -5.011012 -5.614277 0
M  V30 92 H 2.939076 -5.030917 -5.622384 0
M  V30 93 H 3.848704 -5.222152 -4.090968 0
M  V30 94 H 4.065433 -3.305376 -7.071012 0
M  V30 95 H 5.387468 -2.627152 -6.134799 0
M  V30 96 H 4.003497 -1.574675 -6.384359 0
M  V30 97 H 1.890499 -1.535913 -7.538120 0
M  V30 98 H -0.289929 -0.841659 -7.065174 0
M  V30 99 H -2.612835 -2.125390 -3.989269 0
M  V30 100 H -3.930173 -0.138740 -4.233268 0
M  V30 101 H -3.081925 1.471978 -3.894550 0
M  V30 102 H -2.855663 0.743457 -1.515968 0
M  V30 103 H -3.780845 -0.738266 -1.896548 0
M  V30 104 H -5.682934 0.636140 -2.755493 0
M  V30 105 H -4.771516 2.092218 -2.277394 0
M  V30 106 H -5.464941 2.403962 0.913467 0
M  V30 107 H -3.975167 2.429132 -0.161792 0
M  V30 108 H -3.724836 1.546879 2.151457 0
M  V30 109 H -3.163815 0.429092 0.831714 0
M  V30 110 H -5.795340 -1.787948 1.217904 0
M  V30 111 H -4.263611 -1.221245 0.377108 0
M  V30 112 H -6.306918 -0.921317 -0.997669 0
M  V30 113 H -7.055125 0.007485 0.313717 0
M  V30 114 H -1.870262 -2.373085 -0.985947 0
M  V30 END ATOM
M  V30 BEGIN BOND
M  V30 1 1 1 2
M  V30 2 2 2 3
M  V30 3 1 3 4
M  V30 4 2 4 5
M  V30 5 1 5 6
M  V30 6 1 6 7
M  V30 7 1 6 8
M  V30 8 1 5 9
M  V30 9 1 9 10
M  V30 10 2 9 11
M  V30 11 1 11 12
M  V30 12 1 11 13
M  V30 13 1 13 14
M  V30 14 2 14 15
M  V30 15 1 15 16
M  V30 16 1 16 17
M  V30 17 1 17 18
M  V30 18 1 18 19
M  V30 19 1 19 20
M  V30 20 1 20 21
M  V30 21 1 21 22
M  V30 22 1 22 23
M  V30 23 1 23 24
M  V30 24 2 13 25
M  V30 25 1 25 26
M  V30 26 1 26 27
M  V30 27 2 26 28
M  V30 28 1 28 29
M  V30 29 2 29 30
M  V30 30 1 30 31
M  V30 31 1 30 32
M  V30 32 2 32 33
M  V30 33 1 33 34
M  V30 34 1 34 35
M  V30 35 1 35 36
M  V30 36 1 35 37
M  V30 37 2 34 38
M  V30 38 1 38 39
M  V30 39 1 38 40
M  V30 40 1 40 41
M  V30 41 2 40 42
M  V30 42 1 42 43
M  V30 43 2 43 44
M  V30 44 1 44 45
M  V30 45 1 45 46
M  V30 46 1 46 47
M  V30 47 1 47 48
M  V30 48 1 48 49
M  V30 49 1 49 50
M  V30 50 1 50 51
M  V30 51 1 51 52
M  V30 52 1 52 53
M  V30 53 1 42 54
M  V30 54 2 54 55
M  V30 55 1 55 56
M  V30 56 1 28 2
M  V30 57 1 55 29
M  V30 58 1 25 4
M  V30 59 1 54 33
M  V30 60 1 24 19
M  V30 61 1 53 48
M  V30 62 1 1 57
M  V30 63 1 1 58
M  V30 64 1 1 59
M  V30 65 1 3 60
M  V30 66 1 6 61
M  V30 67 1 7 62
M  V30 68 1 7 63
M  V30 69 1 7 64
M  V30 70 1 8 65
M  V30 71 1 8 66
M  V30 72 1 8 67
M  V30 73 1 10 68
M  V30 74 1 12 69
M  V30 75 1 14 70
M  V30 76 1 16 71
M  V30 77 1 16 72
M  V30 78 1 17 73
M  V30 79 1 17 74
M  V30 80 1 18 75
M  V30 81 1 18 76
M  V30 82 1 20 77
M  V30 83 1 20 78
M  V30 84 1 21 79
M  V30 85 1 21 80
M  V30 86 1 23 81
M  V30 87 1 23 82
M  V30 88 1 24 83
M  V30 89 1 24 84
M  V30 90 1 27 85
M  V30 91 1 31 86
M  V30 92 1 31 87
M  V30 93 1 31 88
M  V30 94 1 32 89
M  V30 95 1 35 90
M  V30 96 1 36 91
M  V30 97 1 36 92
M  V30 98 1 36 93
M  V30 99 1 37 94
M  V30 100 1 37 95
M  V30 101 1 37 96
M  V30 102 1 39 97
M  V30 103 1 41 98
M  V30 104 1 43 99
M  V30 105 1 45 100
M  V30 106 1 45 101
M  V30 107 1 46 102
M  V30 108 1 46 103
M  V30 109 1 47 104
M  V30 110 1 47 105
M  V30 111 1 49 106
M  V30 112 1 49 107
M  V30 113 1 50 108
M  V30 114 1 50 109
M  V30 115 1 52 110
M  V30 116 1 52 111
M  V30 117 1 53 112
M  V30 118 1 53 113
M  V30 119 1 56 114
M  V30 END BOND
M  V30 END CTAB
M  END
>  <Dataset>  (423) 
ChEMBL_Kinases

>  <Ligand_Instance>  (423) 
nan

>  <PDB_ID>  (423) 
nan

>  <Standardized_SMILES>  (423) 
Cc1cc2c(C(C)C)c(O)c(O)c(/C=N/CCCN3CCOCC3)c2c(O)c1-c1c(C)cc2c(C(C)C)c(O)c(O)c(/C=N/CCCN3CCOCC3)c2c1O

>  <Name>  (423) 
nan

>  <Pocket>  (423) 
nan

>  <ATP_Site>  (423) 
nan

>  <Peripheral>  (423) 
nan

>  <Num_H_Atoms_ProtBoundConf>  (423) 
nan

>  <Num_Resolved_Atoms>  (423) 
nan

>  <Num_Not_Resolved_Atoms>  (423) 
nan

$$$$
CHEMBL371756
     RDKit          3D

  0  0  0  0  0  0  0  0  0  0999 V3000
M  V30 BEGIN CTAB
M  V30 COUNTS 57 61 0 0 0
M  V30 BEGIN ATOM
M  V30 1 C 3.467619 -1.516167 5.485157 0
M  V30 2 O 2.411549 -1.470624 4.556690 0
M  V30 3 C 2.317609 -0.594714 3.492214 0
M  V30 4 C 3.399644 0.270194 3.415093 0
M  V30 5 C 3.472982 1.207240 2.417158 0
M  V30 6 C 2.444468 1.262944 1.499112 0
M  V30 7 C 2.543662 2.258360 0.459317 0
M  V30 8 O 3.527459 3.016271 0.427068 0
M  V30 9 N 1.602504 2.479094 -0.576602 0
M  V30 10 C 1.646726 3.438617 -1.621647 0
M  V30 11 C 0.519095 4.438314 -1.603939 0
M  V30 12 C -0.314185 4.030113 -2.799297 0
M  V30 13 C 0.720403 3.623050 -3.828973 0
M  V30 14 C 1.711552 2.851446 -2.999846 0
M  V30 15 C 1.411633 0.369024 1.650765 0
M  V30 16 C 1.258421 -0.588596 2.604473 0
M  V30 17 C 0.148881 -1.486564 2.775343 0
M  V30 18 N -0.004432 -2.153560 3.931762 0
M  V30 19 N -1.058669 -2.944077 3.889971 0
M  V30 20 C -1.680894 -2.847093 2.676693 0
M  V30 21 N -2.751162 -3.399606 2.077672 0
M  V30 22 C -3.110550 -3.095765 0.818087 0
M  V30 23 N -4.245545 -3.689266 0.200878 0
M  V30 24 C -3.983898 -4.897618 -0.502290 0
M  V30 25 C -4.305563 -4.817077 -1.858577 0
M  V30 26 C -4.115956 -5.897170 -2.690855 0
M  V30 27 C -3.605049 -7.076829 -2.198613 0
M  V30 28 F -3.401055 -8.162110 -2.972724 0
M  V30 29 C -3.283509 -7.157546 -0.843249 0
M  V30 30 C -3.473959 -6.075030 -0.010937 0
M  V30 31 F -3.200186 -6.035217 1.314703 0
M  V30 32 C -2.328310 -2.171247 0.128361 0
M  V30 33 C -1.246387 -1.623190 0.757740 0
M  V30 34 C -0.891417 -1.940033 2.042712 0
M  V30 35 H 3.511253 -0.580591 6.097550 0
M  V30 36 H 4.430167 -1.636175 4.915680 0
M  V30 37 H 3.370119 -2.354427 6.171784 0
M  V30 38 H 4.220737 0.249735 4.120295 0
M  V30 39 H 4.319181 1.875115 2.365811 0
M  V30 40 H 0.747409 1.881780 -0.618151 0
M  V30 41 H 2.590959 4.024246 -1.490771 0
M  V30 42 H -0.031458 4.505883 -0.664149 0
M  V30 43 H 0.870036 5.473701 -1.844135 0
M  V30 44 H -0.951350 4.813236 -3.206941 0
M  V30 45 H -0.933910 3.137609 -2.598043 0
M  V30 46 H 1.174996 4.547914 -4.239642 0
M  V30 47 H 0.272754 3.022697 -4.645809 0
M  V30 48 H 2.707375 3.018149 -3.504743 0
M  V30 49 H 1.556961 1.762918 -3.029486 0
M  V30 50 H 0.676974 0.537752 0.888040 0
M  V30 51 H 0.393785 -2.290390 4.879454 0
M  V30 52 H -5.212987 -3.325824 0.221131 0
M  V30 53 H -4.715048 -3.957983 -2.389656 0
M  V30 54 H -4.344466 -5.902486 -3.753024 0
M  V30 55 H -2.878099 -8.045682 -0.377015 0
M  V30 56 H -2.630182 -1.936049 -0.888250 0
M  V30 57 H -0.686676 -0.940445 0.167741 0
M  V30 END ATOM
M  V30 BEGIN BOND
M  V30 1 1 1 2
M  V30 2 1 2 3
M  V30 3 2 3 4
M  V30 4 1 4 5
M  V30 5 2 5 6
M  V30 6 1 6 7
M  V30 7 2 7 8
M  V30 8 1 7 9
M  V30 9 1 9 10
M  V30 10 1 10 11
M  V30 11 1 11 12
M  V30 12 1 12 13
M  V30 13 1 13 14
M  V30 14 1 6 15
M  V30 15 2 15 16
M  V30 16 1 16 17
M  V30 17 1 17 18
M  V30 18 1 18 19
M  V30 19 2 19 20
M  V30 20 1 20 21
M  V30 21 2 21 22
M  V30 22 1 22 23
M  V30 23 1 23 24
M  V30 24 2 24 25
M  V30 25 1 25 26
M  V30 26 2 26 27
M  V30 27 1 27 28
M  V30 28 1 27 29
M  V30 29 2 29 30
M  V30 30 1 30 31
M  V30 31 1 22 32
M  V30 32 2 32 33
M  V30 33 1 33 34
M  V30 34 1 16 3
M  V30 35 2 34 17
M  V30 36 1 14 10
M  V30 37 1 34 20
M  V30 38 1 30 24
M  V30 39 1 1 35
M  V30 40 1 1 36
M  V30 41 1 1 37
M  V30 42 1 4 38
M  V30 43 1 5 39
M  V30 44 1 9 40
M  V30 45 1 10 41
M  V30 46 1 11 42
M  V30 47 1 11 43
M  V30 48 1 12 44
M  V30 49 1 12 45
M  V30 50 1 13 46
M  V30 51 1 13 47
M  V30 52 1 14 48
M  V30 53 1 14 49
M  V30 54 1 15 50
M  V30 55 1 18 51
M  V30 56 1 23 52
M  V30 57 1 25 53
M  V30 58 1 26 54
M  V30 59 1 29 55
M  V30 60 1 32 56
M  V30 61 1 33 57
M  V30 END BOND
M  V30 END CTAB
M  END
>  <Dataset>  (424) 
ChEMBL_Kinases

>  <Ligand_Instance>  (424) 
nan

>  <PDB_ID>  (424) 
nan

>  <Standardized_SMILES>  (424) 
COc1ccc(C(=O)NC2CCCC2)cc1-c1[nH]nc2nc(Nc3ccc(F)cc3F)ccc12

>  <Name>  (424) 
nan

>  <Pocket>  (424) 
nan

>  <ATP_Site>  (424) 
nan

>  <Peripheral>  (424) 
nan

>  <Num_H_Atoms_ProtBoundConf>  (424) 
nan

>  <Num_Resolved_Atoms>  (424) 
nan

>  <Num_Not_Resolved_Atoms>  (424) 
nan

$$$$
CHEMBL3717552
     RDKit          3D

  0  0  0  0  0  0  0  0  0  0999 V3000
M  V30 BEGIN CTAB
M  V30 COUNTS 53 56 0 0 0
M  V30 BEGIN ATOM
M  V30 1 O -2.784479 -2.971889 3.379699 0
M  V30 2 C -1.837261 -2.484805 2.695841 0
M  V30 3 C -0.600164 -2.615574 3.495396 0
M  V30 4 N 0.568231 -2.069462 2.837636 0
M  V30 5 C 0.687306 -0.697109 2.487395 0
M  V30 6 O -0.259889 0.121794 2.755948 0
M  V30 7 C 1.862118 -0.150369 1.819119 0
M  V30 8 C 2.968503 -0.881877 1.456543 0
M  V30 9 C 4.071487 -0.349531 0.825162 0
M  V30 10 C 4.106116 0.990737 0.522169 0
M  V30 11 C 3.021267 1.771393 0.864121 0
M  V30 12 C 1.942984 1.187169 1.495011 0
M  V30 13 C 3.043195 3.222772 0.543233 0
M  V30 14 C 4.360205 3.783326 1.042904 0
M  V30 15 C 5.529375 2.881229 0.777259 0
M  V30 16 C 5.208745 1.728914 -0.152877 0
M  V30 17 N -2.131446 -1.960924 1.415167 0
M  V30 18 C -3.487225 -1.981263 0.910221 0
M  V30 19 C -3.869203 -0.551009 0.607614 0
M  V30 20 C -4.664347 -0.447571 -0.670699 0
M  V30 21 C -3.834338 -0.973314 -1.808360 0
M  V30 22 C -3.654489 -2.437569 -1.635241 0
M  V30 23 C -3.631413 -3.394854 -2.622033 0
M  V30 24 C -3.456028 -4.728962 -2.329781 0
M  V30 25 C -3.296266 -5.141232 -1.010499 0
M  V30 26 C -3.320527 -4.170892 -0.020321 0
M  V30 27 C -3.498031 -2.829957 -0.328249 0
M  V30 28 H -0.411215 -3.715761 3.668115 0
M  V30 29 H -0.733962 -2.191204 4.515798 0
M  V30 30 H 1.372751 -2.679333 2.596760 0
M  V30 31 H 2.999959 -1.933219 1.666711 0
M  V30 32 H 4.937668 -0.918802 0.540591 0
M  V30 33 H 1.087051 1.824150 1.760268 0
M  V30 34 H 2.198071 3.738269 1.002195 0
M  V30 35 H 3.012825 3.274707 -0.581859 0
M  V30 36 H 4.197717 3.935679 2.150120 0
M  V30 37 H 4.595884 4.775714 0.583466 0
M  V30 38 H 5.798508 2.395506 1.755830 0
M  V30 39 H 6.438855 3.429063 0.462115 0
M  V30 40 H 4.866951 2.124716 -1.148175 0
M  V30 41 H 6.112299 1.122759 -0.249928 0
M  V30 42 H -1.272181 -1.602513 0.950177 0
M  V30 43 H -4.110434 -2.449895 1.695648 0
M  V30 44 H -4.439142 -0.159622 1.472682 0
M  V30 45 H -2.951394 0.089239 0.477283 0
M  V30 46 H -5.591398 -1.028582 -0.545852 0
M  V30 47 H -4.849316 0.635771 -0.840389 0
M  V30 48 H -2.833685 -0.488455 -1.760047 0
M  V30 49 H -4.322939 -0.806091 -2.778818 0
M  V30 50 H -3.763236 -3.000795 -3.639638 0
M  V30 51 H -3.446879 -5.437976 -3.153343 0
M  V30 52 H -3.163497 -6.198608 -0.851530 0
M  V30 53 H -3.187615 -4.597866 0.967046 0
M  V30 END ATOM
M  V30 BEGIN BOND
M  V30 1 2 1 2
M  V30 2 1 2 3
M  V30 3 1 3 4
M  V30 4 1 4 5
M  V30 5 2 5 6
M  V30 6 1 5 7
M  V30 7 2 7 8
M  V30 8 1 8 9
M  V30 9 2 9 10
M  V30 10 1 10 11
M  V30 11 2 11 12
M  V30 12 1 11 13
M  V30 13 1 13 14
M  V30 14 1 14 15
M  V30 15 1 15 16
M  V30 16 1 2 17
M  V30 17 1 17 18
M  V30 18 1 18 19
M  V30 19 1 19 20
M  V30 20 1 20 21
M  V30 21 1 21 22
M  V30 22 2 22 23
M  V30 23 1 23 24
M  V30 24 2 24 25
M  V30 25 1 25 26
M  V30 26 2 26 27
M  V30 27 1 12 7
M  V30 28 1 27 18
M  V30 29 1 16 10
M  V30 30 1 27 22
M  V30 31 1 3 28
M  V30 32 1 3 29
M  V30 33 1 4 30
M  V30 34 1 8 31
M  V30 35 1 9 32
M  V30 36 1 12 33
M  V30 37 1 13 34
M  V30 38 1 13 35
M  V30 39 1 14 36
M  V30 40 1 14 37
M  V30 41 1 15 38
M  V30 42 1 15 39
M  V30 43 1 16 40
M  V30 44 1 16 41
M  V30 45 1 17 42
M  V30 46 1 18 43
M  V30 47 1 19 44
M  V30 48 1 19 45
M  V30 49 1 20 46
M  V30 50 1 20 47
M  V30 51 1 21 48
M  V30 52 1 21 49
M  V30 53 1 23 50
M  V30 54 1 24 51
M  V30 55 1 25 52
M  V30 56 1 26 53
M  V30 END BOND
M  V30 END CTAB
M  END
>  <Dataset>  (425) 
ChEMBL_Kinases

>  <Ligand_Instance>  (425) 
nan

>  <PDB_ID>  (425) 
nan

>  <Standardized_SMILES>  (425) 
O=C(CNC(=O)c1ccc2c(c1)CCCC2)NC1CCCc2ccccc21

>  <Name>  (425) 
nan

>  <Pocket>  (425) 
nan

>  <ATP_Site>  (425) 
nan

>  <Peripheral>  (425) 
nan

>  <Num_H_Atoms_ProtBoundConf>  (425) 
nan

>  <Num_Resolved_Atoms>  (425) 
nan

>  <Num_Not_Resolved_Atoms>  (425) 
nan

$$$$
CHEMBL3717547
     RDKit          3D

  0  0  0  0  0  0  0  0  0  0999 V3000
M  V30 BEGIN CTAB
M  V30 COUNTS 40 42 0 0 0
M  V30 BEGIN ATOM
M  V30 1 C 2.061781 -4.822456 3.003001 0
M  V30 2 C 2.443396 -4.360197 1.618162 0
M  V30 3 C 3.650200 -4.550098 0.984405 0
M  V30 4 C 3.844725 -4.074400 -0.288847 0
M  V30 5 C 2.837372 -3.403546 -0.945562 0
M  V30 6 C 1.622357 -3.179927 -0.382557 0
M  V30 7 N 0.516185 -2.479080 -1.000935 0
M  V30 8 C 0.678412 -1.037687 -0.993336 0
M  V30 9 N 1.685896 -0.403293 -1.502193 0
M  V30 10 C 1.645926 0.978878 -1.378958 0
M  V30 11 O 2.623569 1.638419 -1.876349 0
M  V30 12 C 0.489193 1.562590 -0.690630 0
M  V30 13 C 0.299231 2.808111 -0.402254 0
M  V30 14 C -0.913897 3.208424 0.290554 0
M  V30 15 C -0.679522 4.164401 1.255458 0
M  V30 16 C -1.744586 4.641065 2.015438 0
M  V30 17 C -3.029110 4.150959 1.793679 0
M  V30 18 O -4.115243 4.625798 2.556318 0
M  V30 19 C -3.176605 3.182618 0.793860 0
M  V30 20 O -4.508282 2.759052 0.652106 0
M  V30 21 C -2.143376 2.692721 0.028605 0
M  V30 22 S -0.545873 0.146915 -0.340124 0
M  V30 23 C 1.467415 -3.683401 0.920176 0
M  V30 24 C 0.120996 -3.452032 1.556356 0
M  V30 25 H 1.990803 -4.004901 3.723144 0
M  V30 26 H 1.042558 -5.309840 2.951302 0
M  V30 27 H 2.760529 -5.585780 3.393789 0
M  V30 28 H 4.392613 -5.094373 1.582893 0
M  V30 29 H 4.803322 -4.238962 -0.756738 0
M  V30 30 H 2.980251 -3.025907 -1.942424 0
M  V30 31 H -0.389094 -2.818739 -1.448514 0
M  V30 32 H 1.071698 3.549779 -0.676721 0
M  V30 33 H 0.237917 4.633074 1.537418 0
M  V30 34 H -1.662994 5.401558 2.806010 0
M  V30 35 H -4.522743 3.970210 3.241740 0
M  V30 36 H -4.730496 1.865231 1.111739 0
M  V30 37 H -2.314632 1.951495 -0.727408 0
M  V30 38 H -0.376552 -2.580155 1.110879 0
M  V30 39 H 0.287176 -3.302308 2.647094 0
M  V30 40 H -0.497039 -4.372660 1.485248 0
M  V30 END ATOM
M  V30 BEGIN BOND
M  V30 1 1 1 2
M  V30 2 2 2 3
M  V30 3 1 3 4
M  V30 4 2 4 5
M  V30 5 1 5 6
M  V30 6 1 6 7
M  V30 7 1 7 8
M  V30 8 2 8 9
M  V30 9 1 9 10
M  V30 10 2 10 11
M  V30 11 1 10 12
M  V30 12 2 12 13
M  V30 13 1 13 14
M  V30 14 2 14 15
M  V30 15 1 15 16
M  V30 16 2 16 17
M  V30 17 1 17 18
M  V30 18 1 17 19
M  V30 19 1 19 20
M  V30 20 2 19 21
M  V30 21 1 12 22
M  V30 22 2 6 23
M  V30 23 1 23 24
M  V30 24 1 23 2
M  V30 25 1 22 8
M  V30 26 1 21 14
M  V30 27 1 1 25
M  V30 28 1 1 26
M  V30 29 1 1 27
M  V30 30 1 3 28
M  V30 31 1 4 29
M  V30 32 1 5 30
M  V30 33 1 7 31
M  V30 34 1 13 32
M  V30 35 1 15 33
M  V30 36 1 16 34
M  V30 37 1 18 35
M  V30 38 1 20 36
M  V30 39 1 21 37
M  V30 40 1 24 38
M  V30 41 1 24 39
M  V30 42 1 24 40
M  V30 END BOND
M  V30 END CTAB
M  END
>  <Dataset>  (426) 
ChEMBL_Kinases

>  <Ligand_Instance>  (426) 
nan

>  <PDB_ID>  (426) 
nan

>  <Standardized_SMILES>  (426) 
Cc1cccc(NC2=NC(=O)/C(=C/c3ccc(O)c(O)c3)S2)c1C

>  <Name>  (426) 
nan

>  <Pocket>  (426) 
nan

>  <ATP_Site>  (426) 
nan

>  <Peripheral>  (426) 
nan

>  <Num_H_Atoms_ProtBoundConf>  (426) 
nan

>  <Num_Resolved_Atoms>  (426) 
nan

>  <Num_Not_Resolved_Atoms>  (426) 
nan

$$$$
CHEMBL3717532
     RDKit          3D

  0  0  0  0  0  0  0  0  0  0999 V3000
M  V30 BEGIN CTAB
M  V30 COUNTS 54 58 0 0 0
M  V30 BEGIN ATOM
M  V30 1 N 3.361774 -3.848681 3.124294 0
M  V30 2 C 4.698493 -3.568374 3.604820 0 CFG=2
M  V30 3 C 4.689326 -2.363545 4.538365 0
M  V30 4 C 5.450519 -1.283593 3.765583 0
M  V30 5 N 5.137166 -1.679938 2.383205 0
M  V30 6 C 4.587240 -1.008597 1.298010 0
M  V30 7 C 5.110871 -0.280038 0.305581 0
M  V30 8 C 4.377736 0.302601 -0.680289 0
M  V30 9 C 3.026366 0.081673 -0.578446 0
M  V30 10 C 1.818272 0.483467 -1.374100 0
M  V30 11 N 1.976484 1.235659 -2.450501 0
M  V30 12 C 0.739715 1.458362 -2.986849 0
M  V30 13 N 0.243306 2.132141 -4.058467 0
M  V30 14 C -1.083334 2.125224 -4.272626 0
M  V30 15 C -2.016786 1.481260 -3.486426 0
M  V30 16 C -1.519758 0.795000 -2.396342 0
M  V30 17 C -2.392618 0.068446 -1.477993 0
M  V30 18 O -2.024769 -0.959722 -0.893095 0
M  V30 19 N -3.741373 0.475176 -1.172965 0
M  V30 20 C -4.569941 -0.257208 -0.269339 0 CFG=1
M  V30 21 C -4.990670 0.521393 0.956515 0
M  V30 22 C -5.619169 -0.476003 1.916607 0
M  V30 23 C -6.768806 -1.160038 1.230939 0
M  V30 24 N -6.265743 -1.877025 0.073262 0
M  V30 25 C -5.805021 -0.856849 -0.882646 0
M  V30 26 C -0.146308 0.779170 -2.140999 0
M  V30 27 N 0.550133 0.187204 -1.154763 0
M  V30 28 S 2.794819 -0.953984 0.917776 0
M  V30 29 C 5.589465 -3.078972 2.453856 0
M  V30 30 H 3.127536 -4.870258 3.116996 0
M  V30 31 H 2.620191 -3.362780 3.697598 0
M  V30 32 H 5.111638 -4.477795 4.071449 0
M  V30 33 H 3.667326 -2.048338 4.811753 0
M  V30 34 H 5.229811 -2.551725 5.475016 0
M  V30 35 H 6.545055 -1.388989 3.949170 0
M  V30 36 H 5.075038 -0.274279 3.989827 0
M  V30 37 H 6.207058 -0.156698 0.306541 0
M  V30 38 H 4.727293 0.899729 -1.507107 0
M  V30 39 H -1.456422 2.670265 -5.134723 0
M  V30 40 H -3.077545 1.503286 -3.697467 0
M  V30 41 H -4.105289 1.343407 -1.644025 0
M  V30 42 H -3.982632 -1.138622 0.116962 0
M  V30 43 H -4.073245 0.907452 1.477767 0
M  V30 44 H -5.693154 1.334441 0.716304 0
M  V30 45 H -6.005693 0.082708 2.778806 0
M  V30 46 H -4.857585 -1.222189 2.179992 0
M  V30 47 H -7.295464 -1.833652 1.933637 0
M  V30 48 H -7.523311 -0.406031 0.908714 0
M  V30 49 H -5.430218 -2.424551 0.413486 0
M  V30 50 H -6.602155 -0.090929 -0.873283 0
M  V30 51 H -5.636824 -1.294993 -1.883213 0
M  V30 52 H 0.198674 -0.398908 -0.354975 0
M  V30 53 H 5.267596 -3.648460 1.561404 0
M  V30 54 H 6.645895 -3.149753 2.705102 0
M  V30 END ATOM
M  V30 BEGIN BOND
M  V30 1 1 1 2
M  V30 2 1 2 3
M  V30 3 1 3 4
M  V30 4 1 4 5
M  V30 5 1 5 6
M  V30 6 2 6 7
M  V30 7 1 7 8
M  V30 8 2 8 9
M  V30 9 1 9 10
M  V30 10 2 10 11
M  V30 11 1 11 12
M  V30 12 2 12 13
M  V30 13 1 13 14
M  V30 14 2 14 15
M  V30 15 1 15 16
M  V30 16 1 16 17
M  V30 17 2 17 18
M  V30 18 1 17 19
M  V30 19 1 19 20
M  V30 20 1 20 21
M  V30 21 1 21 22
M  V30 22 1 22 23
M  V30 23 1 23 24
M  V30 24 1 24 25
M  V30 25 2 16 26
M  V30 26 1 26 27
M  V30 27 1 9 28
M  V30 28 1 5 29
M  V30 29 1 29 2
M  V30 30 1 28 6
M  V30 31 1 27 10
M  V30 32 1 26 12
M  V30 33 1 25 20
M  V30 34 1 1 30
M  V30 35 1 1 31
M  V30 36 1 2 32 CFG=1
M  V30 37 1 3 33
M  V30 38 1 3 34
M  V30 39 1 4 35
M  V30 40 1 4 36
M  V30 41 1 7 37
M  V30 42 1 8 38
M  V30 43 1 14 39
M  V30 44 1 15 40
M  V30 45 1 19 41
M  V30 46 1 20 42 CFG=1
M  V30 47 1 21 43
M  V30 48 1 21 44
M  V30 49 1 22 45
M  V30 50 1 22 46
M  V30 51 1 23 47
M  V30 52 1 23 48
M  V30 53 1 24 49
M  V30 54 1 25 50
M  V30 55 1 25 51
M  V30 56 1 27 52
M  V30 57 1 29 53
M  V30 58 1 29 54
M  V30 END BOND
M  V30 END CTAB
M  END
>  <Dataset>  (427) 
ChEMBL_Kinases

>  <Ligand_Instance>  (427) 
nan

>  <PDB_ID>  (427) 
nan

>  <Standardized_SMILES>  (427) 
N[C@@H]1CCN(c2ccc(-c3nc4nccc(C(=O)N[C@H]5CCCNC5)c4[nH]3)s2)C1

>  <Name>  (427) 
nan

>  <Pocket>  (427) 
nan

>  <ATP_Site>  (427) 
nan

>  <Peripheral>  (427) 
nan

>  <Num_H_Atoms_ProtBoundConf>  (427) 
nan

>  <Num_Resolved_Atoms>  (427) 
nan

>  <Num_Not_Resolved_Atoms>  (427) 
nan

$$$$
CHEMBL3717496
     RDKit          3D

  0  0  0  0  0  0  0  0  0  0999 V3000
M  V30 BEGIN CTAB
M  V30 COUNTS 30 31 0 0 0
M  V30 BEGIN ATOM
M  V30 1 C -2.571786 -2.161649 2.897704 0
M  V30 2 O -1.680726 -3.271060 2.871129 0
M  V30 3 C -0.566954 -3.239865 2.043846 0
M  V30 4 C 0.338290 -4.277519 1.966838 0
M  V30 5 C 1.457960 -4.293674 1.162061 0
M  V30 6 C 1.708137 -3.186694 0.360392 0
M  V30 7 O 2.783132 -3.060264 -0.491915 0
M  V30 8 C 0.825331 -2.126721 0.408613 0
M  V30 9 C 1.002563 -0.919571 -0.395485 0
M  V30 10 N 2.007063 -0.675149 -1.259451 0
M  V30 11 N 1.865775 0.521999 -1.827541 0
M  V30 12 C 0.745901 1.083269 -1.331478 0
M  V30 13 S 0.063286 2.691433 -1.735951 0
M  V30 14 C 0.800490 3.885080 -0.564905 0
M  V30 15 C 0.345262 3.610598 0.822319 0
M  V30 16 O 0.821015 4.403391 1.693886 0
M  V30 17 O -0.417069 2.830662 1.676539 0
M  V30 18 N 0.227100 0.203309 -0.463079 0
M  V30 19 C -0.291599 -2.148210 1.232657 0
M  V30 20 H -2.030673 -1.212784 3.100455 0
M  V30 21 H -3.099147 -2.041286 1.945705 0
M  V30 22 H -3.331397 -2.401709 3.656652 0
M  V30 23 H 0.192065 -5.168641 2.570913 0
M  V30 24 H 2.156075 -5.117219 1.116553 0
M  V30 25 H 3.106784 -3.837600 -1.063567 0
M  V30 26 H 1.899625 3.860051 -0.571849 0
M  V30 27 H 0.513486 4.926083 -0.832826 0
M  V30 28 H -0.045418 2.087857 2.235114 0
M  V30 29 H -0.629967 0.337711 0.081975 0
M  V30 30 H -0.991730 -1.318973 1.277603 0
M  V30 END ATOM
M  V30 BEGIN BOND
M  V30 1 1 1 2
M  V30 2 1 2 3
M  V30 3 2 3 4
M  V30 4 1 4 5
M  V30 5 2 5 6
M  V30 6 1 6 7
M  V30 7 1 6 8
M  V30 8 1 8 9
M  V30 9 2 9 10
M  V30 10 1 10 11
M  V30 11 2 11 12
M  V30 12 1 12 13
M  V30 13 1 13 14
M  V30 14 1 14 15
M  V30 15 2 15 16
M  V30 16 1 15 17
M  V30 17 1 12 18
M  V30 18 2 8 19
M  V30 19 1 19 3
M  V30 20 1 18 9
M  V30 21 1 1 20
M  V30 22 1 1 21
M  V30 23 1 1 22
M  V30 24 1 4 23
M  V30 25 1 5 24
M  V30 26 1 7 25
M  V30 27 1 14 26
M  V30 28 1 14 27
M  V30 29 1 17 28
M  V30 30 1 18 29
M  V30 31 1 19 30
M  V30 END BOND
M  V30 END CTAB
M  END
>  <Dataset>  (428) 
ChEMBL_Kinases

>  <Ligand_Instance>  (428) 
nan

>  <PDB_ID>  (428) 
nan

>  <Standardized_SMILES>  (428) 
COc1ccc(O)c(-c2nnc(SCC(=O)O)[nH]2)c1

>  <Name>  (428) 
nan

>  <Pocket>  (428) 
nan

>  <ATP_Site>  (428) 
nan

>  <Peripheral>  (428) 
nan

>  <Num_H_Atoms_ProtBoundConf>  (428) 
nan

>  <Num_Resolved_Atoms>  (428) 
nan

>  <Num_Not_Resolved_Atoms>  (428) 
nan

$$$$
CHEMBL3715045
     RDKit          3D

  0  0  0  0  0  0  0  0  0  0999 V3000
M  V30 BEGIN CTAB
M  V30 COUNTS 34 35 0 0 0
M  V30 BEGIN ATOM
M  V30 1 C -0.324197 -3.366237 4.704931 0
M  V30 2 O -1.415267 -2.920881 3.952559 0
M  V30 3 C -1.234478 -2.208004 2.792230 0
M  V30 4 C 0.042759 -1.921520 2.354023 0
M  V30 5 C 0.174064 -1.205283 1.187296 0
M  V30 6 C 1.506878 -0.871874 0.671993 0
M  V30 7 N 2.693941 -1.198108 1.213598 0
M  V30 8 N 3.678143 -0.719682 0.455518 0
M  V30 9 C 3.154834 -0.069955 -0.598491 0
M  V30 10 S 3.988749 0.776680 -1.944908 0
M  V30 11 C 2.674932 1.482237 -3.015168 0
M  V30 12 C 1.970525 2.552372 -2.243178 0
M  V30 13 O 1.021242 3.192876 -2.773814 0
M  V30 14 O 2.317250 2.884306 -0.939375 0
M  V30 15 N 1.821677 -0.172721 -0.450932 0
M  V30 16 C -0.912633 -0.773748 0.457005 0
M  V30 17 C -2.196740 -1.053404 0.883948 0
M  V30 18 O -3.359031 -0.670503 0.232685 0
M  V30 19 C -3.380627 0.065186 -0.967458 0
M  V30 20 C -2.314367 -1.771926 2.054549 0
M  V30 21 O -3.573686 -2.084961 2.535167 0
M  V30 22 H -0.656733 -3.708558 5.710133 0
M  V30 23 H 0.213427 -4.187505 4.188906 0
M  V30 24 H 0.413821 -2.528538 4.825021 0
M  V30 25 H 0.939670 -2.226003 2.872439 0
M  V30 26 H 1.923897 0.668339 -3.139725 0
M  V30 27 H 3.059105 1.819743 -3.976609 0
M  V30 28 H 1.723959 3.386625 -0.288947 0
M  V30 29 H 1.064746 0.204133 -1.075956 0
M  V30 30 H -0.836543 -0.207461 -0.463816 0
M  V30 31 H -4.323535 -0.150360 -1.521989 0
M  V30 32 H -3.309551 1.154686 -0.830605 0
M  V30 33 H -2.512632 -0.228734 -1.624549 0
M  V30 34 H -4.035206 -1.484702 3.221760 0
M  V30 END ATOM
M  V30 BEGIN BOND
M  V30 1 1 1 2
M  V30 2 1 2 3
M  V30 3 2 3 4
M  V30 4 1 4 5
M  V30 5 1 5 6
M  V30 6 2 6 7
M  V30 7 1 7 8
M  V30 8 2 8 9
M  V30 9 1 9 10
M  V30 10 1 10 11
M  V30 11 1 11 12
M  V30 12 2 12 13
M  V30 13 1 12 14
M  V30 14 1 9 15
M  V30 15 2 5 16
M  V30 16 1 16 17
M  V30 17 1 17 18
M  V30 18 1 18 19
M  V30 19 2 17 20
M  V30 20 1 20 21
M  V30 21 1 20 3
M  V30 22 1 15 6
M  V30 23 1 1 22
M  V30 24 1 1 23
M  V30 25 1 1 24
M  V30 26 1 4 25
M  V30 27 1 11 26
M  V30 28 1 11 27
M  V30 29 1 14 28
M  V30 30 1 15 29
M  V30 31 1 16 30
M  V30 32 1 19 31
M  V30 33 1 19 32
M  V30 34 1 19 33
M  V30 35 1 21 34
M  V30 END BOND
M  V30 END CTAB
M  END
>  <Dataset>  (429) 
ChEMBL_Kinases

>  <Ligand_Instance>  (429) 
nan

>  <PDB_ID>  (429) 
nan

>  <Standardized_SMILES>  (429) 
COc1cc(-c2nnc(SCC(=O)O)[nH]2)cc(OC)c1O

>  <Name>  (429) 
nan

>  <Pocket>  (429) 
nan

>  <ATP_Site>  (429) 
nan

>  <Peripheral>  (429) 
nan

>  <Num_H_Atoms_ProtBoundConf>  (429) 
nan

>  <Num_Resolved_Atoms>  (429) 
nan

>  <Num_Not_Resolved_Atoms>  (429) 
nan

$$$$
CHEMBL3717477
     RDKit          3D

  0  0  0  0  0  0  0  0  0  0999 V3000
M  V30 BEGIN CTAB
M  V30 COUNTS 29 30 0 0 0
M  V30 BEGIN ATOM
M  V30 1 C -1.619477 -1.470943 3.479200 0
M  V30 2 S -0.767636 -0.976231 1.964432 0
M  V30 3 C 0.404776 -2.231401 1.526082 0
M  V30 4 C 0.489765 -3.330658 2.352661 0
M  V30 5 C 1.377764 -4.346893 2.077406 0
M  V30 6 C 2.161585 -4.212159 0.956501 0
M  V30 7 C 2.051755 -3.103762 0.153694 0
M  V30 8 C 1.173649 -2.067889 0.399478 0
M  V30 9 C 1.139841 -0.944650 -0.514339 0
M  V30 10 N 1.926291 -0.857147 -1.601795 0
M  V30 11 N 1.701078 0.260118 -2.265545 0
M  V30 12 C 0.746344 0.954869 -1.629534 0
M  V30 13 S 0.093424 2.533737 -2.136374 0
M  V30 14 C -1.173537 3.089186 -0.960562 0
M  V30 15 C -0.498376 3.361621 0.332357 0
M  V30 16 O 0.653961 3.051640 -0.113661 0
M  V30 17 O -0.334554 3.724285 1.661399 0
M  V30 18 N 0.436455 0.189185 -0.576589 0
M  V30 19 H -2.276559 -0.666262 3.834143 0
M  V30 20 H -2.226061 -2.376283 3.360108 0
M  V30 21 H -0.845388 -1.699211 4.249668 0
M  V30 22 H -0.123477 -3.436969 3.230632 0
M  V30 23 H 1.505884 -5.238361 2.671210 0
M  V30 24 H 2.867758 -4.991086 0.712749 0
M  V30 25 H 2.719429 -3.084608 -0.719772 0
M  V30 26 H -1.708289 3.984138 -1.332549 0
M  V30 27 H -1.968199 2.308595 -0.859973 0
M  V30 28 H 0.100689 3.041614 2.295880 0
M  V30 29 H -0.285998 0.483125 0.101789 0
M  V30 END ATOM
M  V30 BEGIN BOND
M  V30 1 1 1 2
M  V30 2 1 2 3
M  V30 3 2 3 4
M  V30 4 1 4 5
M  V30 5 2 5 6
M  V30 6 1 6 7
M  V30 7 2 7 8
M  V30 8 1 8 9
M  V30 9 2 9 10
M  V30 10 1 10 11
M  V30 11 2 11 12
M  V30 12 1 12 13
M  V30 13 1 13 14
M  V30 14 1 14 15
M  V30 15 2 15 16
M  V30 16 1 15 17
M  V30 17 1 12 18
M  V30 18 1 8 3
M  V30 19 1 18 9
M  V30 20 1 1 19
M  V30 21 1 1 20
M  V30 22 1 1 21
M  V30 23 1 4 22
M  V30 24 1 5 23
M  V30 25 1 6 24
M  V30 26 1 7 25
M  V30 27 1 14 26
M  V30 28 1 14 27
M  V30 29 1 17 28
M  V30 30 1 18 29
M  V30 END BOND
M  V30 END CTAB
M  END
>  <Dataset>  (430) 
ChEMBL_Kinases

>  <Ligand_Instance>  (430) 
nan

>  <PDB_ID>  (430) 
nan

>  <Standardized_SMILES>  (430) 
CSc1ccccc1-c1nnc(SCC(=O)O)[nH]1

>  <Name>  (430) 
nan

>  <Pocket>  (430) 
nan

>  <ATP_Site>  (430) 
nan

>  <Peripheral>  (430) 
nan

>  <Num_H_Atoms_ProtBoundConf>  (430) 
nan

>  <Num_Resolved_Atoms>  (430) 
nan

>  <Num_Not_Resolved_Atoms>  (430) 
nan

$$$$
CHEMBL3717470
     RDKit          3D

  0  0  0  0  0  0  0  0  0  0999 V3000
M  V30 BEGIN CTAB
M  V30 COUNTS 50 54 0 0 0
M  V30 BEGIN ATOM
M  V30 1 O 1.008555 -1.132324 -0.387177 0
M  V30 2 C 2.022576 -0.375076 -0.256279 0
M  V30 3 N 3.295071 -0.926651 -0.010001 0
M  V30 4 C 3.281773 -2.342923 0.063580 0 CFG=1
M  V30 5 C 3.718303 -3.002701 -1.246188 0
M  V30 6 C 3.387351 -4.478547 -1.080345 0
M  V30 7 C 3.232069 -4.902318 0.348959 0
M  V30 8 N 4.250617 -4.305054 1.159840 0
M  V30 9 C 4.242788 -2.848288 1.100538 0
M  V30 10 C 1.422589 0.969040 -0.428902 0
M  V30 11 C 2.055914 1.801270 -1.305700 0
M  V30 12 C 1.475372 3.054732 -1.466511 0
M  V30 13 N 0.367264 3.412161 -0.799071 0
M  V30 14 C -0.274380 2.618316 0.064515 0
M  V30 15 N -1.360954 2.621875 0.869378 0
M  V30 16 C -1.442297 1.444751 1.485217 0
M  V30 17 C -2.491555 1.011858 2.437815 0
M  V30 18 C -2.787485 -0.472432 2.142064 0
M  V30 19 C -4.226643 -0.410714 1.766389 0
M  V30 20 C -4.342541 0.374367 0.472854 0
M  V30 21 C -4.236837 1.847307 0.897959 0
M  V30 22 C -3.787960 1.730620 2.316974 0
M  V30 23 C -4.745254 0.605523 2.769101 0
M  V30 24 N -0.427861 0.622051 1.122609 0
M  V30 25 C 0.282319 1.361978 0.244528 0
M  V30 26 H 3.943674 -0.121235 0.061616 0
M  V30 27 H 2.280508 -2.773693 0.244485 0
M  V30 28 H 4.797548 -2.804517 -1.364149 0
M  V30 29 H 3.178543 -2.645750 -2.123654 0
M  V30 30 H 4.133839 -5.076079 -1.606116 0
M  V30 31 H 2.391595 -4.712621 -1.572425 0
M  V30 32 H 3.420074 -6.005632 0.370189 0
M  V30 33 H 2.202077 -4.740412 0.738500 0
M  V30 34 H 4.213834 -4.638119 2.144073 0
M  V30 35 H 4.100023 -2.418453 2.101491 0
M  V30 36 H 5.291617 -2.558972 0.788726 0
M  V30 37 H 2.952736 1.572870 -1.877920 0
M  V30 38 H 1.892518 3.790934 -2.130100 0
M  V30 39 H -2.124194 1.009030 3.496072 0
M  V30 40 H -2.208935 -0.825736 1.255473 0
M  V30 41 H -2.587969 -1.116781 3.006604 0
M  V30 42 H -4.787891 -1.341112 1.765938 0
M  V30 43 H -5.263065 0.167919 -0.078731 0
M  V30 44 H -3.495932 0.194780 -0.221773 0
M  V30 45 H -3.616941 2.441220 0.229456 0
M  V30 46 H -5.289305 2.259215 0.941074 0
M  V30 47 H -3.899902 2.635750 2.914903 0
M  V30 48 H -4.526547 0.279180 3.794673 0
M  V30 49 H -5.790569 0.876354 2.569601 0
M  V30 50 H -0.224605 -0.368401 1.439113 0
M  V30 END ATOM
M  V30 BEGIN BOND
M  V30 1 2 1 2
M  V30 2 1 2 3
M  V30 3 1 3 4
M  V30 4 1 4 5
M  V30 5 1 5 6
M  V30 6 1 6 7
M  V30 7 1 7 8
M  V30 8 1 8 9
M  V30 9 1 2 10
M  V30 10 1 10 11
M  V30 11 2 11 12
M  V30 12 1 12 13
M  V30 13 2 13 14
M  V30 14 1 14 15
M  V30 15 2 15 16
M  V30 16 1 16 17
M  V30 17 1 17 18
M  V30 18 1 18 19
M  V30 19 1 19 20
M  V30 20 1 20 21
M  V30 21 1 21 22
M  V30 22 1 22 23
M  V30 23 1 16 24
M  V30 24 1 24 25
M  V30 25 1 9 4
M  V30 26 2 25 10
M  V30 27 1 25 14
M  V30 28 1 22 17
M  V30 29 1 23 19
M  V30 30 1 3 26
M  V30 31 1 4 27 CFG=1
M  V30 32 1 5 28
M  V30 33 1 5 29
M  V30 34 1 6 30
M  V30 35 1 6 31
M  V30 36 1 7 32
M  V30 37 1 7 33
M  V30 38 1 8 34
M  V30 39 1 9 35
M  V30 40 1 9 36
M  V30 41 1 11 37
M  V30 42 1 12 38
M  V30 43 1 17 39
M  V30 44 1 18 40
M  V30 45 1 18 41
M  V30 46 1 19 42
M  V30 47 1 20 43
M  V30 48 1 20 44
M  V30 49 1 21 45
M  V30 50 1 21 46
M  V30 51 1 22 47
M  V30 52 1 23 48
M  V30 53 1 23 49
M  V30 54 1 24 50
M  V30 END BOND
M  V30 END CTAB
M  END
>  <Dataset>  (431) 
ChEMBL_Kinases

>  <Ligand_Instance>  (431) 
nan

>  <PDB_ID>  (431) 
nan

>  <Standardized_SMILES>  (431) 
O=C(N[C@H]1CCCNC1)c1ccnc2nc(C3CC4CCC3C4)[nH]c12

>  <Name>  (431) 
nan

>  <Pocket>  (431) 
nan

>  <ATP_Site>  (431) 
nan

>  <Peripheral>  (431) 
nan

>  <Num_H_Atoms_ProtBoundConf>  (431) 
nan

>  <Num_Resolved_Atoms>  (431) 
nan

>  <Num_Not_Resolved_Atoms>  (431) 
nan

$$$$
CHEMBL567363
     RDKit          3D

  0  0  0  0  0  0  0  0  0  0999 V3000
M  V30 BEGIN CTAB
M  V30 COUNTS 49 52 0 0 0
M  V30 BEGIN ATOM
M  V30 1 C 4.906813 -3.664092 5.868062 0
M  V30 2 O 4.779400 -3.216544 4.543434 0
M  V30 3 C 3.661389 -2.514387 4.120227 0
M  V30 4 C 2.585850 -2.187613 4.923169 0
M  V30 5 C 1.486427 -1.487651 4.474039 0
M  V30 6 C 1.499890 -1.112037 3.146302 0
M  V30 7 C 2.519363 -1.389243 2.272699 0
M  V30 8 C 2.545407 -0.997789 0.869364 0
M  V30 9 C 1.601398 -0.328081 0.240604 0
M  V30 10 C 1.624562 0.061935 -1.151975 0
M  V30 11 C 2.668639 -0.215739 -2.004334 0
M  V30 12 N 2.638102 0.185242 -3.287404 0
M  V30 13 C 1.626050 0.870546 -3.846689 0
M  V30 14 C 0.569088 1.157186 -3.003721 0
M  V30 15 C -0.522853 1.892805 -3.593462 0
M  V30 16 N -1.413644 2.483024 -4.052525 0
M  V30 17 C 0.556328 0.762440 -1.669136 0
M  V30 18 N -0.617646 1.122272 -0.962064 0
M  V30 19 C -1.983750 0.796372 -0.744218 0
M  V30 20 C -2.774121 1.902499 -1.081937 0
M  V30 21 C -4.167390 1.843972 -0.964586 0
M  V30 22 C -4.669889 0.635351 -0.500849 0
M  V30 23 N -5.952377 0.278100 -0.285054 0
M  V30 24 C -6.023545 -1.000544 0.173584 0
M  V30 25 C -4.730072 -1.503440 0.262195 0
M  V30 26 C -3.924719 -0.469623 -0.160490 0
M  V30 27 C -2.561950 -0.365439 -0.292126 0
M  V30 28 C -1.636875 -1.459920 0.020412 0
M  V30 29 C 3.574486 -2.092001 2.811146 0
M  V30 30 H 3.933455 -4.019674 6.260482 0
M  V30 31 H 5.614834 -4.520203 5.853565 0
M  V30 32 H 5.274495 -2.836797 6.542176 0
M  V30 33 H 2.610366 -2.498459 5.958831 0
M  V30 34 H 0.651168 -1.241109 5.123580 0
M  V30 35 H 0.637650 -0.566097 2.806154 0
M  V30 36 H 3.409313 -1.273659 0.277259 0
M  V30 37 H 0.755551 -0.063272 0.858718 0
M  V30 38 H 3.529013 -0.755317 -1.672644 0
M  V30 39 H 1.664661 1.163612 -4.887466 0
M  V30 40 H -0.216284 1.951852 -0.429364 0
M  V30 41 H -2.441100 2.869609 -1.448188 0
M  V30 42 H -4.827974 2.661736 -1.208905 0
M  V30 43 H -6.834790 0.846429 -0.425334 0
M  V30 44 H -6.902820 -1.566985 0.435608 0
M  V30 45 H -4.351856 -2.468586 0.578398 0
M  V30 46 H -1.191595 -1.417853 1.034195 0
M  V30 47 H -2.187930 -2.450512 0.009052 0
M  V30 48 H -0.815218 -1.567718 -0.704423 0
M  V30 49 H 4.417603 -2.342049 2.159236 0
M  V30 END ATOM
M  V30 BEGIN BOND
M  V30 1 1 1 2
M  V30 2 1 2 3
M  V30 3 2 3 4
M  V30 4 1 4 5
M  V30 5 2 5 6
M  V30 6 1 6 7
M  V30 7 1 7 8
M  V30 8 2 8 9
M  V30 9 1 9 10
M  V30 10 2 10 11
M  V30 11 1 11 12
M  V30 12 2 12 13
M  V30 13 1 13 14
M  V30 14 1 14 15
M  V30 15 3 15 16
M  V30 16 2 14 17
M  V30 17 1 17 18
M  V30 18 1 18 19
M  V30 19 2 19 20
M  V30 20 1 20 21
M  V30 21 2 21 22
M  V30 22 1 22 23
M  V30 23 1 23 24
M  V30 24 2 24 25
M  V30 25 1 25 26
M  V30 26 2 26 27
M  V30 27 1 27 28
M  V30 28 2 7 29
M  V30 29 1 29 3
M  V30 30 1 17 10
M  V30 31 1 27 19
M  V30 32 1 26 22
M  V30 33 1 1 30
M  V30 34 1 1 31
M  V30 35 1 1 32
M  V30 36 1 4 33
M  V30 37 1 5 34
M  V30 38 1 6 35
M  V30 39 1 8 36
M  V30 40 1 9 37
M  V30 41 1 11 38
M  V30 42 1 13 39
M  V30 43 1 18 40
M  V30 44 1 20 41
M  V30 45 1 21 42
M  V30 46 1 23 43
M  V30 47 1 24 44
M  V30 48 1 25 45
M  V30 49 1 28 46
M  V30 50 1 28 47
M  V30 51 1 28 48
M  V30 52 1 29 49
M  V30 END BOND
M  V30 END CTAB
M  END
>  <Dataset>  (432) 
ChEMBL_Kinases

>  <Ligand_Instance>  (432) 
nan

>  <PDB_ID>  (432) 
nan

>  <Standardized_SMILES>  (432) 
COc1cccc(/C=C/c2cncc(C#N)c2Nc2ccc3[nH]ccc3c2C)c1

>  <Name>  (432) 
nan

>  <Pocket>  (432) 
nan

>  <ATP_Site>  (432) 
nan

>  <Peripheral>  (432) 
nan

>  <Num_H_Atoms_ProtBoundConf>  (432) 
nan

>  <Num_Resolved_Atoms>  (432) 
nan

>  <Num_Not_Resolved_Atoms>  (432) 
nan

$$$$
CHEMBL3717466
     RDKit          3D

  0  0  0  0  0  0  0  0  0  0999 V3000
M  V30 BEGIN CTAB
M  V30 COUNTS 48 51 0 0 0
M  V30 BEGIN ATOM
M  V30 1 O 2.031947 0.261938 2.660562 0
M  V30 2 C 1.055010 0.105653 1.895552 0
M  V30 3 N 0.823598 -1.234099 1.527525 0
M  V30 4 C 1.265522 -2.595442 1.656700 0
M  V30 5 C 2.653685 -2.785116 1.098538 0 CFG=1
M  V30 6 C 2.591358 -2.366482 -0.353861 0
M  V30 7 C 3.923943 -2.000376 -0.901435 0
M  V30 8 C 4.757894 -1.102192 -0.057437 0
M  V30 9 N 4.435220 -1.089709 1.315643 0
M  V30 10 C 3.767635 -2.217284 1.861612 0
M  V30 11 C 0.283034 1.262819 1.474446 0
M  V30 12 C 1.013443 2.381261 1.121630 0
M  V30 13 C 0.291589 3.489215 0.709295 0
M  V30 14 C -1.106330 3.431342 0.668288 0
M  V30 15 O -1.797131 4.555757 0.250677 0
M  V30 16 C -1.777549 2.286714 1.032751 0
M  V30 17 N -3.082291 1.967073 1.084238 0
M  V30 18 C -3.241128 0.718220 1.506183 0
M  V30 19 C -4.378137 -0.187891 1.757249 0
M  V30 20 C -4.643299 -0.997131 0.526178 0
M  V30 21 C -4.050582 -2.247602 0.236404 0
M  V30 22 C -4.383064 -2.868997 -0.916814 0
M  V30 23 C -5.352977 -2.189985 -1.802320 0
M  V30 24 S -5.729080 -0.603654 -0.830048 0
M  V30 25 N -2.003134 0.228760 1.729649 0
M  V30 26 C -1.090459 1.149582 1.453732 0
M  V30 27 H -0.041209 -1.200923 0.885461 0
M  V30 28 H 1.306966 -2.822893 2.764591 0
M  V30 29 H 0.547292 -3.304886 1.211353 0
M  V30 30 H 2.786229 -3.926828 1.131310 0
M  V30 31 H 1.937161 -1.494306 -0.403377 0
M  V30 32 H 2.195623 -3.235652 -0.934525 0
M  V30 33 H 4.499737 -2.950825 -1.079417 0
M  V30 34 H 3.750992 -1.559714 -1.922860 0
M  V30 35 H 4.563253 -0.055822 -0.441581 0
M  V30 36 H 5.845595 -1.254272 -0.189531 0
M  V30 37 H 4.906019 -0.446183 1.936916 0
M  V30 38 H 3.479098 -1.975355 2.923947 0
M  V30 39 H 4.568064 -3.010092 1.992279 0
M  V30 40 H 2.093700 2.387799 1.165946 0
M  V30 41 H 0.828383 4.367271 0.429838 0
M  V30 42 H -2.376453 5.017797 0.964033 0
M  V30 43 H -3.894502 2.552548 0.845377 0
M  V30 44 H -5.273934 0.442039 1.987691 0
M  V30 45 H -4.237574 -0.832806 2.637286 0
M  V30 46 H -3.350569 -2.686548 0.927725 0
M  V30 47 H -3.995592 -3.820151 -1.240034 0
M  V30 48 H -5.652970 -2.709784 -2.802638 0
M  V30 END ATOM
M  V30 BEGIN BOND
M  V30 1 2 1 2
M  V30 2 1 2 3
M  V30 3 1 3 4
M  V30 4 1 4 5
M  V30 5 1 5 6
M  V30 6 1 6 7
M  V30 7 1 7 8
M  V30 8 1 8 9
M  V30 9 1 9 10
M  V30 10 1 2 11
M  V30 11 2 11 12
M  V30 12 1 12 13
M  V30 13 2 13 14
M  V30 14 1 14 15
M  V30 15 1 14 16
M  V30 16 1 16 17
M  V30 17 1 17 18
M  V30 18 1 18 19
M  V30 19 1 19 20
M  V30 20 2 20 21
M  V30 21 1 21 22
M  V30 22 2 22 23
M  V30 23 1 23 24
M  V30 24 2 18 25
M  V30 25 1 25 26
M  V30 26 1 10 5
M  V30 27 1 26 11
M  V30 28 2 26 16
M  V30 29 1 24 20
M  V30 30 1 3 27
M  V30 31 1 4 28
M  V30 32 1 4 29
M  V30 33 1 5 30 CFG=3
M  V30 34 1 6 31
M  V30 35 1 6 32
M  V30 36 1 7 33
M  V30 37 1 7 34
M  V30 38 1 8 35
M  V30 39 1 8 36
M  V30 40 1 9 37
M  V30 41 1 10 38
M  V30 42 1 10 39
M  V30 43 1 12 40
M  V30 44 1 13 41
M  V30 45 1 15 42
M  V30 46 1 17 43
M  V30 47 1 19 44
M  V30 48 1 19 45
M  V30 49 1 21 46
M  V30 50 1 22 47
M  V30 51 1 23 48
M  V30 END BOND
M  V30 END CTAB
M  END
>  <Dataset>  (433) 
ChEMBL_Kinases

>  <Ligand_Instance>  (433) 
nan

>  <PDB_ID>  (433) 
nan

>  <Standardized_SMILES>  (433) 
O=C(NC[C@H]1CCCNC1)c1ccc(O)c2[nH]c(Cc3cccs3)nc12

>  <Name>  (433) 
nan

>  <Pocket>  (433) 
nan

>  <ATP_Site>  (433) 
nan

>  <Peripheral>  (433) 
nan

>  <Num_H_Atoms_ProtBoundConf>  (433) 
nan

>  <Num_Resolved_Atoms>  (433) 
nan

>  <Num_Not_Resolved_Atoms>  (433) 
nan

$$$$
CHEMBL567531
     RDKit          3D

  0  0  0  0  0  0  0  0  0  0999 V3000
M  V30 BEGIN CTAB
M  V30 COUNTS 50 54 0 0 0
M  V30 BEGIN ATOM
M  V30 1 O -2.550257 -1.555861 3.899910 0
M  V30 2 C -1.595725 -1.518284 3.087830 0
M  V30 3 C -1.002816 -0.149268 2.961319 0
M  V30 4 O 0.066223 -0.174566 2.033650 0
M  V30 5 C 0.803219 0.938473 1.710614 0
M  V30 6 O 0.168940 1.682304 2.463717 0
M  V30 7 C 1.913729 1.229884 0.837189 0
M  V30 8 C 2.271438 2.582673 0.907157 0
M  V30 9 C 3.312417 3.067935 0.148353 0
M  V30 10 C 3.720438 4.477975 0.190216 0
M  V30 11 C 4.723120 5.069477 -0.502893 0
M  V30 12 C 4.756782 6.405694 -0.161512 0
M  V30 13 C 3.733720 6.564782 0.756916 0
M  V30 14 O 3.156119 5.402199 0.928618 0
M  V30 15 N 3.980155 2.228432 -0.659233 0
M  V30 16 C 3.681004 0.923468 -0.766171 0
M  V30 17 C 4.326173 0.009961 -1.574787 0
M  V30 18 C 3.918994 -1.321591 -1.596337 0
M  V30 19 C 2.868941 -1.792981 -0.825987 0
M  V30 20 C 2.227912 -0.879591 -0.020847 0
M  V30 21 C 2.641949 0.425936 -0.012399 0
M  V30 22 N -1.115692 -2.633080 2.361275 0
M  V30 23 C -1.672680 -3.965246 2.467844 0
M  V30 24 C -2.950104 -4.115542 1.754507 0
M  V30 25 C -4.215552 -3.913351 2.233550 0
M  V30 26 C -5.296655 -4.109183 1.397804 0
M  V30 27 C -5.199363 -4.503769 0.080724 0
M  V30 28 C -3.907909 -4.711206 -0.411927 0
M  V30 29 C -2.827112 -4.514253 0.427350 0
M  V30 30 O -4.116083 -5.090235 -1.725445 0
M  V30 31 C -5.411910 -4.722483 -2.150695 0
M  V30 32 O -6.131527 -4.754659 -0.916318 0
M  V30 33 H -0.578125 0.114762 3.955446 0
M  V30 34 H -1.759943 0.597305 2.655568 0
M  V30 35 H 1.795535 3.340244 1.527552 0
M  V30 36 H 5.362829 4.548761 -1.193746 0
M  V30 37 H 5.480944 7.070338 -0.596191 0
M  V30 38 H 3.510537 7.514198 1.210533 0
M  V30 39 H 5.145169 0.381676 -2.174098 0
M  V30 40 H 4.452249 -2.025088 -2.250546 0
M  V30 41 H 2.587025 -2.834446 -0.873927 0
M  V30 42 H 1.413968 -1.264640 0.570908 0
M  V30 43 H -0.323807 -2.475516 1.722731 0
M  V30 44 H -1.898748 -4.098747 3.565075 0
M  V30 45 H -0.946208 -4.708397 2.135566 0
M  V30 46 H -4.276576 -3.605792 3.262780 0
M  V30 47 H -6.276157 -3.932689 1.835214 0
M  V30 48 H -1.884756 -4.710975 -0.086468 0
M  V30 49 H -5.819286 -5.447492 -2.886194 0
M  V30 50 H -5.361016 -3.688985 -2.534934 0
M  V30 END ATOM
M  V30 BEGIN BOND
M  V30 1 2 1 2
M  V30 2 1 2 3
M  V30 3 1 3 4
M  V30 4 1 4 5
M  V30 5 2 5 6
M  V30 6 1 5 7
M  V30 7 2 7 8
M  V30 8 1 8 9
M  V30 9 1 9 10
M  V30 10 2 10 11
M  V30 11 1 11 12
M  V30 12 2 12 13
M  V30 13 1 13 14
M  V30 14 2 9 15
M  V30 15 1 15 16
M  V30 16 2 16 17
M  V30 17 1 17 18
M  V30 18 2 18 19
M  V30 19 1 19 20
M  V30 20 2 20 21
M  V30 21 1 2 22
M  V30 22 1 22 23
M  V30 23 1 23 24
M  V30 24 2 24 25
M  V30 25 1 25 26
M  V30 26 2 26 27
M  V30 27 1 27 28
M  V30 28 2 28 29
M  V30 29 1 28 30
M  V30 30 1 30 31
M  V30 31 1 31 32
M  V30 32 1 21 7
M  V30 33 1 29 24
M  V30 34 1 14 10
M  V30 35 1 21 16
M  V30 36 1 32 27
M  V30 37 1 3 33
M  V30 38 1 3 34
M  V30 39 1 8 35
M  V30 40 1 11 36
M  V30 41 1 12 37
M  V30 42 1 13 38
M  V30 43 1 17 39
M  V30 44 1 18 40
M  V30 45 1 19 41
M  V30 46 1 20 42
M  V30 47 1 22 43
M  V30 48 1 23 44
M  V30 49 1 23 45
M  V30 50 1 25 46
M  V30 51 1 26 47
M  V30 52 1 29 48
M  V30 53 1 31 49
M  V30 54 1 31 50
M  V30 END BOND
M  V30 END CTAB
M  END
>  <Dataset>  (434) 
ChEMBL_Kinases

>  <Ligand_Instance>  (434) 
nan

>  <PDB_ID>  (434) 
nan

>  <Standardized_SMILES>  (434) 
O=C(COC(=O)c1cc(-c2ccco2)nc2ccccc12)NCc1ccc2c(c1)OCO2

>  <Name>  (434) 
nan

>  <Pocket>  (434) 
nan

>  <ATP_Site>  (434) 
nan

>  <Peripheral>  (434) 
nan

>  <Num_H_Atoms_ProtBoundConf>  (434) 
nan

>  <Num_Resolved_Atoms>  (434) 
nan

>  <Num_Not_Resolved_Atoms>  (434) 
nan

$$$$
CHEMBL3717442
     RDKit          3D

  0  0  0  0  0  0  0  0  0  0999 V3000
M  V30 BEGIN CTAB
M  V30 COUNTS 43 46 0 0 0
M  V30 BEGIN ATOM
M  V30 1 C 1.542949 -1.916198 5.320492 0
M  V30 2 C 0.874535 -1.305796 4.133528 0
M  V30 3 N 1.163315 -1.698992 2.875696 0
M  V30 4 C 0.567036 -1.157503 1.778568 0
M  V30 5 N 0.997559 -1.752532 0.585988 0
M  V30 6 C 0.209886 -2.663202 -0.219738 0
M  V30 7 C 0.716262 -2.775719 -1.605255 0
M  V30 8 C 1.490412 -1.641072 -2.167193 0
M  V30 9 C 2.232751 -0.793400 -1.195997 0
M  V30 10 C 2.342588 -1.392949 0.181072 0
M  V30 11 C 3.053391 -0.485222 1.113393 0
M  V30 12 O 2.420822 0.733493 1.307032 0
M  V30 13 C -0.357347 -0.174235 2.016678 0
M  V30 14 C -0.679091 0.253569 3.284654 0
M  V30 15 N -0.054249 -0.323675 4.316080 0
M  V30 16 N -1.602981 1.217758 3.156668 0
M  V30 17 C -1.864482 1.403742 1.850276 0
M  V30 18 C -2.715185 2.263013 1.186164 0
M  V30 19 C -2.800998 2.268579 -0.190783 0
M  V30 20 C -2.006556 1.382366 -0.927940 0
M  V30 21 O -2.149611 1.448186 -2.320211 0
M  V30 22 C -1.161062 0.528776 -0.255599 0
M  V30 23 C -1.091420 0.538375 1.107772 0
M  V30 24 H 2.577410 -2.234873 5.117073 0
M  V30 25 H 1.518777 -1.147426 6.131515 0
M  V30 26 H 0.964611 -2.811084 5.678656 0
M  V30 27 H -0.861149 -2.347699 -0.193026 0
M  V30 28 H 0.293778 -3.653175 0.322427 0
M  V30 29 H -0.186037 -2.976109 -2.256901 0
M  V30 30 H 1.297916 -3.718962 -1.685943 0
M  V30 31 H 0.790684 -0.984566 -2.728040 0
M  V30 32 H 2.206541 -2.026416 -2.923637 0
M  V30 33 H 3.269455 -0.590315 -1.541498 0
M  V30 34 H 1.767395 0.207739 -1.078825 0
M  V30 35 H 2.974199 -2.313741 0.076755 0
M  V30 36 H 4.044645 -0.237731 0.641481 0
M  V30 37 H 3.285548 -1.031724 2.049993 0
M  V30 38 H 2.685614 1.415661 0.662577 0
M  V30 39 H -2.044163 1.736455 3.947011 0
M  V30 40 H -3.325695 2.946349 1.786362 0
M  V30 41 H -3.473382 2.949145 -0.689353 0
M  V30 42 H -2.329674 0.565570 -2.821364 0
M  V30 43 H -0.610030 -0.083840 -0.937820 0
M  V30 END ATOM
M  V30 BEGIN BOND
M  V30 1 1 1 2
M  V30 2 2 2 3
M  V30 3 1 3 4
M  V30 4 1 4 5
M  V30 5 1 5 6
M  V30 6 1 6 7
M  V30 7 1 7 8
M  V30 8 1 8 9
M  V30 9 1 9 10
M  V30 10 1 10 11
M  V30 11 1 11 12
M  V30 12 2 4 13
M  V30 13 1 13 14
M  V30 14 2 14 15
M  V30 15 1 14 16
M  V30 16 1 16 17
M  V30 17 2 17 18
M  V30 18 1 18 19
M  V30 19 2 19 20
M  V30 20 1 20 21
M  V30 21 1 20 22
M  V30 22 2 22 23
M  V30 23 1 15 2
M  V30 24 1 23 17
M  V30 25 1 10 5
M  V30 26 1 23 13
M  V30 27 1 1 24
M  V30 28 1 1 25
M  V30 29 1 1 26
M  V30 30 1 6 27
M  V30 31 1 6 28
M  V30 32 1 7 29
M  V30 33 1 7 30
M  V30 34 1 8 31
M  V30 35 1 8 32
M  V30 36 1 9 33
M  V30 37 1 9 34
M  V30 38 1 10 35
M  V30 39 1 11 36
M  V30 40 1 11 37
M  V30 41 1 12 38
M  V30 42 1 16 39
M  V30 43 1 18 40
M  V30 44 1 19 41
M  V30 45 1 21 42
M  V30 46 1 22 43
M  V30 END BOND
M  V30 END CTAB
M  END
>  <Dataset>  (435) 
ChEMBL_Kinases

>  <Ligand_Instance>  (435) 
nan

>  <PDB_ID>  (435) 
nan

>  <Standardized_SMILES>  (435) 
Cc1nc(N2CCCCC2CO)c2c(n1)[nH]c1ccc(O)cc12

>  <Name>  (435) 
nan

>  <Pocket>  (435) 
nan

>  <ATP_Site>  (435) 
nan

>  <Peripheral>  (435) 
nan

>  <Num_H_Atoms_ProtBoundConf>  (435) 
nan

>  <Num_Resolved_Atoms>  (435) 
nan

>  <Num_Not_Resolved_Atoms>  (435) 
nan

$$$$
CHEMBL3717424
     RDKit          3D

  0  0  0  0  0  0  0  0  0  0999 V3000
M  V30 BEGIN CTAB
M  V30 COUNTS 56 59 0 0 0
M  V30 BEGIN ATOM
M  V30 1 O -2.190821 -0.544439 2.061440 0
M  V30 2 C -1.253848 -0.575379 1.195866 0
M  V30 3 C -0.159618 0.426706 1.104617 0
M  V30 4 C -0.283939 1.547822 2.093217 0
M  V30 5 N 0.833385 2.464387 1.916950 0
M  V30 6 C 0.664346 3.848008 1.670580 0
M  V30 7 O -0.521904 4.242784 1.611398 0
M  V30 8 C 1.769713 4.780265 1.494314 0
M  V30 9 C 1.519868 6.124094 1.328104 0
M  V30 10 C 2.533915 7.046893 1.153989 0
M  V30 11 C 3.859037 6.585232 1.147416 0
M  V30 12 C 4.129971 5.243761 1.311563 0
M  V30 13 C 3.085226 4.369974 1.481228 0
M  V30 14 C -0.230564 1.051783 3.510956 0
M  V30 15 C -1.335488 1.030304 4.368757 0
M  V30 16 C -1.242639 0.563887 5.661767 0
M  V30 17 C -0.035054 0.112680 6.110337 0
M  V30 18 C 1.102097 0.098547 5.333593 0
M  V30 19 C 0.952423 0.572643 4.058359 0
M  V30 20 N -1.322405 -1.677173 0.281930 0
M  V30 21 C -2.504408 -2.475676 0.637758 0
M  V30 22 C -2.710373 -3.624297 -0.200973 0
M  V30 23 O -1.648410 -3.053803 -0.669866 0
M  V30 24 N -3.109399 -4.779643 -0.869463 0
M  V30 25 C -2.492842 -5.436482 -2.032929 0
M  V30 26 N -1.715271 -6.240822 -2.210136 0
M  V30 27 C -1.274989 -6.726331 -3.359410 0
M  V30 28 C -0.306072 -7.726364 -3.523583 0
M  V30 29 C 0.015206 -8.093034 -4.807951 0
M  V30 30 C -0.521709 -7.575364 -5.980696 0
M  V30 31 O -0.181566 -7.962885 -7.264227 0
M  V30 32 C -1.474584 -6.591120 -5.778887 0
M  V30 33 C -1.815615 -6.202924 -4.480660 0
M  V30 34 S -2.967640 -4.999927 -3.848906 0
M  V30 35 H 0.779128 -0.137392 1.372549 0
M  V30 36 H -0.026157 0.787838 0.069137 0
M  V30 37 H -1.266228 2.029014 1.965081 0
M  V30 38 H 1.791621 2.061355 1.978254 0
M  V30 39 H 0.477531 6.435654 1.340657 0
M  V30 40 H 2.234156 8.099729 1.029510 0
M  V30 41 H 4.558184 7.419382 0.999156 0
M  V30 42 H 5.184615 5.003238 1.288333 0
M  V30 43 H 3.356689 3.317511 1.602765 0
M  V30 44 H -2.267873 1.409862 3.955390 0
M  V30 45 H -2.159880 0.598510 6.222801 0
M  V30 46 H -0.055721 -0.234837 7.143479 0
M  V30 47 H 2.031212 -0.267230 5.723745 0
M  V30 48 H 1.841969 0.568143 3.432733 0
M  V30 49 H -0.519695 -1.637413 -0.405912 0
M  V30 50 H -2.320736 -2.812866 1.698327 0
M  V30 51 H -3.391692 -1.797158 0.715915 0
M  V30 52 H -3.928372 -4.924184 -0.235113 0
M  V30 53 H 0.233097 -8.261186 -2.722317 0
M  V30 54 H 0.770615 -8.875666 -4.972929 0
M  V30 55 H 0.121828 -7.324298 -7.994166 0
M  V30 56 H -1.986814 -6.087980 -6.591001 0
M  V30 END ATOM
M  V30 BEGIN BOND
M  V30 1 2 1 2
M  V30 2 1 2 3
M  V30 3 1 3 4
M  V30 4 1 4 5
M  V30 5 1 5 6
M  V30 6 2 6 7
M  V30 7 1 6 8
M  V30 8 2 8 9
M  V30 9 1 9 10
M  V30 10 2 10 11
M  V30 11 1 11 12
M  V30 12 2 12 13
M  V30 13 1 4 14
M  V30 14 2 14 15
M  V30 15 1 15 16
M  V30 16 2 16 17
M  V30 17 1 17 18
M  V30 18 2 18 19
M  V30 19 1 2 20
M  V30 20 1 20 21
M  V30 21 1 21 22
M  V30 22 2 22 23
M  V30 23 1 22 24
M  V30 24 1 24 25
M  V30 25 2 25 26
M  V30 26 1 26 27
M  V30 27 2 27 28
M  V30 28 1 28 29
M  V30 29 2 29 30
M  V30 30 1 30 31
M  V30 31 1 30 32
M  V30 32 2 32 33
M  V30 33 1 33 34
M  V30 34 1 13 8
M  V30 35 1 19 14
M  V30 36 1 34 25
M  V30 37 1 33 27
M  V30 38 1 3 35
M  V30 39 1 3 36
M  V30 40 1 4 37
M  V30 41 1 5 38
M  V30 42 1 9 39
M  V30 43 1 10 40
M  V30 44 1 11 41
M  V30 45 1 12 42
M  V30 46 1 13 43
M  V30 47 1 15 44
M  V30 48 1 16 45
M  V30 49 1 17 46
M  V30 50 1 18 47
M  V30 51 1 19 48
M  V30 52 1 20 49
M  V30 53 1 21 50
M  V30 54 1 21 51
M  V30 55 1 24 52
M  V30 56 1 28 53
M  V30 57 1 29 54
M  V30 58 1 31 55
M  V30 59 1 32 56
M  V30 END BOND
M  V30 END CTAB
M  END
>  <Dataset>  (436) 
ChEMBL_Kinases

>  <Ligand_Instance>  (436) 
nan

>  <PDB_ID>  (436) 
nan

>  <Standardized_SMILES>  (436) 
O=C(CC(NC(=O)c1ccccc1)c1ccccc1)NCC(=O)Nc1nc2ccc(O)cc2s1

>  <Name>  (436) 
nan

>  <Pocket>  (436) 
nan

>  <ATP_Site>  (436) 
nan

>  <Peripheral>  (436) 
nan

>  <Num_H_Atoms_ProtBoundConf>  (436) 
nan

>  <Num_Resolved_Atoms>  (436) 
nan

>  <Num_Not_Resolved_Atoms>  (436) 
nan

$$$$
CHEMBL3715032
     RDKit          3D

  0  0  0  0  0  0  0  0  0  0999 V3000
M  V30 BEGIN CTAB
M  V30 COUNTS 46 49 0 0 0
M  V30 BEGIN ATOM
M  V30 1 N 1.042718 -5.155878 -1.359909 0
M  V30 2 C 0.198864 -4.975550 -0.202671 0 CFG=1
M  V30 3 C 1.101899 -4.684711 0.983493 0
M  V30 4 C 2.069985 -3.583974 0.530739 0
M  V30 5 C 1.192353 -2.343229 0.321606 0 CFG=1
M  V30 6 C 2.075216 -1.158164 0.060460 0
M  V30 7 N 1.303248 0.050875 -0.145658 0
M  V30 8 C 1.896770 1.337766 -0.415994 0
M  V30 9 O 3.142625 1.444337 -0.481767 0
M  V30 10 C 1.016794 2.503433 -0.609451 0
M  V30 11 C 1.082434 3.341331 -1.708455 0
M  V30 12 C 0.199778 4.421163 -1.794809 0
M  V30 13 N -0.710039 4.637069 -0.803987 0
M  V30 14 C -0.789556 3.834535 0.271528 0
M  V30 15 N -1.569779 3.801647 1.383874 0
M  V30 16 C -1.208991 2.755866 2.146445 0
M  V30 17 C -1.859110 2.423077 3.439354 0
M  V30 18 C -1.526953 1.396242 4.214510 0
M  V30 19 C -2.187301 1.174291 5.389047 0
M  V30 20 C -3.233255 2.130465 5.680385 0
M  V30 21 S -3.142880 3.282112 4.174128 0
M  V30 22 N -0.217383 2.113569 1.556437 0
M  V30 23 C 0.082382 2.745380 0.383974 0
M  V30 24 C 0.244276 -2.598896 -0.815204 0
M  V30 25 C -0.658278 -3.751369 -0.435844 0
M  V30 26 H 0.524902 -5.627153 -2.155727 0
M  V30 27 H 1.904504 -5.681311 -1.168422 0
M  V30 28 H -0.427406 -5.878058 -0.007623 0
M  V30 29 H 0.461614 -4.176759 1.755412 0
M  V30 30 H 1.626745 -5.567621 1.366386 0
M  V30 31 H 2.557404 -3.842339 -0.420964 0
M  V30 32 H 2.756305 -3.385284 1.355276 0
M  V30 33 H 0.619570 -2.223088 1.264417 0
M  V30 34 H 2.678796 -1.394277 -0.863156 0
M  V30 35 H 2.792932 -1.042390 0.896583 0
M  V30 36 H 0.268984 0.019203 -0.102357 0
M  V30 37 H 1.834178 3.115396 -2.469745 0
M  V30 38 H 0.264924 5.065821 -2.660663 0
M  V30 39 H -0.724411 0.682422 3.967065 0
M  V30 40 H -2.048840 0.399077 6.128688 0
M  V30 41 H -3.891394 2.100268 6.621785 0
M  V30 42 H 0.235497 1.273487 1.945309 0
M  V30 43 H -0.389149 -1.719895 -0.962460 0
M  V30 44 H 0.833430 -2.864865 -1.731234 0
M  V30 45 H -1.110944 -3.486763 0.563297 0
M  V30 46 H -1.425164 -3.953728 -1.196196 0
M  V30 END ATOM
M  V30 BEGIN BOND
M  V30 1 1 1 2
M  V30 2 1 2 3
M  V30 3 1 3 4
M  V30 4 1 4 5
M  V30 5 1 5 6
M  V30 6 1 6 7
M  V30 7 1 7 8
M  V30 8 2 8 9
M  V30 9 1 8 10
M  V30 10 2 10 11
M  V30 11 1 11 12
M  V30 12 2 12 13
M  V30 13 1 13 14
M  V30 14 1 14 15
M  V30 15 2 15 16
M  V30 16 1 16 17
M  V30 17 2 17 18
M  V30 18 1 18 19
M  V30 19 2 19 20
M  V30 20 1 20 21
M  V30 21 1 16 22
M  V30 22 1 22 23
M  V30 23 1 5 24
M  V30 24 1 24 25
M  V30 25 1 25 2
M  V30 26 1 23 10
M  V30 27 2 23 14
M  V30 28 1 21 17
M  V30 29 1 1 26
M  V30 30 1 1 27
M  V30 31 1 2 28 CFG=1
M  V30 32 1 3 29
M  V30 33 1 3 30
M  V30 34 1 4 31
M  V30 35 1 4 32
M  V30 36 1 5 33 CFG=1
M  V30 37 1 6 34
M  V30 38 1 6 35
M  V30 39 1 7 36
M  V30 40 1 11 37
M  V30 41 1 12 38
M  V30 42 1 18 39
M  V30 43 1 19 40
M  V30 44 1 20 41
M  V30 45 1 22 42
M  V30 46 1 24 43
M  V30 47 1 24 44
M  V30 48 1 25 45
M  V30 49 1 25 46
M  V30 END BOND
M  V30 END CTAB
M  END
>  <Dataset>  (437) 
ChEMBL_Kinases

>  <Ligand_Instance>  (437) 
nan

>  <PDB_ID>  (437) 
nan

>  <Standardized_SMILES>  (437) 
N[C@H]1CC[C@@H](CNC(=O)c2ccnc3nc(-c4cccs4)[nH]c23)CC1

>  <Name>  (437) 
nan

>  <Pocket>  (437) 
nan

>  <ATP_Site>  (437) 
nan

>  <Peripheral>  (437) 
nan

>  <Num_H_Atoms_ProtBoundConf>  (437) 
nan

>  <Num_Resolved_Atoms>  (437) 
nan

>  <Num_Not_Resolved_Atoms>  (437) 
nan

$$$$
CHEMBL3717373
     RDKit          3D

  0  0  0  0  0  0  0  0  0  0999 V3000
M  V30 BEGIN CTAB
M  V30 COUNTS 55 58 0 0 0
M  V30 BEGIN ATOM
M  V30 1 O -2.750412 -2.885751 4.269289 0
M  V30 2 C -1.694546 -2.945361 3.548280 0
M  V30 3 C -0.517059 -2.934654 4.412772 0
M  V30 4 N 0.755468 -2.981824 3.763205 0
M  V30 5 C 1.187332 -1.954720 2.849629 0
M  V30 6 O 0.501439 -0.955194 2.559507 0
M  V30 7 N 2.457793 -1.977237 2.176622 0
M  V30 8 C 2.623038 -0.829498 1.327843 0
M  V30 9 C 3.204751 0.290539 1.916361 0
M  V30 10 C 3.351675 1.381705 1.074241 0
M  V30 11 C 2.934195 1.310788 -0.246565 0
M  V30 12 C 3.115174 2.492975 -1.085807 0
M  V30 13 C 2.166960 2.680522 -2.095831 0
M  V30 14 C 2.270718 3.789534 -2.942282 0
M  V30 15 C 3.302122 4.719492 -2.804385 0
M  V30 16 C 4.209474 4.477049 -1.784534 0
M  V30 17 C 4.147198 3.399427 -0.927445 0
M  V30 18 C 2.361542 0.168621 -0.777565 0
M  V30 19 C 2.197032 -0.942578 0.030107 0
M  V30 20 N -1.881003 -3.006414 2.144002 0
M  V30 21 C -3.162871 -2.998679 1.580169 0
M  V30 22 C -3.548311 -4.112091 0.673869 0
M  V30 23 C -2.683161 -4.223834 -0.560915 0
M  V30 24 C -2.061963 -2.942599 -0.985089 0
M  V30 25 C -2.783369 -1.744461 -0.464476 0
M  V30 26 C -2.924890 -0.584651 -1.230874 0
M  V30 27 C -3.586268 0.537381 -0.773862 0
M  V30 28 C -4.126487 0.506690 0.489737 0
M  V30 29 C -4.005355 -0.621663 1.273278 0
M  V30 30 C -3.344231 -1.724134 0.798287 0
M  V30 31 H -0.510136 -3.769431 5.159975 0
M  V30 32 H -0.573082 -2.018938 5.076197 0
M  V30 33 H 1.461038 -3.740749 3.889941 0
M  V30 34 H 3.101883 -2.800811 2.372472 0
M  V30 35 H 3.506932 0.274279 2.954998 0
M  V30 36 H 3.796104 2.286609 1.463495 0
M  V30 37 H 1.346824 1.989550 -2.246828 0
M  V30 38 H 1.551932 3.954286 -3.727557 0
M  V30 39 H 3.377211 5.561466 -3.450976 0
M  V30 40 H 5.005895 5.199299 -1.681899 0
M  V30 41 H 4.863807 3.229776 -0.140472 0
M  V30 42 H 2.030762 0.099999 -1.808232 0
M  V30 43 H 1.759460 -1.853756 -0.328341 0
M  V30 44 H -0.963479 -3.058164 1.649547 0
M  V30 45 H -3.923730 -2.945432 2.385913 0
M  V30 46 H -4.566871 -3.855851 0.302046 0
M  V30 47 H -3.677997 -5.099268 1.164316 0
M  V30 48 H -3.238752 -4.655429 -1.420653 0
M  V30 49 H -1.853902 -4.954889 -0.377047 0
M  V30 50 H -2.075938 -2.847361 -2.091899 0
M  V30 51 H -0.965114 -2.855646 -0.739542 0
M  V30 52 H -2.507671 -0.545344 -2.221647 0
M  V30 53 H -3.656405 1.408187 -1.432281 0
M  V30 54 H -4.647066 1.368658 0.869242 0
M  V30 55 H -4.412612 -0.701355 2.278910 0
M  V30 END ATOM
M  V30 BEGIN BOND
M  V30 1 2 1 2
M  V30 2 1 2 3
M  V30 3 1 3 4
M  V30 4 1 4 5
M  V30 5 2 5 6
M  V30 6 1 5 7
M  V30 7 1 7 8
M  V30 8 2 8 9
M  V30 9 1 9 10
M  V30 10 2 10 11
M  V30 11 1 11 12
M  V30 12 2 12 13
M  V30 13 1 13 14
M  V30 14 2 14 15
M  V30 15 1 15 16
M  V30 16 2 16 17
M  V30 17 1 11 18
M  V30 18 2 18 19
M  V30 19 1 2 20
M  V30 20 1 20 21
M  V30 21 1 21 22
M  V30 22 1 22 23
M  V30 23 1 23 24
M  V30 24 1 24 25
M  V30 25 2 25 26
M  V30 26 1 26 27
M  V30 27 2 27 28
M  V30 28 1 28 29
M  V30 29 2 29 30
M  V30 30 1 19 8
M  V30 31 1 30 21
M  V30 32 1 17 12
M  V30 33 1 30 25
M  V30 34 1 3 31
M  V30 35 1 3 32
M  V30 36 1 4 33
M  V30 37 1 7 34
M  V30 38 1 9 35
M  V30 39 1 10 36
M  V30 40 1 13 37
M  V30 41 1 14 38
M  V30 42 1 15 39
M  V30 43 1 16 40
M  V30 44 1 17 41
M  V30 45 1 18 42
M  V30 46 1 19 43
M  V30 47 1 20 44
M  V30 48 1 21 45
M  V30 49 1 22 46
M  V30 50 1 22 47
M  V30 51 1 23 48
M  V30 52 1 23 49
M  V30 53 1 24 50
M  V30 54 1 24 51
M  V30 55 1 26 52
M  V30 56 1 27 53
M  V30 57 1 28 54
M  V30 58 1 29 55
M  V30 END BOND
M  V30 END CTAB
M  END
>  <Dataset>  (438) 
ChEMBL_Kinases

>  <Ligand_Instance>  (438) 
nan

>  <PDB_ID>  (438) 
nan

>  <Standardized_SMILES>  (438) 
O=C(CNC(=O)Nc1ccc(-c2ccccc2)cc1)NC1CCCc2ccccc21

>  <Name>  (438) 
nan

>  <Pocket>  (438) 
nan

>  <ATP_Site>  (438) 
nan

>  <Peripheral>  (438) 
nan

>  <Num_H_Atoms_ProtBoundConf>  (438) 
nan

>  <Num_Resolved_Atoms>  (438) 
nan

>  <Num_Not_Resolved_Atoms>  (438) 
nan

$$$$
CHEMBL570713
     RDKit          3D

  0  0  0  0  0  0  0  0  0  0999 V3000
M  V30 BEGIN CTAB
M  V30 COUNTS 67 72 0 0 0
M  V30 BEGIN ATOM
M  V30 1 C 3.298678 -1.754044 3.705428 0
M  V30 2 C 4.305399 -1.056448 2.819075 0
M  V30 3 N 4.661954 -1.823396 1.668811 0
M  V30 4 C 3.578441 -1.965936 0.720971 0
M  V30 5 C 4.015803 -1.582068 -0.682313 0
M  V30 6 N 4.724165 -0.359871 -0.771375 0
M  V30 7 C 4.064464 0.748366 -1.367033 0
M  V30 8 C 2.847606 1.225510 -0.725170 0
M  V30 9 C 2.897281 2.192939 0.262949 0
M  V30 10 C 1.760558 2.672685 0.895053 0
M  V30 11 C 0.526411 2.158941 0.518203 0
M  V30 12 O -0.668413 2.414826 0.928096 0
M  V30 13 C -1.606581 1.721449 0.331957 0
M  V30 14 C -2.944609 1.967952 0.747523 0
M  V30 15 C -3.301371 2.985951 1.602478 0
M  V30 16 N -4.543102 3.215184 1.999278 0
M  V30 17 C -5.564547 2.469416 1.597953 0
M  V30 18 C -5.237382 1.429285 0.731658 0
M  V30 19 C -6.430731 0.691508 0.321442 0
M  V30 20 N -7.377345 0.089647 -0.022085 0
M  V30 21 C -3.931682 1.138487 0.278433 0
M  V30 22 N -3.966679 0.037637 -0.551115 0
M  V30 23 C -3.668556 -1.315049 -0.715939 0
M  V30 24 C -2.943314 -1.862069 -1.751999 0
M  V30 25 C -2.584145 -3.163308 -1.946276 0
M  V30 26 C -3.000186 -4.029584 -0.988441 0
M  V30 27 N -2.817301 -5.367336 -0.875977 0
M  V30 28 C -3.397066 -5.861704 0.240952 0
M  V30 29 C -3.965643 -4.759194 0.842642 0
M  V30 30 C -3.724265 -3.622378 0.087578 0
M  V30 31 C -4.059121 -2.274454 0.228318 0
M  V30 32 C -4.824027 -1.967706 1.445076 0
M  V30 33 C -0.879756 0.964645 -0.536190 0
M  V30 34 C 0.476013 1.195654 -0.465682 0
M  V30 35 C 1.612106 0.728338 -1.085202 0
M  V30 36 C 5.566621 -0.053580 0.330679 0
M  V30 37 C 5.863602 -1.329076 1.083282 0
M  V30 38 H 3.472349 -1.405807 4.743512 0
M  V30 39 H 2.256619 -1.419968 3.466009 0
M  V30 40 H 3.392686 -2.851283 3.704558 0
M  V30 41 H 5.171183 -0.760886 3.431710 0
M  V30 42 H 3.808578 -0.086085 2.527564 0
M  V30 43 H 2.653492 -1.455046 0.992036 0
M  V30 44 H 3.341503 -3.055633 0.666313 0
M  V30 45 H 4.749058 -2.397055 -0.966857 0
M  V30 46 H 3.114211 -1.632479 -1.320071 0
M  V30 47 H 3.791988 0.443766 -2.408907 0
M  V30 48 H 4.835414 1.546091 -1.513520 0
M  V30 49 H 3.810912 2.635768 0.606813 0
M  V30 50 H 1.762741 3.435487 1.680032 0
M  V30 51 H -2.558383 3.665494 2.000218 0
M  V30 52 H -6.548158 2.701049 1.949983 0
M  V30 53 H -4.408784 0.300486 -1.485505 0
M  V30 54 H -2.600698 -1.177880 -2.548888 0
M  V30 55 H -2.008282 -3.488303 -2.800453 0
M  V30 56 H -2.293935 -5.949129 -1.563043 0
M  V30 57 H -3.395001 -6.895894 0.558690 0
M  V30 58 H -4.516458 -4.790530 1.767579 0
M  V30 59 H -4.472486 -1.044455 1.969605 0
M  V30 60 H -4.674902 -2.761574 2.235273 0
M  V30 61 H -5.907169 -1.993038 1.250223 0
M  V30 62 H -1.358218 0.293234 -1.187216 0
M  V30 63 H 1.449868 -0.018316 -1.837630 0
M  V30 64 H 6.497631 0.441570 -0.026903 0
M  V30 65 H 5.012576 0.608217 1.048234 0
M  V30 66 H 6.621018 -1.162850 1.878533 0
M  V30 67 H 6.248127 -2.126382 0.383845 0
M  V30 END ATOM
M  V30 BEGIN BOND
M  V30 1 1 1 2
M  V30 2 1 2 3
M  V30 3 1 3 4
M  V30 4 1 4 5
M  V30 5 1 5 6
M  V30 6 1 6 7
M  V30 7 1 7 8
M  V30 8 2 8 9
M  V30 9 1 9 10
M  V30 10 2 10 11
M  V30 11 1 11 12
M  V30 12 1 12 13
M  V30 13 1 13 14
M  V30 14 2 14 15
M  V30 15 1 15 16
M  V30 16 2 16 17
M  V30 17 1 17 18
M  V30 18 1 18 19
M  V30 19 3 19 20
M  V30 20 2 18 21
M  V30 21 1 21 22
M  V30 22 1 22 23
M  V30 23 2 23 24
M  V30 24 1 24 25
M  V30 25 2 25 26
M  V30 26 1 26 27
M  V30 27 1 27 28
M  V30 28 2 28 29
M  V30 29 1 29 30
M  V30 30 2 30 31
M  V30 31 1 31 32
M  V30 32 2 13 33
M  V30 33 1 33 34
M  V30 34 2 34 35
M  V30 35 1 6 36
M  V30 36 1 36 37
M  V30 37 1 37 3
M  V30 38 1 35 8
M  V30 39 1 34 11
M  V30 40 1 21 14
M  V30 41 1 31 23
M  V30 42 1 30 26
M  V30 43 1 1 38
M  V30 44 1 1 39
M  V30 45 1 1 40
M  V30 46 1 2 41
M  V30 47 1 2 42
M  V30 48 1 4 43
M  V30 49 1 4 44
M  V30 50 1 5 45
M  V30 51 1 5 46
M  V30 52 1 7 47
M  V30 53 1 7 48
M  V30 54 1 9 49
M  V30 55 1 10 50
M  V30 56 1 15 51
M  V30 57 1 17 52
M  V30 58 1 22 53
M  V30 59 1 24 54
M  V30 60 1 25 55
M  V30 61 1 27 56
M  V30 62 1 28 57
M  V30 63 1 29 58
M  V30 64 1 32 59
M  V30 65 1 32 60
M  V30 66 1 32 61
M  V30 67 1 33 62
M  V30 68 1 35 63
M  V30 69 1 36 64
M  V30 70 1 36 65
M  V30 71 1 37 66
M  V30 72 1 37 67
M  V30 END BOND
M  V30 END CTAB
M  END
>  <Dataset>  (439) 
ChEMBL_Kinases

>  <Ligand_Instance>  (439) 
nan

>  <PDB_ID>  (439) 
nan

>  <Standardized_SMILES>  (439) 
CCN1CCN(Cc2ccc3oc(-c4cncc(C#N)c4Nc4ccc5[nH]ccc5c4C)cc3c2)CC1

>  <Name>  (439) 
nan

>  <Pocket>  (439) 
nan

>  <ATP_Site>  (439) 
nan

>  <Peripheral>  (439) 
nan

>  <Num_H_Atoms_ProtBoundConf>  (439) 
nan

>  <Num_Resolved_Atoms>  (439) 
nan

>  <Num_Not_Resolved_Atoms>  (439) 
nan

$$$$
CHEMBL3717368
     RDKit          3D

  0  0  0  0  0  0  0  0  0  0999 V3000
M  V30 BEGIN CTAB
M  V30 COUNTS 47 50 0 0 0
M  V30 BEGIN ATOM
M  V30 1 O 1.130702 0.374061 4.410038 0
M  V30 2 C 0.758802 0.720812 3.255313 0
M  V30 3 N 1.620875 0.342991 2.176202 0
M  V30 4 C 2.832573 -0.395545 2.490127 0
M  V30 5 C 3.554093 -0.668739 1.188405 0 CFG=2
M  V30 6 C 2.697501 -1.486201 0.247231 0
M  V30 7 C 3.364335 -1.425144 -1.112226 0
M  V30 8 C 4.862609 -1.324081 -0.982390 0
M  V30 9 N 5.360541 -1.995168 0.200895 0
M  V30 10 C 4.870069 -1.382814 1.415219 0
M  V30 11 C -0.482714 1.474044 2.965411 0
M  V30 12 C -0.756050 2.680822 3.572976 0
M  V30 13 C -1.938849 3.324007 3.247944 0
M  V30 14 N -2.776377 2.760355 2.360212 0
M  V30 15 C -2.480766 1.580005 1.783707 0
M  V30 16 N -3.161470 0.847573 0.885884 0
M  V30 17 C -2.508697 -0.283425 0.565019 0
M  V30 18 C -2.766527 -1.423816 -0.331685 0
M  V30 19 O -2.458458 -2.589125 0.390126 0
M  V30 20 C -4.166861 -1.489417 -0.706903 0
M  V30 21 C -5.266733 -0.660255 -0.721496 0
M  V30 22 C -6.458411 -1.160408 -1.180028 0
M  V30 23 C -6.587135 -2.438561 -1.617053 0
M  V30 24 S -4.804432 -3.067517 -1.367154 0
M  V30 25 N -1.362451 -0.243952 1.307199 0
M  V30 26 C -1.314052 0.860126 2.049238 0
M  V30 27 H 1.294084 0.642631 1.211315 0
M  V30 28 H 3.456355 0.102495 3.229315 0
M  V30 29 H 2.519320 -1.381602 2.918225 0
M  V30 30 H 3.797261 0.264690 0.643078 0
M  V30 31 H 1.690734 -1.075763 0.199435 0
M  V30 32 H 2.704760 -2.548681 0.571374 0
M  V30 33 H 2.963341 -0.583846 -1.707900 0
M  V30 34 H 3.102599 -2.347407 -1.673506 0
M  V30 35 H 5.361512 -1.800066 -1.856439 0
M  V30 36 H 5.232377 -0.269251 -0.950896 0
M  V30 37 H 6.398288 -1.904312 0.195118 0
M  V30 38 H 5.650377 -0.696126 1.795260 0
M  V30 39 H 4.759694 -2.229018 2.145900 0
M  V30 40 H -0.023906 3.055715 4.273200 0
M  V30 41 H -2.157267 4.285948 3.731693 0
M  V30 42 H -2.055287 -1.418865 -1.199327 0
M  V30 43 H -1.518307 -2.820308 0.289668 0
M  V30 44 H -5.116726 0.346582 -0.365111 0
M  V30 45 H -7.359549 -0.562620 -1.217447 0
M  V30 46 H -7.321252 -3.020866 -1.986804 0
M  V30 47 H -0.550438 -0.914225 1.383234 0
M  V30 END ATOM
M  V30 BEGIN BOND
M  V30 1 2 1 2
M  V30 2 1 2 3
M  V30 3 1 3 4
M  V30 4 1 4 5
M  V30 5 1 5 6
M  V30 6 1 6 7
M  V30 7 1 7 8
M  V30 8 1 8 9
M  V30 9 1 9 10
M  V30 10 1 2 11
M  V30 11 2 11 12
M  V30 12 1 12 13
M  V30 13 2 13 14
M  V30 14 1 14 15
M  V30 15 1 15 16
M  V30 16 2 16 17
M  V30 17 1 17 18
M  V30 18 1 18 19
M  V30 19 1 18 20
M  V30 20 2 20 21
M  V30 21 1 21 22
M  V30 22 2 22 23
M  V30 23 1 23 24
M  V30 24 1 17 25
M  V30 25 1 25 26
M  V30 26 1 10 5
M  V30 27 1 26 11
M  V30 28 2 26 15
M  V30 29 1 24 20
M  V30 30 1 3 27
M  V30 31 1 4 28
M  V30 32 1 4 29
M  V30 33 1 5 30 CFG=3
M  V30 34 1 6 31
M  V30 35 1 6 32
M  V30 36 1 7 33
M  V30 37 1 7 34
M  V30 38 1 8 35
M  V30 39 1 8 36
M  V30 40 1 9 37
M  V30 41 1 10 38
M  V30 42 1 10 39
M  V30 43 1 12 40
M  V30 44 1 13 41
M  V30 45 1 18 42
M  V30 46 1 19 43
M  V30 47 1 21 44
M  V30 48 1 22 45
M  V30 49 1 23 46
M  V30 50 1 25 47
M  V30 END BOND
M  V30 END CTAB
M  END
>  <Dataset>  (440) 
ChEMBL_Kinases

>  <Ligand_Instance>  (440) 
nan

>  <PDB_ID>  (440) 
nan

>  <Standardized_SMILES>  (440) 
O=C(NC[C@@H]1CCCNC1)c1ccnc2nc(C(O)c3cccs3)[nH]c12

>  <Name>  (440) 
nan

>  <Pocket>  (440) 
nan

>  <ATP_Site>  (440) 
nan

>  <Peripheral>  (440) 
nan

>  <Num_H_Atoms_ProtBoundConf>  (440) 
nan

>  <Num_Resolved_Atoms>  (440) 
nan

>  <Num_Not_Resolved_Atoms>  (440) 
nan

$$$$
CHEMBL3717479
     RDKit          3D

  0  0  0  0  0  0  0  0  0  0999 V3000
M  V30 BEGIN CTAB
M  V30 COUNTS 53 58 0 0 0
M  V30 BEGIN ATOM
M  V30 1 N 1.713149 -3.161177 3.809251 0
M  V30 2 C 2.283578 -2.390532 2.705090 0
M  V30 3 C 2.663287 -3.286758 1.558377 0
M  V30 4 C 3.116729 -2.383846 0.423325 0
M  V30 5 C 4.326668 -1.633745 0.901086 0
M  V30 6 C 3.868266 -0.681356 1.988798 0
M  V30 7 C 3.391555 -1.489925 3.172933 0
M  V30 8 C 2.781561 0.255620 1.519944 0
M  V30 9 C 1.622350 -0.571500 1.099505 0
M  V30 10 N 0.423916 0.204494 0.764497 0
M  V30 11 C 0.501122 1.152841 -0.297971 0
M  V30 12 O 1.574826 1.323765 -0.937094 0
M  V30 13 C -0.713718 1.927172 -0.625211 0
M  V30 14 C -0.768167 3.296923 -0.835587 0
M  V30 15 C -1.978007 3.890222 -1.137021 0
M  V30 16 C -3.151842 3.168446 -1.239273 0
M  V30 17 O -4.368818 3.773268 -1.544225 0
M  V30 18 C -3.163598 1.801605 -1.041602 0
M  V30 19 N -4.056869 0.790802 -1.052112 0
M  V30 20 C -3.464132 -0.365504 -0.778204 0
M  V30 21 C -4.066224 -1.691150 -0.689158 0
M  V30 22 C -5.343669 -2.015647 -0.864652 0
M  V30 23 C -5.742655 -3.320934 -0.742748 0
M  V30 24 C -4.712332 -4.254044 -0.425279 0
M  V30 25 S -3.205027 -3.144355 -0.324365 0
M  V30 26 N -2.166112 -0.079042 -0.590004 0
M  V30 27 C -1.921315 1.225885 -0.736930 0
M  V30 28 C 2.028053 -1.470538 -0.046876 0
M  V30 29 C 1.172155 -1.491303 2.219585 0
M  V30 30 H 1.836058 -2.685580 4.728714 0
M  V30 31 H 0.713940 -3.409261 3.594730 0
M  V30 32 H 1.735298 -3.794803 1.223722 0
M  V30 33 H 3.489812 -3.977083 1.770268 0
M  V30 34 H 3.439947 -3.070816 -0.407231 0
M  V30 35 H 4.836900 -1.059105 0.106643 0
M  V30 36 H 5.000805 -2.372721 1.390039 0
M  V30 37 H 4.700723 -0.033076 2.344882 0
M  V30 38 H 2.929853 -0.788432 3.907723 0
M  V30 39 H 4.214178 -2.073694 3.615794 0
M  V30 40 H 2.508017 0.853436 2.438871 0
M  V30 41 H 3.166384 0.870650 0.709100 0
M  V30 42 H -0.513137 0.114611 1.259308 0
M  V30 43 H 0.172209 3.823485 -0.747078 0
M  V30 44 H -1.990775 4.977342 -1.298580 0
M  V30 45 H -5.153934 3.562681 -0.907741 0
M  V30 46 H -5.081304 0.944484 -1.257034 0
M  V30 47 H -6.101926 -1.257143 -1.109055 0
M  V30 48 H -6.752787 -3.717973 -0.861130 0
M  V30 49 H -4.871132 -5.360310 -0.291091 0
M  V30 50 H 1.148490 -2.083430 -0.332632 0
M  V30 51 H 2.412323 -0.870872 -0.880993 0
M  V30 52 H 0.358629 -2.114952 1.806366 0
M  V30 53 H 0.742764 -0.871107 3.009928 0
M  V30 END ATOM
M  V30 BEGIN BOND
M  V30 1 1 1 2
M  V30 2 1 2 3
M  V30 3 1 3 4
M  V30 4 1 4 5
M  V30 5 1 5 6
M  V30 6 1 6 7
M  V30 7 1 6 8
M  V30 8 1 8 9
M  V30 9 1 9 10
M  V30 10 1 10 11
M  V30 11 2 11 12
M  V30 12 1 11 13
M  V30 13 1 13 14
M  V30 14 2 14 15
M  V30 15 1 15 16
M  V30 16 1 16 17
M  V30 17 2 16 18
M  V30 18 1 18 19
M  V30 19 1 19 20
M  V30 20 1 20 21
M  V30 21 2 21 22
M  V30 22 1 22 23
M  V30 23 2 23 24
M  V30 24 1 24 25
M  V30 25 2 20 26
M  V30 26 1 26 27
M  V30 27 1 9 28
M  V30 28 1 9 29
M  V30 29 1 7 2
M  V30 30 2 27 13
M  V30 31 1 29 2
M  V30 32 1 28 4
M  V30 33 1 27 18
M  V30 34 1 25 21
M  V30 35 1 1 30
M  V30 36 1 1 31
M  V30 37 1 3 32
M  V30 38 1 3 33
M  V30 39 1 4 34
M  V30 40 1 5 35
M  V30 41 1 5 36
M  V30 42 1 6 37
M  V30 43 1 7 38
M  V30 44 1 7 39
M  V30 45 1 8 40
M  V30 46 1 8 41
M  V30 47 1 10 42
M  V30 48 1 14 43
M  V30 49 1 15 44
M  V30 50 1 17 45
M  V30 51 1 19 46
M  V30 52 1 22 47
M  V30 53 1 23 48
M  V30 54 1 24 49
M  V30 55 1 28 50
M  V30 56 1 28 51
M  V30 57 1 29 52
M  V30 58 1 29 53
M  V30 END BOND
M  V30 END CTAB
M  END
>  <Dataset>  (441) 
ChEMBL_Kinases

>  <Ligand_Instance>  (441) 
nan

>  <PDB_ID>  (441) 
nan

>  <Standardized_SMILES>  (441) 
NC12CC3CC(C1)CC(NC(=O)c1ccc(O)c4[nH]c(-c5cccs5)nc14)(C3)C2

>  <Name>  (441) 
nan

>  <Pocket>  (441) 
nan

>  <ATP_Site>  (441) 
nan

>  <Peripheral>  (441) 
nan

>  <Num_H_Atoms_ProtBoundConf>  (441) 
nan

>  <Num_Resolved_Atoms>  (441) 
nan

>  <Num_Not_Resolved_Atoms>  (441) 
nan

$$$$
CHEMBL3719304
     RDKit          3D

  0  0  0  0  0  0  0  0  0  0999 V3000
M  V30 BEGIN CTAB
M  V30 COUNTS 27 28 0 0 0
M  V30 BEGIN ATOM
M  V30 1 O 0.021544 -4.172212 4.044934 0
M  V30 2 C 0.156700 -2.961211 3.714635 0
M  V30 3 O -1.005955 -2.478951 3.167810 0
M  V30 4 C 1.518976 -2.521094 4.043574 0
M  V30 5 S 2.756074 -2.953190 2.803693 0
M  V30 6 C 2.494762 -2.088467 1.265665 0
M  V30 7 N 3.236817 -2.143523 0.145279 0
M  V30 8 N 2.683060 -1.335442 -0.773568 0
M  V30 9 C 1.601544 -0.783736 -0.226909 0
M  V30 10 C 0.649246 0.140694 -0.830038 0
M  V30 11 C 0.865661 0.606016 -2.110786 0
M  V30 12 C -0.064611 1.472297 -2.694342 0
M  V30 13 C -1.214332 1.895101 -2.037155 0
M  V30 14 C -1.368425 1.399397 -0.774504 0
M  V30 15 N -2.525026 1.772946 -0.044684 0 CHG=1 VAL=4
M  V30 16 O -3.479372 2.508688 -0.344163 0
M  V30 17 O -2.858181 1.369646 1.229510 0 CHG=-1 VAL=1
M  V30 18 C -0.498468 0.551650 -0.150127 0
M  V30 19 N 1.449702 -1.232561 1.060892 0
M  V30 20 H -1.910558 -2.916063 3.204235 0
M  V30 21 H 1.517436 -1.392311 4.074908 0
M  V30 22 H 1.831095 -2.826039 5.067887 0
M  V30 23 H 1.752885 0.316269 -2.692396 0
M  V30 24 H 0.126307 1.822287 -3.695987 0
M  V30 25 H -1.888259 2.565601 -2.553864 0
M  V30 26 H -0.701572 0.203313 0.859719 0
M  V30 27 H 0.698610 -0.963467 1.724015 0
M  V30 END ATOM
M  V30 BEGIN BOND
M  V30 1 2 1 2
M  V30 2 1 2 3
M  V30 3 1 2 4
M  V30 4 1 4 5
M  V30 5 1 5 6
M  V30 6 2 6 7
M  V30 7 1 7 8
M  V30 8 2 8 9
M  V30 9 1 9 10
M  V30 10 2 10 11
M  V30 11 1 11 12
M  V30 12 2 12 13
M  V30 13 1 13 14
M  V30 14 1 14 15
M  V30 15 2 15 16
M  V30 16 1 15 17
M  V30 17 2 14 18
M  V30 18 1 9 19
M  V30 19 1 19 6
M  V30 20 1 18 10
M  V30 21 1 3 20
M  V30 22 1 4 21
M  V30 23 1 4 22
M  V30 24 1 11 23
M  V30 25 1 12 24
M  V30 26 1 13 25
M  V30 27 1 18 26
M  V30 28 1 19 27
M  V30 END BOND
M  V30 END CTAB
M  END
>  <Dataset>  (442) 
ChEMBL_Kinases

>  <Ligand_Instance>  (442) 
nan

>  <PDB_ID>  (442) 
nan

>  <Standardized_SMILES>  (442) 
O=C(O)CSc1nnc(-c2cccc([N+](=O)[O-])c2)[nH]1

>  <Name>  (442) 
nan

>  <Pocket>  (442) 
nan

>  <ATP_Site>  (442) 
nan

>  <Peripheral>  (442) 
nan

>  <Num_H_Atoms_ProtBoundConf>  (442) 
nan

>  <Num_Resolved_Atoms>  (442) 
nan

>  <Num_Not_Resolved_Atoms>  (442) 
nan

$$$$
CHEMBL3719302
     RDKit          3D

  0  0  0  0  0  0  0  0  0  0999 V3000
M  V30 BEGIN CTAB
M  V30 COUNTS 56 59 0 0 0
M  V30 BEGIN ATOM
M  V30 1 O 3.747746 0.847605 -2.180628 0
M  V30 2 C 3.018787 1.395560 -1.310146 0
M  V30 3 N 3.264282 0.906526 0.019404 0
M  V30 4 C 4.165857 -0.072921 0.617048 0 CFG=1
M  V30 5 C 4.952124 0.588531 1.730303 0
M  V30 6 C 5.382447 -0.390167 2.773127 0
M  V30 7 C 4.182279 -1.039229 3.396234 0
M  V30 8 N 2.995285 -0.952654 2.581058 0
M  V30 9 C 3.300360 -1.167695 1.180957 0
M  V30 10 C 1.953990 2.420015 -1.213626 0
M  V30 11 C 2.406099 3.719360 -1.452520 0
M  V30 12 C 1.447447 4.709032 -1.309252 0
M  V30 13 N 0.173330 4.422889 -0.962920 0
M  V30 14 C -0.196288 3.160795 -0.749356 0
M  V30 15 N -1.377245 2.618629 -0.395386 0
M  V30 16 C -1.192399 1.317600 -0.315318 0
M  V30 17 C -2.247245 0.337483 0.021921 0
M  V30 18 C -2.397149 -1.010067 -0.021377 0
M  V30 19 C -3.522170 -1.591124 0.468140 0
M  V30 20 N -3.755192 -2.987549 0.442327 0
M  V30 21 C -4.778532 -3.807655 0.873793 0
M  V30 22 C -6.081709 -3.252951 1.359802 0
M  V30 23 O -6.794997 -2.524726 0.446449 0
M  V30 24 C -2.710556 -3.826444 -0.155225 0
M  V30 25 C -3.191671 -4.321778 -1.485441 0
M  V30 26 O -2.180085 -5.117616 -2.056175 0
M  V30 27 C -4.479260 -0.725119 1.000101 0
M  V30 28 S -3.824133 0.920180 0.823842 0
M  V30 29 N 0.060686 0.943602 -0.597903 0
M  V30 30 C 0.667709 2.087970 -0.862268 0
M  V30 31 H 2.733757 1.240277 0.889851 0
M  V30 32 H 4.864500 -0.529061 -0.088454 0
M  V30 33 H 4.226503 1.326705 2.204557 0
M  V30 34 H 5.795544 1.191743 1.334068 0
M  V30 35 H 5.986228 0.172710 3.542698 0
M  V30 36 H 6.065696 -1.143113 2.315997 0
M  V30 37 H 4.363762 -2.113824 3.677861 0
M  V30 38 H 3.982047 -0.518383 4.367169 0
M  V30 39 H 2.413490 -0.109390 2.762193 0
M  V30 40 H 3.750287 -2.176030 1.118779 0
M  V30 41 H 2.325739 -1.211460 0.628085 0
M  V30 42 H 3.427860 3.940224 -1.727489 0
M  V30 43 H 1.745655 5.748409 -1.482084 0
M  V30 44 H -1.505844 -1.389203 -0.482182 0
M  V30 45 H -4.362399 -4.504100 1.702638 0
M  V30 46 H -5.090923 -4.602336 0.118108 0
M  V30 47 H -5.906697 -2.757798 2.327419 0
M  V30 48 H -6.766049 -4.128716 1.639582 0
M  V30 49 H -7.603995 -2.992067 0.108086 0
M  V30 50 H -1.765323 -3.264906 -0.277998 0
M  V30 51 H -2.474069 -4.685759 0.527649 0
M  V30 52 H -4.121427 -4.898891 -1.386042 0
M  V30 53 H -3.397364 -3.467603 -2.190747 0
M  V30 54 H -2.116643 -4.880852 -3.026027 0
M  V30 55 H -5.412748 -0.658256 1.461828 0
M  V30 56 H 0.476122 -0.002266 -0.609665 0
M  V30 END ATOM
M  V30 BEGIN BOND
M  V30 1 2 1 2
M  V30 2 1 2 3
M  V30 3 1 3 4
M  V30 4 1 4 5
M  V30 5 1 5 6
M  V30 6 1 6 7
M  V30 7 1 7 8
M  V30 8 1 8 9
M  V30 9 1 2 10
M  V30 10 2 10 11
M  V30 11 1 11 12
M  V30 12 2 12 13
M  V30 13 1 13 14
M  V30 14 1 14 15
M  V30 15 2 15 16
M  V30 16 1 16 17
M  V30 17 2 17 18
M  V30 18 1 18 19
M  V30 19 1 19 20
M  V30 20 1 20 21
M  V30 21 1 21 22
M  V30 22 1 22 23
M  V30 23 1 20 24
M  V30 24 1 24 25
M  V30 25 1 25 26
M  V30 26 2 19 27
M  V30 27 1 27 28
M  V30 28 1 16 29
M  V30 29 1 29 30
M  V30 30 1 9 4
M  V30 31 1 30 10
M  V30 32 2 30 14
M  V30 33 1 28 17
M  V30 34 1 3 31
M  V30 35 1 4 32 CFG=3
M  V30 36 1 5 33
M  V30 37 1 5 34
M  V30 38 1 6 35
M  V30 39 1 6 36
M  V30 40 1 7 37
M  V30 41 1 7 38
M  V30 42 1 8 39
M  V30 43 1 9 40
M  V30 44 1 9 41
M  V30 45 1 11 42
M  V30 46 1 12 43
M  V30 47 1 18 44
M  V30 48 1 21 45
M  V30 49 1 21 46
M  V30 50 1 22 47
M  V30 51 1 22 48
M  V30 52 1 23 49
M  V30 53 1 24 50
M  V30 54 1 24 51
M  V30 55 1 25 52
M  V30 56 1 25 53
M  V30 57 1 26 54
M  V30 58 1 27 55
M  V30 59 1 29 56
M  V30 END BOND
M  V30 END CTAB
M  END
>  <Dataset>  (443) 
ChEMBL_Kinases

>  <Ligand_Instance>  (443) 
nan

>  <PDB_ID>  (443) 
nan

>  <Standardized_SMILES>  (443) 
O=C(N[C@H]1CCCNC1)c1ccnc2nc(-c3cc(N(CCO)CCO)cs3)[nH]c12

>  <Name>  (443) 
nan

>  <Pocket>  (443) 
nan

>  <ATP_Site>  (443) 
nan

>  <Peripheral>  (443) 
nan

>  <Num_H_Atoms_ProtBoundConf>  (443) 
nan

>  <Num_Resolved_Atoms>  (443) 
nan

>  <Num_Not_Resolved_Atoms>  (443) 
nan

$$$$
CHEMBL566135
     RDKit          3D

  0  0  0  0  0  0  0  0  0  0999 V3000
M  V30 BEGIN CTAB
M  V30 COUNTS 36 37 0 0 0
M  V30 BEGIN ATOM
M  V30 1 C -1.668314 -3.515267 1.273601 0
M  V30 2 C -1.345044 -3.459283 -0.184343 0
M  V30 3 O -0.626990 -2.289219 -0.568138 0
M  V30 4 C 0.608030 -1.973245 -0.049712 0
M  V30 5 C 1.342198 -2.680958 0.877863 0
M  V30 6 C 2.574237 -2.280160 1.335616 0
M  V30 7 C 3.136949 -1.114827 0.865069 0
M  V30 8 C 4.461558 -0.645318 1.330524 0
M  V30 9 C 2.409778 -0.409204 -0.056986 0
M  V30 10 C 1.152710 -0.784013 -0.547610 0
M  V30 11 S 0.303299 0.196264 -1.732567 0
M  V30 12 O 1.191161 1.359537 -2.069794 0
M  V30 13 O 0.099714 -0.593071 -2.995479 0
M  V30 14 N -1.219797 0.744857 -1.157597 0
M  V30 15 C -1.356890 1.578954 -0.028061 0
M  V30 16 C -0.615984 2.703406 0.283453 0
M  V30 17 C -0.876655 3.413181 1.433088 0
M  V30 18 C -1.887574 3.018047 2.305692 0
M  V30 19 N -2.610407 1.915364 1.995327 0
M  V30 20 C -2.342791 1.238113 0.873658 0
M  V30 21 H -1.230281 -2.675203 1.857587 0
M  V30 22 H -1.290223 -4.459414 1.713687 0
M  V30 23 H -2.781285 -3.560210 1.453824 0
M  V30 24 H -0.779343 -4.379015 -0.454406 0
M  V30 25 H -2.302499 -3.536861 -0.744463 0
M  V30 26 H 0.890381 -3.594505 1.238071 0
M  V30 27 H 3.085736 -2.891797 2.063966 0
M  V30 28 H 5.269418 -1.359582 1.050321 0
M  V30 29 H 4.451598 -0.596350 2.445702 0
M  V30 30 H 4.654973 0.355924 0.923724 0
M  V30 31 H 2.845669 0.506260 -0.430363 0
M  V30 32 H -2.118083 0.462903 -1.650120 0
M  V30 33 H 0.159581 2.960429 -0.438543 0
M  V30 34 H -0.292883 4.280388 1.657175 0
M  V30 35 H -2.100624 3.570086 3.213319 0
M  V30 36 H -2.977656 0.366916 0.711899 0
M  V30 END ATOM
M  V30 BEGIN BOND
M  V30 1 1 1 2
M  V30 2 1 2 3
M  V30 3 1 3 4
M  V30 4 2 4 5
M  V30 5 1 5 6
M  V30 6 2 6 7
M  V30 7 1 7 8
M  V30 8 1 7 9
M  V30 9 2 9 10
M  V30 10 1 10 11
M  V30 11 2 11 12
M  V30 12 2 11 13
M  V30 13 1 11 14
M  V30 14 1 14 15
M  V30 15 2 15 16
M  V30 16 1 16 17
M  V30 17 2 17 18
M  V30 18 1 18 19
M  V30 19 2 19 20
M  V30 20 1 10 4
M  V30 21 1 20 15
M  V30 22 1 1 21
M  V30 23 1 1 22
M  V30 24 1 1 23
M  V30 25 1 2 24
M  V30 26 1 2 25
M  V30 27 1 5 26
M  V30 28 1 6 27
M  V30 29 1 8 28
M  V30 30 1 8 29
M  V30 31 1 8 30
M  V30 32 1 9 31
M  V30 33 1 14 32
M  V30 34 1 16 33
M  V30 35 1 17 34
M  V30 36 1 18 35
M  V30 37 1 20 36
M  V30 END BOND
M  V30 END CTAB
M  END
>  <Dataset>  (444) 
ChEMBL_Kinases

>  <Ligand_Instance>  (444) 
nan

>  <PDB_ID>  (444) 
nan

>  <Standardized_SMILES>  (444) 
CCOc1ccc(C)cc1S(=O)(=O)Nc1cccnc1

>  <Name>  (444) 
nan

>  <Pocket>  (444) 
nan

>  <ATP_Site>  (444) 
nan

>  <Peripheral>  (444) 
nan

>  <Num_H_Atoms_ProtBoundConf>  (444) 
nan

>  <Num_Resolved_Atoms>  (444) 
nan

>  <Num_Not_Resolved_Atoms>  (444) 
nan

$$$$
CHEMBL3719268
     RDKit          3D

  0  0  0  0  0  0  0  0  0  0999 V3000
M  V30 BEGIN CTAB
M  V30 COUNTS 39 42 0 0 0
M  V30 BEGIN ATOM
M  V30 1 N -0.946329 -1.831523 2.596492 0
M  V30 2 C 0.172342 -2.714113 2.550662 0
M  V30 3 C -0.293681 -4.028356 1.964385 0
M  V30 4 C 0.789159 -4.591782 1.042639 0
M  V30 5 C 1.003893 -3.633468 -0.078333 0
M  V30 6 N 1.052883 -2.227689 0.372688 0
M  V30 7 C 0.817181 -1.274663 -0.651699 0
M  V30 8 C 0.931379 -1.647892 -1.973777 0
M  V30 9 C 0.746518 -0.739986 -2.973963 0
M  V30 10 N 0.447765 0.546591 -2.731027 0
M  V30 11 C 0.319627 0.984098 -1.469893 0
M  V30 12 N 0.024356 2.195226 -0.967550 0
M  V30 13 C 0.024295 2.040836 0.348130 0
M  V30 14 C -0.258553 3.152316 1.245327 0
M  V30 15 C -0.560678 4.474837 1.056497 0
M  V30 16 C -0.776061 5.274092 2.141227 0
M  V30 17 C -0.696496 4.775458 3.467993 0
M  V30 18 S -0.259741 2.936514 3.121674 0
M  V30 19 C 0.311534 0.765393 0.692789 0
M  V30 20 C 0.509253 0.055161 -0.470807 0
M  V30 21 C 1.365016 -2.191557 1.779225 0
M  V30 22 H -1.851075 -2.233140 2.270507 0
M  V30 23 H -1.027900 -1.290517 3.484158 0
M  V30 24 H 0.471788 -2.913940 3.609896 0
M  V30 25 H -0.562039 -4.705031 2.782376 0
M  V30 26 H -1.166431 -3.848594 1.269277 0
M  V30 27 H 0.339994 -5.529225 0.629063 0
M  V30 28 H 1.699290 -4.875140 1.592254 0
M  V30 29 H 0.256526 -3.743338 -0.893187 0
M  V30 30 H 1.997874 -3.823093 -0.533809 0
M  V30 31 H 1.168256 -2.642348 -2.313736 0
M  V30 32 H 0.829106 -0.999646 -4.017947 0
M  V30 33 H -0.161169 3.056597 -1.506117 0
M  V30 34 H -0.612193 4.816307 0.039294 0
M  V30 35 H -1.018106 6.324858 2.064406 0
M  V30 36 H -0.826285 5.226988 4.377107 0
M  V30 37 H 0.353343 0.439956 1.693681 0
M  V30 38 H 1.785722 -1.259948 2.154830 0
M  V30 39 H 2.186601 -2.961045 1.981379 0
M  V30 END ATOM
M  V30 BEGIN BOND
M  V30 1 1 1 2
M  V30 2 1 2 3
M  V30 3 1 3 4
M  V30 4 1 4 5
M  V30 5 1 5 6
M  V30 6 1 6 7
M  V30 7 2 7 8
M  V30 8 1 8 9
M  V30 9 2 9 10
M  V30 10 1 10 11
M  V30 11 1 11 12
M  V30 12 1 12 13
M  V30 13 1 13 14
M  V30 14 2 14 15
M  V30 15 1 15 16
M  V30 16 2 16 17
M  V30 17 1 17 18
M  V30 18 2 13 19
M  V30 19 1 19 20
M  V30 20 1 6 21
M  V30 21 1 21 2
M  V30 22 1 20 7
M  V30 23 2 20 11
M  V30 24 1 18 14
M  V30 25 1 1 22
M  V30 26 1 1 23
M  V30 27 1 2 24
M  V30 28 1 3 25
M  V30 29 1 3 26
M  V30 30 1 4 27
M  V30 31 1 4 28
M  V30 32 1 5 29
M  V30 33 1 5 30
M  V30 34 1 8 31
M  V30 35 1 9 32
M  V30 36 1 12 33
M  V30 37 1 15 34
M  V30 38 1 16 35
M  V30 39 1 17 36
M  V30 40 1 19 37
M  V30 41 1 21 38
M  V30 42 1 21 39
M  V30 END BOND
M  V30 END CTAB
M  END
>  <Dataset>  (445) 
ChEMBL_Kinases

>  <Ligand_Instance>  (445) 
nan

>  <PDB_ID>  (445) 
nan

>  <Standardized_SMILES>  (445) 
NC1CCCN(c2ccnc3[nH]c(-c4cccs4)cc23)C1

>  <Name>  (445) 
nan

>  <Pocket>  (445) 
nan

>  <ATP_Site>  (445) 
nan

>  <Peripheral>  (445) 
nan

>  <Num_H_Atoms_ProtBoundConf>  (445) 
nan

>  <Num_Resolved_Atoms>  (445) 
nan

>  <Num_Not_Resolved_Atoms>  (445) 
nan

$$$$
CHEMBL3719247
     RDKit          3D

  0  0  0  0  0  0  0  0  0  0999 V3000
M  V30 BEGIN CTAB
M  V30 COUNTS 48 51 0 0 0
M  V30 BEGIN ATOM
M  V30 1 O 2.183825 0.362202 2.207032 0
M  V30 2 C 0.958304 0.150682 1.906593 0
M  V30 3 N 0.716392 -1.177491 1.526867 0
M  V30 4 C 1.750999 -2.188466 1.488334 0
M  V30 5 C 2.861325 -1.920609 0.520073 0 CFG=2
M  V30 6 C 2.304958 -1.862198 -0.879508 0
M  V30 7 C 3.402169 -1.671994 -1.906490 0
M  V30 8 C 4.774206 -1.786981 -1.275081 0
M  V30 9 N 4.782785 -3.054428 -0.545376 0
M  V30 10 C 4.039463 -2.856201 0.671015 0
M  V30 11 C 0.058738 1.283036 2.011103 0
M  V30 12 C 0.536176 2.448656 2.610037 0
M  V30 13 C -0.208625 3.584803 2.798505 0
M  V30 14 C -1.515909 3.616283 2.384002 0
M  V30 15 O -2.321630 4.733967 2.544895 0
M  V30 16 C -2.026471 2.487226 1.787177 0
M  V30 17 N -3.237339 2.235667 1.292157 0
M  V30 18 C -3.230974 0.977152 0.810440 0
M  V30 19 C -4.444445 0.389938 0.195010 0
M  V30 20 C -4.373281 -1.066376 0.208899 0
M  V30 21 C -4.712209 -2.158084 1.001112 0
M  V30 22 C -4.434354 -3.411621 0.579373 0
M  V30 23 C -3.792615 -3.570873 -0.686442 0
M  V30 24 S -3.589886 -1.786136 -1.279664 0
M  V30 25 N -2.005965 0.420393 0.999829 0
M  V30 26 C -1.250790 1.362807 1.611779 0
M  V30 27 H -0.295543 -1.347527 1.270629 0
M  V30 28 H 2.164720 -2.195586 2.548680 0
M  V30 29 H 1.292928 -3.180139 1.312190 0
M  V30 30 H 3.283456 -0.891848 0.732500 0
M  V30 31 H 1.624556 -0.994881 -0.955448 0
M  V30 32 H 1.698766 -2.772831 -1.074540 0
M  V30 33 H 3.316984 -2.522073 -2.631877 0
M  V30 34 H 3.329176 -0.735418 -2.479156 0
M  V30 35 H 4.860106 -0.963494 -0.552721 0
M  V30 36 H 5.550200 -1.766927 -2.058640 0
M  V30 37 H 5.770448 -3.253531 -0.296943 0
M  V30 38 H 4.771450 -2.477952 1.446180 0
M  V30 39 H 3.700505 -3.841982 1.060543 0
M  V30 40 H 1.554439 2.530364 2.974190 0
M  V30 41 H 0.183506 4.474170 3.266920 0
M  V30 42 H -1.913997 5.504643 3.097391 0
M  V30 43 H -4.038654 2.917724 1.289138 0
M  V30 44 H -4.582798 0.789996 -0.827605 0
M  V30 45 H -5.338348 0.731821 0.785499 0
M  V30 46 H -5.186003 -1.858912 1.918201 0
M  V30 47 H -4.690521 -4.268228 1.180956 0
M  V30 48 H -3.536198 -4.585957 -1.093032 0
M  V30 END ATOM
M  V30 BEGIN BOND
M  V30 1 2 1 2
M  V30 2 1 2 3
M  V30 3 1 3 4
M  V30 4 1 4 5
M  V30 5 1 5 6
M  V30 6 1 6 7
M  V30 7 1 7 8
M  V30 8 1 8 9
M  V30 9 1 9 10
M  V30 10 1 2 11
M  V30 11 2 11 12
M  V30 12 1 12 13
M  V30 13 2 13 14
M  V30 14 1 14 15
M  V30 15 1 14 16
M  V30 16 1 16 17
M  V30 17 1 17 18
M  V30 18 1 18 19
M  V30 19 1 19 20
M  V30 20 2 20 21
M  V30 21 1 21 22
M  V30 22 2 22 23
M  V30 23 1 23 24
M  V30 24 2 18 25
M  V30 25 1 25 26
M  V30 26 1 10 5
M  V30 27 1 26 11
M  V30 28 2 26 16
M  V30 29 1 24 20
M  V30 30 1 3 27
M  V30 31 1 4 28
M  V30 32 1 4 29
M  V30 33 1 5 30 CFG=1
M  V30 34 1 6 31
M  V30 35 1 6 32
M  V30 36 1 7 33
M  V30 37 1 7 34
M  V30 38 1 8 35
M  V30 39 1 8 36
M  V30 40 1 9 37
M  V30 41 1 10 38
M  V30 42 1 10 39
M  V30 43 1 12 40
M  V30 44 1 13 41
M  V30 45 1 15 42
M  V30 46 1 17 43
M  V30 47 1 19 44
M  V30 48 1 19 45
M  V30 49 1 21 46
M  V30 50 1 22 47
M  V30 51 1 23 48
M  V30 END BOND
M  V30 END CTAB
M  END
>  <Dataset>  (446) 
ChEMBL_Kinases

>  <Ligand_Instance>  (446) 
nan

>  <PDB_ID>  (446) 
nan

>  <Standardized_SMILES>  (446) 
O=C(NC[C@@H]1CCCNC1)c1ccc(O)c2[nH]c(Cc3cccs3)nc12

>  <Name>  (446) 
nan

>  <Pocket>  (446) 
nan

>  <ATP_Site>  (446) 
nan

>  <Peripheral>  (446) 
nan

>  <Num_H_Atoms_ProtBoundConf>  (446) 
nan

>  <Num_Resolved_Atoms>  (446) 
nan

>  <Num_Not_Resolved_Atoms>  (446) 
nan

$$$$
CHEMBL566263
     RDKit          3D

  0  0  0  0  0  0  0  0  0  0999 V3000
M  V30 BEGIN CTAB
M  V30 COUNTS 49 52 0 0 0
M  V30 BEGIN ATOM
M  V30 1 C -0.113276 -6.832545 4.316988 0
M  V30 2 O 0.878186 -6.464919 3.408319 0
M  V30 3 C 1.014697 -5.195735 2.867824 0
M  V30 4 C 0.163398 -4.158145 3.186725 0
M  V30 5 C 0.316623 -2.904042 2.638189 0
M  V30 6 C 1.332852 -2.641280 1.745736 0
M  V30 7 C 1.453473 -1.302382 1.194020 0
M  V30 8 C 2.335288 -0.842473 0.340435 0
M  V30 9 C 2.592206 0.426832 -0.296197 0
M  V30 10 C 3.682076 0.527723 -1.145373 0
M  V30 11 N 3.973691 1.680947 -1.763236 0
M  V30 12 C 3.246977 2.798391 -1.607985 0
M  V30 13 C 2.150418 2.767953 -0.778712 0
M  V30 14 C 1.374620 3.962676 -0.613626 0
M  V30 15 N 0.744736 4.918927 -0.462091 0
M  V30 16 C 1.867838 1.580308 -0.156027 0
M  V30 17 N 0.712771 1.634869 0.661033 0
M  V30 18 C -0.500966 1.426567 -0.094636 0
M  V30 19 C -0.490482 1.203512 -1.454539 0
M  V30 20 C -1.684481 1.005200 -2.157828 0
M  V30 21 C -2.897575 1.029370 -1.501129 0
M  V30 22 N -4.148907 0.862790 -1.987480 0
M  V30 23 C -5.003500 0.977449 -0.931533 0
M  V30 24 C -4.265029 1.217776 0.218541 0
M  V30 25 C -2.934324 1.250791 -0.140123 0
M  V30 26 C -1.750187 1.443897 0.535710 0
M  V30 27 C -1.769077 1.681128 1.985257 0
M  V30 28 C 2.162239 -3.696293 1.450081 0
M  V30 29 C 2.042671 -4.964745 1.976921 0
M  V30 30 H 0.172040 -6.591094 5.372097 0
M  V30 31 H -1.080228 -6.315150 4.154945 0
M  V30 32 H -0.335581 -7.918361 4.270353 0
M  V30 33 H -0.646996 -4.322322 3.882947 0
M  V30 34 H -0.370567 -2.103800 2.908339 0
M  V30 35 H 0.754529 -0.546033 1.497012 0
M  V30 36 H 3.007954 -1.668676 0.090100 0
M  V30 37 H 4.336326 -0.314111 -1.342112 0
M  V30 38 H 3.586488 3.656219 -2.158825 0
M  V30 39 H 0.604873 1.802007 1.685910 0
M  V30 40 H 0.441920 1.178023 -2.001282 0
M  V30 41 H -1.648738 0.829292 -3.241893 0
M  V30 42 H -4.430053 0.677347 -2.996284 0
M  V30 43 H -6.083174 0.885952 -1.033728 0
M  V30 44 H -4.657083 1.354384 1.213482 0
M  V30 45 H -1.231601 0.854306 2.489534 0
M  V30 46 H -1.210691 2.626963 2.191264 0
M  V30 47 H -2.814294 1.737716 2.365026 0
M  V30 48 H 2.972640 -3.562757 0.764293 0
M  V30 49 H 2.738180 -5.761897 1.699156 0
M  V30 END ATOM
M  V30 BEGIN BOND
M  V30 1 1 1 2
M  V30 2 1 2 3
M  V30 3 2 3 4
M  V30 4 1 4 5
M  V30 5 2 5 6
M  V30 6 1 6 7
M  V30 7 2 7 8
M  V30 8 1 8 9
M  V30 9 2 9 10
M  V30 10 1 10 11
M  V30 11 2 11 12
M  V30 12 1 12 13
M  V30 13 1 13 14
M  V30 14 3 14 15
M  V30 15 2 13 16
M  V30 16 1 16 17
M  V30 17 1 17 18
M  V30 18 2 18 19
M  V30 19 1 19 20
M  V30 20 2 20 21
M  V30 21 1 21 22
M  V30 22 1 22 23
M  V30 23 2 23 24
M  V30 24 1 24 25
M  V30 25 2 25 26
M  V30 26 1 26 27
M  V30 27 1 6 28
M  V30 28 2 28 29
M  V30 29 1 29 3
M  V30 30 1 16 9
M  V30 31 1 26 18
M  V30 32 1 25 21
M  V30 33 1 1 30
M  V30 34 1 1 31
M  V30 35 1 1 32
M  V30 36 1 4 33
M  V30 37 1 5 34
M  V30 38 1 7 35
M  V30 39 1 8 36
M  V30 40 1 10 37
M  V30 41 1 12 38
M  V30 42 1 17 39
M  V30 43 1 19 40
M  V30 44 1 20 41
M  V30 45 1 22 42
M  V30 46 1 23 43
M  V30 47 1 24 44
M  V30 48 1 27 45
M  V30 49 1 27 46
M  V30 50 1 27 47
M  V30 51 1 28 48
M  V30 52 1 29 49
M  V30 END BOND
M  V30 END CTAB
M  END
>  <Dataset>  (447) 
ChEMBL_Kinases

>  <Ligand_Instance>  (447) 
nan

>  <PDB_ID>  (447) 
nan

>  <Standardized_SMILES>  (447) 
COc1ccc(/C=C/c2cncc(C#N)c2Nc2ccc3[nH]ccc3c2C)cc1

>  <Name>  (447) 
nan

>  <Pocket>  (447) 
nan

>  <ATP_Site>  (447) 
nan

>  <Peripheral>  (447) 
nan

>  <Num_H_Atoms_ProtBoundConf>  (447) 
nan

>  <Num_Resolved_Atoms>  (447) 
nan

>  <Num_Not_Resolved_Atoms>  (447) 
nan

$$$$
CHEMBL371920
     RDKit          3D

  0  0  0  0  0  0  0  0  0  0999 V3000
M  V30 BEGIN CTAB
M  V30 COUNTS 43 45 0 0 0
M  V30 BEGIN ATOM
M  V30 1 C 1.483032 -5.882705 1.990035 0
M  V30 2 C 2.632793 -4.901392 2.163271 0
M  V30 3 C 2.200087 -3.506079 1.714610 0
M  V30 4 N 2.162599 -2.833115 0.814733 0
M  V30 5 C 1.721308 -1.603051 0.652996 0
M  V30 6 C 1.734413 -0.842764 -0.592032 0
M  V30 7 C 0.909812 -1.352619 -1.603973 0
M  V30 8 C 0.781837 -0.784729 -2.858541 0
M  V30 9 C 1.515515 0.352077 -3.115341 0
M  V30 10 C 2.337354 0.878022 -2.136789 0
M  V30 11 C 3.120269 2.104366 -2.432556 0
M  V30 12 C 2.442358 0.289670 -0.900781 0
M  V30 13 C 1.216381 -1.040736 1.787517 0
M  V30 14 C 0.610797 0.261902 2.175812 0
M  V30 15 C 1.162398 1.524611 2.220008 0
M  V30 16 C 0.369220 2.562102 2.616881 0
M  V30 17 N -0.919657 2.368210 2.958461 0
M  V30 18 C -1.496996 1.133825 2.926441 0
M  V30 19 N -2.864377 1.103203 3.317626 0
M  V30 20 C -3.731787 1.304260 2.183167 0
M  V30 21 C -5.215854 1.312939 2.345863 0
M  V30 22 O -3.335139 1.484281 0.996084 0
M  V30 23 C -0.711427 0.075045 2.528129 0
M  V30 24 S 1.437226 -2.414136 3.050077 0
M  V30 25 H 1.187797 -6.340592 2.938906 0
M  V30 26 H 0.603629 -5.337375 1.584624 0
M  V30 27 H 1.771053 -6.629757 1.226259 0
M  V30 28 H 3.524189 -5.184641 1.605361 0
M  V30 29 H 2.915014 -4.872399 3.233415 0
M  V30 30 H 0.306879 -2.258925 -1.442314 0
M  V30 31 H 0.138248 -1.209131 -3.605871 0
M  V30 32 H 1.445788 0.834715 -4.092722 0
M  V30 33 H 4.097486 2.141520 -1.928349 0
M  V30 34 H 2.479837 2.983208 -2.133880 0
M  V30 35 H 3.226949 2.212984 -3.549622 0
M  V30 36 H 3.062982 0.657844 -0.121104 0
M  V30 37 H 2.197120 1.515928 1.922270 0
M  V30 38 H 0.864450 3.526036 2.629434 0
M  V30 39 H -3.327210 0.965700 4.249802 0
M  V30 40 H -5.624697 0.634585 1.555453 0
M  V30 41 H -5.658443 2.306764 2.139154 0
M  V30 42 H -5.537758 0.946543 3.341530 0
M  V30 43 H -1.260506 -0.865577 2.534748 0
M  V30 END ATOM
M  V30 BEGIN BOND
M  V30 1 1 1 2
M  V30 2 1 2 3
M  V30 3 2 3 4
M  V30 4 1 4 5
M  V30 5 1 5 6
M  V30 6 2 6 7
M  V30 7 1 7 8
M  V30 8 2 8 9
M  V30 9 1 9 10
M  V30 10 1 10 11
M  V30 11 2 10 12
M  V30 12 2 5 13
M  V30 13 1 13 14
M  V30 14 2 14 15
M  V30 15 1 15 16
M  V30 16 2 16 17
M  V30 17 1 17 18
M  V30 18 1 18 19
M  V30 19 1 19 20
M  V30 20 1 20 21
M  V30 21 2 20 22
M  V30 22 2 18 23
M  V30 23 1 13 24
M  V30 24 1 24 3
M  V30 25 1 12 6
M  V30 26 1 23 14
M  V30 27 1 1 25
M  V30 28 1 1 26
M  V30 29 1 1 27
M  V30 30 1 2 28
M  V30 31 1 2 29
M  V30 32 1 7 30
M  V30 33 1 8 31
M  V30 34 1 9 32
M  V30 35 1 11 33
M  V30 36 1 11 34
M  V30 37 1 11 35
M  V30 38 1 12 36
M  V30 39 1 15 37
M  V30 40 1 16 38
M  V30 41 1 19 39
M  V30 42 1 21 40
M  V30 43 1 21 41
M  V30 44 1 21 42
M  V30 45 1 23 43
M  V30 END BOND
M  V30 END CTAB
M  END
>  <Dataset>  (448) 
ChEMBL_Kinases

>  <Ligand_Instance>  (448) 
nan

>  <PDB_ID>  (448) 
nan

>  <Standardized_SMILES>  (448) 
CCc1nc(-c2cccc(C)c2)c(-c2ccnc(NC(C)=O)c2)s1

>  <Name>  (448) 
nan

>  <Pocket>  (448) 
nan

>  <ATP_Site>  (448) 
nan

>  <Peripheral>  (448) 
nan

>  <Num_H_Atoms_ProtBoundConf>  (448) 
nan

>  <Num_Resolved_Atoms>  (448) 
nan

>  <Num_Not_Resolved_Atoms>  (448) 
nan

$$$$
CHEMBL566283
     RDKit          3D

  0  0  0  0  0  0  0  0  0  0999 V3000
M  V30 BEGIN CTAB
M  V30 COUNTS 50 54 0 0 0
M  V30 BEGIN ATOM
M  V30 1 C 0.826657 -4.634537 1.134425 0
M  V30 2 C 1.235569 -3.431390 1.925444 0
M  V30 3 C 0.436302 -3.053384 2.958215 0
M  V30 4 C 0.791737 -1.937261 3.712486 0
M  V30 5 C 1.950238 -1.270089 3.363605 0
M  V30 6 C 2.773533 -1.653036 2.305972 0
M  V30 7 C 4.014941 -0.857510 2.011309 0
M  V30 8 N 3.852461 0.207617 1.112869 0
M  V30 9 C 3.706507 1.276205 0.216897 0
M  V30 10 N 4.613259 2.166824 -0.204649 0
M  V30 11 C 4.439018 3.168795 -1.055377 0
M  V30 12 N 3.215494 3.303412 -1.547738 0
M  V30 13 C 2.213164 2.489363 -1.217103 0
M  V30 14 C 1.021428 2.797787 -1.838037 0
M  V30 15 C -0.066781 1.979802 -1.531806 0
M  V30 16 C 0.081270 0.942832 -0.661728 0
M  V30 17 C -1.056146 0.115854 -0.362660 0
M  V30 18 C -0.972598 -1.225280 -0.050883 0
M  V30 19 C -2.078933 -1.984471 0.230038 0
M  V30 20 C -3.346273 -1.445481 0.216306 0
M  V30 21 C -3.490337 -0.087940 -0.093953 0
M  V30 22 C -2.334346 0.633230 -0.370249 0
M  V30 23 O -4.724362 0.541865 -0.132146 0
M  V30 24 C -5.909786 -0.091378 0.276056 0
M  V30 25 C -5.807207 -1.597631 0.228150 0
M  V30 26 O -4.530633 -2.094445 0.477835 0
M  V30 27 C 1.322156 0.736256 -0.106184 0
M  V30 28 C 2.467061 1.469948 -0.327533 0
M  V30 29 C 2.395661 -2.773742 1.566365 0
M  V30 30 H 0.441404 -5.415990 1.820974 0
M  V30 31 H 0.065275 -4.305440 0.426079 0
M  V30 32 H 1.685072 -5.078125 0.590097 0
M  V30 33 H -0.475713 -3.611005 3.202012 0
M  V30 34 H 0.182019 -1.616033 4.531306 0
M  V30 35 H 2.246315 -0.402536 3.933037 0
M  V30 36 H 4.386055 -0.585639 3.044360 0
M  V30 37 H 4.767493 -1.615593 1.619251 0
M  V30 38 H 4.890541 0.402192 1.304393 0
M  V30 39 H 5.281889 3.806127 -1.295646 0
M  V30 40 H 0.890257 3.603622 -2.519364 0
M  V30 41 H -1.026221 2.171756 -1.986700 0
M  V30 42 H 0.007968 -1.680566 -0.031258 0
M  V30 43 H -2.056294 -3.028597 0.476844 0
M  V30 44 H -2.449555 1.683998 -0.609921 0
M  V30 45 H -6.086094 0.180974 1.350312 0
M  V30 46 H -6.729829 0.278312 -0.375199 0
M  V30 47 H -6.508610 -2.054839 0.961566 0
M  V30 48 H -6.088064 -1.902401 -0.821400 0
M  V30 49 H 1.398318 -0.090496 0.573909 0
M  V30 50 H 3.040241 -3.073376 0.738688 0
M  V30 END ATOM
M  V30 BEGIN BOND
M  V30 1 1 1 2
M  V30 2 2 2 3
M  V30 3 1 3 4
M  V30 4 2 4 5
M  V30 5 1 5 6
M  V30 6 1 6 7
M  V30 7 1 7 8
M  V30 8 1 8 9
M  V30 9 2 9 10
M  V30 10 1 10 11
M  V30 11 2 11 12
M  V30 12 1 12 13
M  V30 13 2 13 14
M  V30 14 1 14 15
M  V30 15 2 15 16
M  V30 16 1 16 17
M  V30 17 2 17 18
M  V30 18 1 18 19
M  V30 19 2 19 20
M  V30 20 1 20 21
M  V30 21 2 21 22
M  V30 22 1 21 23
M  V30 23 1 23 24
M  V30 24 1 24 25
M  V30 25 1 25 26
M  V30 26 1 16 27
M  V30 27 2 27 28
M  V30 28 2 6 29
M  V30 29 1 29 2
M  V30 30 1 28 9
M  V30 31 1 28 13
M  V30 32 1 22 17
M  V30 33 1 26 20
M  V30 34 1 1 30
M  V30 35 1 1 31
M  V30 36 1 1 32
M  V30 37 1 3 33
M  V30 38 1 4 34
M  V30 39 1 5 35
M  V30 40 1 7 36
M  V30 41 1 7 37
M  V30 42 1 8 38
M  V30 43 1 11 39
M  V30 44 1 14 40
M  V30 45 1 15 41
M  V30 46 1 18 42
M  V30 47 1 19 43
M  V30 48 1 22 44
M  V30 49 1 24 45
M  V30 50 1 24 46
M  V30 51 1 25 47
M  V30 52 1 25 48
M  V30 53 1 27 49
M  V30 54 1 29 50
M  V30 END BOND
M  V30 END CTAB
M  END
>  <Dataset>  (449) 
ChEMBL_Kinases

>  <Ligand_Instance>  (449) 
nan

>  <PDB_ID>  (449) 
nan

>  <Standardized_SMILES>  (449) 
Cc1cccc(CNc2ncnc3ccc(-c4ccc5c(c4)OCCO5)cc23)c1

>  <Name>  (449) 
nan

>  <Pocket>  (449) 
nan

>  <ATP_Site>  (449) 
nan

>  <Peripheral>  (449) 
nan

>  <Num_H_Atoms_ProtBoundConf>  (449) 
nan

>  <Num_Resolved_Atoms>  (449) 
nan

>  <Num_Not_Resolved_Atoms>  (449) 
nan

$$$$
CHEMBL3719184
     RDKit          3D

  0  0  0  0  0  0  0  0  0  0999 V3000
M  V30 BEGIN CTAB
M  V30 COUNTS 29 30 0 0 0
M  V30 BEGIN ATOM
M  V30 1 C 1.604888 -2.655880 5.947353 0
M  V30 2 O 1.689306 -3.220128 4.670111 0
M  V30 3 C 1.465512 -2.600900 3.461780 0
M  V30 4 C 1.095712 -1.240658 3.268582 0
M  V30 5 C 0.914503 -0.796781 1.980866 0
M  V30 6 F 0.564498 0.492665 1.887468 0
M  V30 7 C 1.055545 -1.541703 0.852301 0
M  V30 8 C 0.888197 -1.104266 -0.516029 0
M  V30 9 N 0.937399 -1.683769 -1.702661 0
M  V30 10 N 0.684359 -0.834861 -2.702094 0
M  V30 11 C 0.452300 0.384553 -2.147898 0
M  V30 12 S 0.059593 1.842822 -3.092682 0
M  V30 13 C -1.746218 1.937301 -3.385583 0
M  V30 14 C -2.446522 2.081930 -2.084851 0
M  V30 15 O -2.753596 1.132947 -1.281471 0
M  V30 16 O -2.874169 3.264028 -1.546676 0
M  V30 17 N 0.582014 0.195318 -0.817059 0
M  V30 18 C 1.420074 -2.890922 1.015267 0
M  V30 19 F 1.580486 -3.700444 -0.070324 0
M  V30 20 C 1.598055 -3.321929 2.305393 0
M  V30 21 H 2.628671 -2.376043 6.288914 0
M  V30 22 H 1.100872 -3.319350 6.682178 0
M  V30 23 H 1.030734 -1.699783 5.865455 0
M  V30 24 H 0.982880 -0.643548 4.142011 0
M  V30 25 H -2.121196 1.158135 -4.039637 0
M  V30 26 H -1.966425 2.922174 -3.911622 0
M  V30 27 H -3.015495 3.479969 -0.563289 0
M  V30 28 H 0.426397 1.072935 -0.258561 0
M  V30 29 H 1.884523 -4.386211 2.401450 0
M  V30 END ATOM
M  V30 BEGIN BOND
M  V30 1 1 1 2
M  V30 2 1 2 3
M  V30 3 2 3 4
M  V30 4 1 4 5
M  V30 5 1 5 6
M  V30 6 2 5 7
M  V30 7 1 7 8
M  V30 8 2 8 9
M  V30 9 1 9 10
M  V30 10 2 10 11
M  V30 11 1 11 12
M  V30 12 1 12 13
M  V30 13 1 13 14
M  V30 14 2 14 15
M  V30 15 1 14 16
M  V30 16 1 11 17
M  V30 17 1 7 18
M  V30 18 1 18 19
M  V30 19 2 18 20
M  V30 20 1 20 3
M  V30 21 1 17 8
M  V30 22 1 1 21
M  V30 23 1 1 22
M  V30 24 1 1 23
M  V30 25 1 4 24
M  V30 26 1 13 25
M  V30 27 1 13 26
M  V30 28 1 16 27
M  V30 29 1 17 28
M  V30 30 1 20 29
M  V30 END BOND
M  V30 END CTAB
M  END
>  <Dataset>  (450) 
ChEMBL_Kinases

>  <Ligand_Instance>  (450) 
nan

>  <PDB_ID>  (450) 
nan

>  <Standardized_SMILES>  (450) 
COc1cc(F)c(-c2nnc(SCC(=O)O)[nH]2)c(F)c1

>  <Name>  (450) 
nan

>  <Pocket>  (450) 
nan

>  <ATP_Site>  (450) 
nan

>  <Peripheral>  (450) 
nan

>  <Num_H_Atoms_ProtBoundConf>  (450) 
nan

>  <Num_Resolved_Atoms>  (450) 
nan

>  <Num_Not_Resolved_Atoms>  (450) 
nan

$$$$
CHEMBL3719183
     RDKit          3D

  0  0  0  0  0  0  0  0  0  0999 V3000
M  V30 BEGIN CTAB
M  V30 COUNTS 39 42 0 0 0
M  V30 BEGIN ATOM
M  V30 1 C 2.261451 -3.091672 -1.511271 0
M  V30 2 C 2.308384 -1.568895 -1.319704 0
M  V30 3 N 1.880353 -0.976773 -2.552553 0
M  V30 4 C 1.820120 0.451520 -2.678489 0
M  V30 5 C 2.163990 1.268846 -1.642371 0
M  V30 6 C 2.136090 2.659291 -1.674944 0
M  V30 7 C 1.726297 3.259543 -2.854043 0
M  V30 8 Cl 1.640754 4.993322 -3.043312 0
M  V30 9 C 1.369925 2.456391 -3.926279 0
M  V30 10 C 1.419286 1.068449 -3.830761 0
M  V30 11 C 1.302520 -1.331375 -0.221645 0
M  V30 12 O 0.236021 -0.671413 -0.470220 0
M  V30 13 N 1.520399 -1.823231 1.065091 0
M  V30 14 C 0.488296 -1.553135 2.100442 0
M  V30 15 N -0.467756 -2.247215 2.364601 0
M  V30 16 C -1.365945 -1.979486 3.289674 0
M  V30 17 C -2.483837 -2.695766 3.668677 0
M  V30 18 C -3.304586 -2.238831 4.670220 0
M  V30 19 C -3.121992 -1.073019 5.380161 0
M  V30 20 N -3.669792 -0.341093 6.362835 0
M  V30 21 N -2.966551 0.755291 6.599662 0
M  V30 22 C -1.888305 0.822349 5.775015 0
M  V30 23 C -2.016092 -0.326162 5.033379 0
M  V30 24 C -1.192519 -0.805209 4.013275 0
M  V30 25 S 0.344314 -0.145147 3.253317 0
M  V30 26 H 1.190907 -3.330968 -1.642862 0
M  V30 27 H 2.894609 -3.416220 -2.341832 0
M  V30 28 H 2.591948 -3.579677 -0.573171 0
M  V30 29 H 3.315553 -1.252848 -1.052874 0
M  V30 30 H 1.596758 -1.543292 -3.403283 0
M  V30 31 H 2.495925 0.882393 -0.683762 0
M  V30 32 H 2.414185 3.283044 -0.838338 0
M  V30 33 H 1.047751 2.900003 -4.854268 0
M  V30 34 H 1.132644 0.475777 -4.691304 0
M  V30 35 H 2.379959 -2.362168 1.289787 0
M  V30 36 H -2.757965 -3.624821 3.207162 0
M  V30 37 H -4.198136 -2.810603 4.973721 0
M  V30 38 H -4.555983 -0.668953 6.839876 0
M  V30 39 H -1.102017 1.540948 5.666503 0
M  V30 END ATOM
M  V30 BEGIN BOND
M  V30 1 1 1 2
M  V30 2 1 2 3
M  V30 3 1 3 4
M  V30 4 2 4 5
M  V30 5 1 5 6
M  V30 6 2 6 7
M  V30 7 1 7 8
M  V30 8 1 7 9
M  V30 9 2 9 10
M  V30 10 1 2 11
M  V30 11 2 11 12
M  V30 12 1 11 13
M  V30 13 1 13 14
M  V30 14 2 14 15
M  V30 15 1 15 16
M  V30 16 2 16 17
M  V30 17 1 17 18
M  V30 18 2 18 19
M  V30 19 1 19 20
M  V30 20 1 20 21
M  V30 21 2 21 22
M  V30 22 1 22 23
M  V30 23 2 23 24
M  V30 24 1 24 25
M  V30 25 1 10 4
M  V30 26 1 25 14
M  V30 27 1 24 16
M  V30 28 1 23 19
M  V30 29 1 1 26
M  V30 30 1 1 27
M  V30 31 1 1 28
M  V30 32 1 2 29
M  V30 33 1 3 30
M  V30 34 1 5 31
M  V30 35 1 6 32
M  V30 36 1 9 33
M  V30 37 1 10 34
M  V30 38 1 13 35
M  V30 39 1 17 36
M  V30 40 1 18 37
M  V30 41 1 20 38
M  V30 42 1 22 39
M  V30 END BOND
M  V30 END CTAB
M  END
>  <Dataset>  (451) 
ChEMBL_Kinases

>  <Ligand_Instance>  (451) 
nan

>  <PDB_ID>  (451) 
nan

>  <Standardized_SMILES>  (451) 
CC(Nc1ccc(Cl)cc1)C(=O)Nc1nc2ccc3[nH]ncc3c2s1

>  <Name>  (451) 
nan

>  <Pocket>  (451) 
nan

>  <ATP_Site>  (451) 
nan

>  <Peripheral>  (451) 
nan

>  <Num_H_Atoms_ProtBoundConf>  (451) 
nan

>  <Num_Resolved_Atoms>  (451) 
nan

>  <Num_Not_Resolved_Atoms>  (451) 
nan

$$$$
CHEMBL3718480
     RDKit          3D

  0  0  0  0  0  0  0  0  0  0999 V3000
M  V30 BEGIN CTAB
M  V30 COUNTS 29 30 0 0 0
M  V30 BEGIN ATOM
M  V30 1 C -1.325894 -2.507710 3.230086 0
M  V30 2 O -0.235533 -3.388789 3.090828 0
M  V30 3 C 0.718111 -3.128373 2.115122 0
M  V30 4 C 1.810969 -3.960840 1.932031 0
M  V30 5 C 2.781857 -3.726660 0.964093 0
M  V30 6 F 3.839630 -4.542962 0.795164 0
M  V30 7 C 2.648490 -2.603775 0.141760 0
M  V30 8 C 1.577359 -1.746169 0.287024 0
M  V30 9 C 1.399460 -0.554884 -0.554906 0
M  V30 10 N 2.239215 -0.180756 -1.536612 0
M  V30 11 N 1.789974 0.945601 -2.107818 0
M  V30 12 C 0.637670 1.298444 -1.477062 0
M  V30 13 S -0.359635 2.745896 -1.871207 0
M  V30 14 C -1.779041 2.747073 -0.710507 0
M  V30 15 C -1.147334 2.981608 0.638160 0
M  V30 16 O 0.102083 3.121967 0.686969 0
M  V30 17 O -1.821178 3.059010 1.851691 0
M  V30 18 N 0.421084 0.371376 -0.537327 0
M  V30 19 C 0.653844 -2.040555 1.267204 0
M  V30 20 H -1.037801 -1.579212 3.753438 0
M  V30 21 H -1.813220 -2.273905 2.265844 0
M  V30 22 H -2.089129 -3.032189 3.863946 0
M  V30 23 H 1.932975 -4.835561 2.560067 0
M  V30 24 H 3.365176 -2.359579 -0.631490 0
M  V30 25 H -2.500801 3.527239 -0.951293 0
M  V30 26 H -2.229748 1.716304 -0.644624 0
M  V30 27 H -1.284233 2.912335 2.720559 0
M  V30 28 H -0.377405 0.339622 0.128967 0
M  V30 29 H -0.194047 -1.356954 1.378586 0
M  V30 END ATOM
M  V30 BEGIN BOND
M  V30 1 1 1 2
M  V30 2 1 2 3
M  V30 3 2 3 4
M  V30 4 1 4 5
M  V30 5 1 5 6
M  V30 6 2 5 7
M  V30 7 1 7 8
M  V30 8 1 8 9
M  V30 9 2 9 10
M  V30 10 1 10 11
M  V30 11 2 11 12
M  V30 12 1 12 13
M  V30 13 1 13 14
M  V30 14 1 14 15
M  V30 15 2 15 16
M  V30 16 1 15 17
M  V30 17 1 12 18
M  V30 18 2 8 19
M  V30 19 1 19 3
M  V30 20 1 18 9
M  V30 21 1 1 20
M  V30 22 1 1 21
M  V30 23 1 1 22
M  V30 24 1 4 23
M  V30 25 1 7 24
M  V30 26 1 14 25
M  V30 27 1 14 26
M  V30 28 1 17 27
M  V30 29 1 18 28
M  V30 30 1 19 29
M  V30 END BOND
M  V30 END CTAB
M  END
>  <Dataset>  (452) 
ChEMBL_Kinases

>  <Ligand_Instance>  (452) 
nan

>  <PDB_ID>  (452) 
nan

>  <Standardized_SMILES>  (452) 
COc1cc(F)cc(-c2nnc(SCC(=O)O)[nH]2)c1

>  <Name>  (452) 
nan

>  <Pocket>  (452) 
nan

>  <ATP_Site>  (452) 
nan

>  <Peripheral>  (452) 
nan

>  <Num_H_Atoms_ProtBoundConf>  (452) 
nan

>  <Num_Resolved_Atoms>  (452) 
nan

>  <Num_Not_Resolved_Atoms>  (452) 
nan

$$$$
CHEMBL3719168
     RDKit          3D

  0  0  0  0  0  0  0  0  0  0999 V3000
M  V30 BEGIN CTAB
M  V30 COUNTS 43 46 0 0 0
M  V30 BEGIN ATOM
M  V30 1 O 2.118039 0.653160 3.017100 0
M  V30 2 C 0.950360 0.204392 2.968169 0
M  V30 3 N 0.848653 -1.185608 2.808446 0
M  V30 4 C 1.554765 -2.412893 2.656672 0
M  V30 5 C 2.392436 -2.624581 1.456815 0 CFG=1
M  V30 6 C 1.586358 -2.533051 0.171782 0
M  V30 7 C 2.490730 -2.749920 -1.030074 0
M  V30 8 C 3.745330 -1.947900 -0.957779 0
M  V30 9 N 4.472430 -2.229360 0.270351 0
M  V30 10 C 3.622564 -1.789412 1.402634 0
M  V30 11 C -0.076349 1.214482 3.087028 0
M  V30 12 C -0.052482 2.025433 4.212128 0
M  V30 13 C -1.037435 3.010614 4.347606 0
M  V30 14 N -2.003669 3.181524 3.404789 0
M  V30 15 C -2.054229 2.412782 2.304317 0
M  V30 16 N -2.826622 2.278041 1.184272 0
M  V30 17 C -2.327621 1.284299 0.447842 0
M  V30 18 C -2.953987 0.902031 -0.829423 0
M  V30 19 C -2.418756 -0.201353 -1.672021 0
M  V30 20 C -3.143786 -0.390155 -2.806547 0
M  V30 21 C -4.269860 0.353213 -3.168676 0
M  V30 22 Br -5.418329 0.355139 -4.562020 0
M  V30 23 S -4.347928 1.536903 -1.663138 0
M  V30 24 N -1.264259 0.728008 0.987756 0
M  V30 25 C -1.079534 1.419860 2.146303 0
M  V30 26 H -0.216383 -1.347521 2.800218 0
M  V30 27 H 0.863699 -3.294925 2.831720 0
M  V30 28 H 2.272391 -2.521384 3.555417 0
M  V30 29 H 2.698680 -3.737065 1.518025 0
M  V30 30 H 1.044045 -1.593415 0.073321 0
M  V30 31 H 0.858458 -3.365002 0.185788 0
M  V30 32 H 1.922257 -2.445574 -1.932546 0
M  V30 33 H 2.700526 -3.842652 -1.178044 0
M  V30 34 H 3.550842 -0.886582 -1.128636 0
M  V30 35 H 4.412578 -2.310155 -1.776902 0
M  V30 36 H 5.260951 -1.515209 0.286734 0
M  V30 37 H 4.213482 -1.945070 2.318844 0
M  V30 38 H 3.442361 -0.726772 1.264064 0
M  V30 39 H 0.685903 1.950673 5.005357 0
M  V30 40 H -1.090764 3.686699 5.197170 0
M  V30 41 H -1.553200 -0.773705 -1.396257 0
M  V30 42 H -2.890279 -1.152776 -3.527517 0
M  V30 43 H -0.707398 -0.054595 0.607700 0
M  V30 END ATOM
M  V30 BEGIN BOND
M  V30 1 2 1 2
M  V30 2 1 2 3
M  V30 3 1 3 4
M  V30 4 1 4 5
M  V30 5 1 5 6
M  V30 6 1 6 7
M  V30 7 1 7 8
M  V30 8 1 8 9
M  V30 9 1 9 10
M  V30 10 1 2 11
M  V30 11 2 11 12
M  V30 12 1 12 13
M  V30 13 2 13 14
M  V30 14 1 14 15
M  V30 15 1 15 16
M  V30 16 2 16 17
M  V30 17 1 17 18
M  V30 18 2 18 19
M  V30 19 1 19 20
M  V30 20 2 20 21
M  V30 21 1 21 22
M  V30 22 1 21 23
M  V30 23 1 17 24
M  V30 24 1 24 25
M  V30 25 1 10 5
M  V30 26 1 25 11
M  V30 27 2 25 15
M  V30 28 1 23 18
M  V30 29 1 3 26
M  V30 30 1 4 27
M  V30 31 1 4 28
M  V30 32 1 5 29 CFG=1
M  V30 33 1 6 30
M  V30 34 1 6 31
M  V30 35 1 7 32
M  V30 36 1 7 33
M  V30 37 1 8 34
M  V30 38 1 8 35
M  V30 39 1 9 36
M  V30 40 1 10 37
M  V30 41 1 10 38
M  V30 42 1 12 39
M  V30 43 1 13 40
M  V30 44 1 19 41
M  V30 45 1 20 42
M  V30 46 1 24 43
M  V30 END BOND
M  V30 END CTAB
M  END
>  <Dataset>  (453) 
ChEMBL_Kinases

>  <Ligand_Instance>  (453) 
nan

>  <PDB_ID>  (453) 
nan

>  <Standardized_SMILES>  (453) 
O=C(NC[C@H]1CCCNC1)c1ccnc2nc(-c3ccc(Br)s3)[nH]c12

>  <Name>  (453) 
nan

>  <Pocket>  (453) 
nan

>  <ATP_Site>  (453) 
nan

>  <Peripheral>  (453) 
nan

>  <Num_H_Atoms_ProtBoundConf>  (453) 
nan

>  <Num_Resolved_Atoms>  (453) 
nan

>  <Num_Not_Resolved_Atoms>  (453) 
nan

$$$$
CHEMBL566298
     RDKit          3D

  0  0  0  0  0  0  0  0  0  0999 V3000
M  V30 BEGIN CTAB
M  V30 COUNTS 56 60 0 0 0
M  V30 BEGIN ATOM
M  V30 1 C 4.611308 -2.882615 3.111381 0
M  V30 2 C 3.387482 -3.507008 3.144824 0
M  V30 3 C 2.550655 -3.535620 2.037402 0
M  V30 4 C 3.022557 -2.900261 0.905600 0
M  V30 5 C 4.259537 -2.250307 0.818592 0
M  V30 6 C 5.060018 -2.251011 1.956695 0
M  V30 7 C 4.407981 -1.686552 -0.566478 0
M  V30 8 C 2.920519 -1.471064 -0.901915 0
M  V30 9 N 2.544186 -0.286176 -0.209021 0
M  V30 10 C 1.207775 0.185840 -0.230857 0
M  V30 11 N 0.775799 1.312826 0.403125 0
M  V30 12 C -0.475732 1.755654 0.400348 0
M  V30 13 N -0.830380 2.953908 1.087456 0
M  V30 14 C -1.122798 3.095019 2.472559 0
M  V30 15 C -1.529478 4.315863 2.969650 0
M  V30 16 C -1.785371 4.374100 4.347143 0
M  V30 17 N -1.646508 3.305436 5.153815 0
M  V30 18 C -1.248667 2.136406 4.627782 0
M  V30 19 C -0.976412 1.991636 3.286846 0
M  V30 20 N -1.384074 1.018494 -0.291949 0
M  V30 21 C -1.015185 -0.102334 -0.937120 0
M  V30 22 N -1.994432 -0.846498 -1.647986 0
M  V30 23 C -3.377378 -0.436546 -1.558611 0
M  V30 24 C -4.237703 -1.415559 -0.830385 0
M  V30 25 C -4.793984 -2.494961 -1.707425 0
M  V30 26 N -3.864204 -2.796118 -2.774221 0
M  V30 27 C -2.563543 -3.119637 -2.195837 0
M  V30 28 C -1.582055 -1.976878 -2.434172 0
M  V30 29 N 0.252705 -0.495853 -0.898173 0
M  V30 30 C 2.372858 -2.757305 -0.417464 0
M  V30 31 H 5.204718 -2.906125 4.020728 0
M  V30 32 H 2.991667 -4.015384 4.023076 0
M  V30 33 H 1.584647 -4.022634 2.043872 0
M  V30 34 H 6.032293 -1.756052 1.933879 0
M  V30 35 H 4.913461 -0.703257 -0.461861 0
M  V30 36 H 4.882434 -2.390061 -1.248441 0
M  V30 37 H 2.823351 -1.303686 -1.998585 0
M  V30 38 H 3.204780 0.326087 0.362331 0
M  V30 39 H -0.853795 3.760278 0.428718 0
M  V30 40 H -1.632738 5.155550 2.301271 0
M  V30 41 H -2.105525 5.335107 4.738414 0
M  V30 42 H -1.174518 1.346671 5.390555 0
M  V30 43 H -0.655038 0.998895 2.948188 0
M  V30 44 H -3.780010 -0.186057 -2.535157 0
M  V30 45 H -3.409439 0.511348 -0.945447 0
M  V30 46 H -5.128625 -0.850197 -0.436440 0
M  V30 47 H -3.740247 -1.803457 0.082925 0
M  V30 48 H -5.790467 -2.247269 -2.112971 0
M  V30 49 H -4.881968 -3.404266 -1.073845 0
M  V30 50 H -3.823794 -2.011450 -3.441322 0
M  V30 51 H -2.670827 -3.343034 -1.126143 0
M  V30 52 H -2.200445 -4.037288 -2.698727 0
M  V30 53 H -0.584852 -2.312449 -2.151165 0
M  V30 54 H -1.657080 -1.725971 -3.522012 0
M  V30 55 H 1.301641 -2.903938 -0.439335 0
M  V30 56 H 2.828404 -3.550104 -1.081263 0
M  V30 END ATOM
M  V30 BEGIN BOND
M  V30 1 2 1 2
M  V30 2 1 2 3
M  V30 3 2 3 4
M  V30 4 1 4 5
M  V30 5 2 5 6
M  V30 6 1 5 7
M  V30 7 1 7 8
M  V30 8 1 8 9
M  V30 9 1 9 10
M  V30 10 2 10 11
M  V30 11 1 11 12
M  V30 12 1 12 13
M  V30 13 1 13 14
M  V30 14 2 14 15
M  V30 15 1 15 16
M  V30 16 2 16 17
M  V30 17 1 17 18
M  V30 18 2 18 19
M  V30 19 2 12 20
M  V30 20 1 20 21
M  V30 21 1 21 22
M  V30 22 1 22 23
M  V30 23 1 23 24
M  V30 24 1 24 25
M  V30 25 1 25 26
M  V30 26 1 26 27
M  V30 27 1 27 28
M  V30 28 2 21 29
M  V30 29 1 8 30
M  V30 30 1 6 1
M  V30 31 1 29 10
M  V30 32 1 30 4
M  V30 33 1 19 14
M  V30 34 1 28 22
M  V30 35 1 1 31
M  V30 36 1 2 32
M  V30 37 1 3 33
M  V30 38 1 6 34
M  V30 39 1 7 35
M  V30 40 1 7 36
M  V30 41 1 8 37
M  V30 42 1 9 38
M  V30 43 1 13 39
M  V30 44 1 15 40
M  V30 45 1 16 41
M  V30 46 1 18 42
M  V30 47 1 19 43
M  V30 48 1 23 44
M  V30 49 1 23 45
M  V30 50 1 24 46
M  V30 51 1 24 47
M  V30 52 1 25 48
M  V30 53 1 25 49
M  V30 54 1 26 50
M  V30 55 1 27 51
M  V30 56 1 27 52
M  V30 57 1 28 53
M  V30 58 1 28 54
M  V30 59 1 30 55
M  V30 60 1 30 56
M  V30 END BOND
M  V30 END CTAB
M  END
>  <Dataset>  (454) 
ChEMBL_Kinases

>  <Ligand_Instance>  (454) 
nan

>  <PDB_ID>  (454) 
nan

>  <Standardized_SMILES>  (454) 
c1ccc2c(c1)CC(Nc1nc(Nc3ccncc3)nc(N3CCCNCC3)n1)C2

>  <Name>  (454) 
nan

>  <Pocket>  (454) 
nan

>  <ATP_Site>  (454) 
nan

>  <Peripheral>  (454) 
nan

>  <Num_H_Atoms_ProtBoundConf>  (454) 
nan

>  <Num_Resolved_Atoms>  (454) 
nan

>  <Num_Not_Resolved_Atoms>  (454) 
nan

$$$$
CHEMBL3719153
     RDKit          3D

  0  0  0  0  0  0  0  0  0  0999 V3000
M  V30 BEGIN CTAB
M  V30 COUNTS 39 42 0 0 0
M  V30 BEGIN ATOM
M  V30 1 O 1.849874 -1.558619 1.087868 0
M  V30 2 C 0.977537 -1.339955 0.210139 0
M  V30 3 N 0.241013 -2.447543 -0.193847 0
M  V30 4 C -0.016477 -3.852253 -0.078979 0
M  V30 5 C 1.140613 -4.719918 -0.477451 0
M  V30 6 C 2.425966 -4.633852 0.248623 0
M  V30 7 N 3.067450 -3.932198 -0.828622 0
M  V30 8 C 1.905063 -4.141152 -1.659551 0
M  V30 9 C 0.986059 0.041443 -0.144306 0
M  V30 10 C 1.675240 0.512604 -1.215913 0
M  V30 11 C 1.635975 1.870752 -1.493417 0
M  V30 12 C 0.911738 2.754452 -0.704462 0
M  V30 13 O 0.907028 4.102939 -1.029166 0
M  V30 14 C 0.229086 2.234171 0.370860 0
M  V30 15 N -0.553400 2.858918 1.299816 0
M  V30 16 C -1.014634 1.940492 2.161107 0
M  V30 17 C -1.886614 2.106197 3.310318 0
M  V30 18 C -2.362300 1.218750 4.209627 0
M  V30 19 C -3.178560 1.648425 5.195005 0
M  V30 20 C -3.495228 3.053366 5.221323 0
M  V30 21 S -2.524851 3.681235 3.724782 0
M  V30 22 N -0.531248 0.752599 1.782632 0
M  V30 23 C 0.236026 0.878274 0.692035 0
M  V30 24 H -0.413189 -1.997921 -0.906995 0
M  V30 25 H -0.353506 -4.116063 0.968262 0
M  V30 26 H -0.875617 -4.146080 -0.703413 0
M  V30 27 H 0.822885 -5.769796 -0.705977 0
M  V30 28 H 2.466772 -4.124029 1.213657 0
M  V30 29 H 2.870521 -5.677854 0.410135 0
M  V30 30 H 3.356890 -2.953736 -0.671037 0
M  V30 31 H 1.469352 -3.235088 -2.103114 0
M  V30 32 H 2.104256 -4.895205 -2.459877 0
M  V30 33 H 2.243368 -0.177483 -1.836740 0
M  V30 34 H 2.212037 2.193480 -2.371581 0
M  V30 35 H 0.730005 4.800830 -0.320657 0
M  V30 36 H -0.788329 3.891193 1.375310 0
M  V30 37 H -2.059358 0.189966 4.093021 0
M  V30 38 H -3.589937 0.958673 5.950998 0
M  V30 39 H -4.234545 3.389186 6.125699 0
M  V30 END ATOM
M  V30 BEGIN BOND
M  V30 1 2 1 2
M  V30 2 1 2 3
M  V30 3 1 3 4
M  V30 4 1 4 5
M  V30 5 1 5 6
M  V30 6 1 6 7
M  V30 7 1 7 8
M  V30 8 1 2 9
M  V30 9 2 9 10
M  V30 10 1 10 11
M  V30 11 2 11 12
M  V30 12 1 12 13
M  V30 13 1 12 14
M  V30 14 1 14 15
M  V30 15 1 15 16
M  V30 16 1 16 17
M  V30 17 2 17 18
M  V30 18 1 18 19
M  V30 19 2 19 20
M  V30 20 1 20 21
M  V30 21 2 16 22
M  V30 22 1 22 23
M  V30 23 1 8 5
M  V30 24 1 23 9
M  V30 25 2 23 14
M  V30 26 1 21 17
M  V30 27 1 3 24
M  V30 28 1 4 25
M  V30 29 1 4 26
M  V30 30 1 5 27
M  V30 31 1 6 28
M  V30 32 1 6 29
M  V30 33 1 7 30
M  V30 34 1 8 31
M  V30 35 1 8 32
M  V30 36 1 10 33
M  V30 37 1 11 34
M  V30 38 1 13 35
M  V30 39 1 15 36
M  V30 40 1 18 37
M  V30 41 1 19 38
M  V30 42 1 20 39
M  V30 END BOND
M  V30 END CTAB
M  END
>  <Dataset>  (455) 
ChEMBL_Kinases

>  <Ligand_Instance>  (455) 
nan

>  <PDB_ID>  (455) 
nan

>  <Standardized_SMILES>  (455) 
O=C(NCC1CNC1)c1ccc(O)c2[nH]c(-c3cccs3)nc12

>  <Name>  (455) 
nan

>  <Pocket>  (455) 
nan

>  <ATP_Site>  (455) 
nan

>  <Peripheral>  (455) 
nan

>  <Num_H_Atoms_ProtBoundConf>  (455) 
nan

>  <Num_Resolved_Atoms>  (455) 
nan

>  <Num_Not_Resolved_Atoms>  (455) 
nan

$$$$
CHEMBL3719148
     RDKit          3D

  0  0  0  0  0  0  0  0  0  0999 V3000
M  V30 BEGIN CTAB
M  V30 COUNTS 45 48 0 0 0
M  V30 BEGIN ATOM
M  V30 1 O -2.544172 -4.504355 0.366187 0
M  V30 2 C -2.042809 -3.536308 -0.224013 0
M  V30 3 C -0.638834 -3.321164 -0.484431 0
M  V30 4 N 0.294855 -4.269972 -0.524519 0
M  V30 5 C 1.525817 -3.729778 -0.766484 0
M  V30 6 N 2.781648 -4.172609 -0.920023 0
M  V30 7 C 3.816466 -3.345869 -1.170783 0
M  V30 8 C 3.692546 -1.989776 -1.291623 0
M  V30 9 C 2.420209 -1.487481 -1.140694 0
M  V30 10 C 2.009054 -0.060598 -1.185655 0
M  V30 11 O 1.910031 0.813484 -2.090859 0
M  V30 12 N 1.627856 0.468073 0.099829 0
M  V30 13 C 1.157915 1.757087 0.538998 0
M  V30 14 C 0.899377 1.855575 2.018864 0 CFG=2
M  V30 15 C 2.169806 1.600513 2.819607 0
M  V30 16 C 1.951288 1.904581 4.278703 0
M  V30 17 C 0.492782 1.788593 4.667564 0
M  V30 18 N -0.246554 0.826305 3.926800 0
M  V30 19 C -0.184460 0.927484 2.515279 0
M  V30 20 C 1.341178 -2.345395 -0.882008 0
M  V30 21 N 0.031559 -2.186797 -0.702614 0
M  V30 22 C -2.921858 -2.551195 -0.694483 0
M  V30 23 C -4.215757 -2.367271 -0.496592 0
M  V30 24 C -5.158336 -1.501633 -0.922372 0
M  V30 25 C -4.410488 -0.615239 -1.809812 0
M  V30 26 S -2.610675 -1.146763 -1.870842 0
M  V30 27 H 4.808695 -3.810566 -1.289121 0
M  V30 28 H 4.474912 -1.282819 -1.493586 0
M  V30 29 H 1.691314 -0.182276 0.918898 0
M  V30 30 H 1.929774 2.539417 0.303408 0
M  V30 31 H 0.243643 2.042762 -0.030584 0
M  V30 32 H 0.585465 2.889593 2.239382 0
M  V30 33 H 2.491976 0.569170 2.684167 0
M  V30 34 H 2.920724 2.312318 2.416226 0
M  V30 35 H 2.266798 2.950985 4.457147 0
M  V30 36 H 2.582937 1.274918 4.933420 0
M  V30 37 H 0.042786 2.802113 4.625608 0
M  V30 38 H 0.476240 1.489158 5.743818 0
M  V30 39 H -0.255973 -0.129855 4.318468 0
M  V30 40 H -1.158054 1.232343 2.106905 0
M  V30 41 H 0.035984 -0.092100 2.115125 0
M  V30 42 H -0.438252 -1.263000 -0.721933 0
M  V30 43 H -4.913918 -2.966245 0.144600 0
M  V30 44 H -5.886875 -0.803435 -1.273992 0
M  V30 45 H -4.217786 0.245025 -2.531837 0
M  V30 END ATOM
M  V30 BEGIN BOND
M  V30 1 2 1 2
M  V30 2 1 2 3
M  V30 3 2 3 4
M  V30 4 1 4 5
M  V30 5 2 5 6
M  V30 6 1 6 7
M  V30 7 2 7 8
M  V30 8 1 8 9
M  V30 9 1 9 10
M  V30 10 2 10 11
M  V30 11 1 10 12
M  V30 12 1 12 13
M  V30 13 1 13 14
M  V30 14 1 14 15
M  V30 15 1 15 16
M  V30 16 1 16 17
M  V30 17 1 17 18
M  V30 18 1 18 19
M  V30 19 2 9 20
M  V30 20 1 20 21
M  V30 21 1 2 22
M  V30 22 2 22 23
M  V30 23 1 23 24
M  V30 24 2 24 25
M  V30 25 1 25 26
M  V30 26 1 21 3
M  V30 27 1 26 22
M  V30 28 1 20 5
M  V30 29 1 19 14
M  V30 30 1 7 27
M  V30 31 1 8 28
M  V30 32 1 12 29
M  V30 33 1 13 30
M  V30 34 1 13 31
M  V30 35 1 14 32 CFG=3
M  V30 36 1 15 33
M  V30 37 1 15 34
M  V30 38 1 16 35
M  V30 39 1 16 36
M  V30 40 1 17 37
M  V30 41 1 17 38
M  V30 42 1 18 39
M  V30 43 1 19 40
M  V30 44 1 19 41
M  V30 45 1 21 42
M  V30 46 1 23 43
M  V30 47 1 24 44
M  V30 48 1 25 45
M  V30 END BOND
M  V30 END CTAB
M  END
>  <Dataset>  (456) 
ChEMBL_Kinases

>  <Ligand_Instance>  (456) 
nan

>  <PDB_ID>  (456) 
nan

>  <Standardized_SMILES>  (456) 
O=C(c1nc2nccc(C(=O)NC[C@@H]3CCCNC3)c2[nH]1)c1cccs1

>  <Name>  (456) 
nan

>  <Pocket>  (456) 
nan

>  <ATP_Site>  (456) 
nan

>  <Peripheral>  (456) 
nan

>  <Num_H_Atoms_ProtBoundConf>  (456) 
nan

>  <Num_Resolved_Atoms>  (456) 
nan

>  <Num_Not_Resolved_Atoms>  (456) 
nan

$$$$
CHEMBL3719145
     RDKit          3D

  0  0  0  0  0  0  0  0  0  0999 V3000
M  V30 BEGIN CTAB
M  V30 COUNTS 42 45 0 0 0
M  V30 BEGIN ATOM
M  V30 1 O 2.364964 -2.656622 1.800933 0
M  V30 2 C 2.249158 -1.456473 1.364193 0
M  V30 3 N 1.861057 -1.428824 -0.016956 0
M  V30 4 C 1.579093 -2.511116 -0.938526 0
M  V30 5 C 2.521630 -2.588099 -2.104962 0
M  V30 6 C 1.974667 -3.715975 -3.001967 0
M  V30 7 N 0.715164 -3.289896 -3.599741 0
M  V30 8 C -0.274255 -3.078453 -2.579429 0
M  V30 9 C 0.183660 -2.238443 -1.447107 0
M  V30 10 C 2.450871 -0.168216 2.067547 0
M  V30 11 C 3.625258 0.505178 2.428657 0
M  V30 12 C 3.513017 1.702403 3.089826 0
M  V30 13 C 2.293952 2.255937 3.407879 0
M  V30 14 O 2.224771 3.475053 4.081995 0
M  V30 15 C 1.119082 1.630834 3.074698 0
M  V30 16 N -0.190335 1.926932 3.255704 0
M  V30 17 C -0.920135 0.954143 2.728810 0
M  V30 18 C -2.381255 0.748605 2.654977 0
M  V30 19 C -3.293324 1.562109 3.175439 0
M  V30 20 C -4.612684 1.317194 3.068518 0
M  V30 21 C -4.931792 0.120971 2.356086 0
M  V30 22 S -3.210632 -0.577576 1.880954 0
M  V30 23 N -0.073527 0.047761 2.215812 0
M  V30 24 C 1.207963 0.401009 2.393247 0
M  V30 25 H 1.751570 -0.474624 -0.476107 0
M  V30 26 H 1.646682 -3.506194 -0.442706 0
M  V30 27 H 2.622009 -1.647864 -2.677685 0
M  V30 28 H 3.505319 -2.974921 -1.756383 0
M  V30 29 H 1.736472 -4.575279 -2.366815 0
M  V30 30 H 2.667518 -3.986597 -3.802065 0
M  V30 31 H 0.852722 -2.430600 -4.182331 0
M  V30 32 H -1.107516 -2.495864 -3.080197 0
M  V30 33 H -0.780313 -4.018157 -2.259793 0
M  V30 34 H -0.570919 -2.334055 -0.618495 0
M  V30 35 H 0.148476 -1.159531 -1.765021 0
M  V30 36 H 4.474311 -0.051997 2.110480 0
M  V30 37 H 4.446040 2.159842 3.332463 0
M  V30 38 H 1.629350 4.246042 3.811816 0
M  V30 39 H -0.600129 2.762397 3.723554 0
M  V30 40 H -3.118269 2.486403 3.732024 0
M  V30 41 H -5.556211 1.741117 3.356113 0
M  V30 42 H -5.878591 -0.471099 2.036274 0
M  V30 END ATOM
M  V30 BEGIN BOND
M  V30 1 2 1 2
M  V30 2 1 2 3
M  V30 3 1 3 4
M  V30 4 1 4 5
M  V30 5 1 5 6
M  V30 6 1 6 7
M  V30 7 1 7 8
M  V30 8 1 8 9
M  V30 9 1 2 10
M  V30 10 2 10 11
M  V30 11 1 11 12
M  V30 12 2 12 13
M  V30 13 1 13 14
M  V30 14 1 13 15
M  V30 15 1 15 16
M  V30 16 1 16 17
M  V30 17 1 17 18
M  V30 18 2 18 19
M  V30 19 1 19 20
M  V30 20 2 20 21
M  V30 21 1 21 22
M  V30 22 2 17 23
M  V30 23 1 23 24
M  V30 24 1 9 4
M  V30 25 1 24 10
M  V30 26 2 24 15
M  V30 27 1 22 18
M  V30 28 1 3 25
M  V30 29 1 4 26
M  V30 30 1 5 27
M  V30 31 1 5 28
M  V30 32 1 6 29
M  V30 33 1 6 30
M  V30 34 1 7 31
M  V30 35 1 8 32
M  V30 36 1 8 33
M  V30 37 1 9 34
M  V30 38 1 9 35
M  V30 39 1 11 36
M  V30 40 1 12 37
M  V30 41 1 14 38
M  V30 42 1 16 39
M  V30 43 1 19 40
M  V30 44 1 20 41
M  V30 45 1 21 42
M  V30 END BOND
M  V30 END CTAB
M  END
>  <Dataset>  (457) 
ChEMBL_Kinases

>  <Ligand_Instance>  (457) 
nan

>  <PDB_ID>  (457) 
nan

>  <Standardized_SMILES>  (457) 
O=C(NC1CCNCC1)c1ccc(O)c2[nH]c(-c3cccs3)nc12

>  <Name>  (457) 
nan

>  <Pocket>  (457) 
nan

>  <ATP_Site>  (457) 
nan

>  <Peripheral>  (457) 
nan

>  <Num_H_Atoms_ProtBoundConf>  (457) 
nan

>  <Num_Resolved_Atoms>  (457) 
nan

>  <Num_Not_Resolved_Atoms>  (457) 
nan

$$$$
CHEMBL566495
     RDKit          3D

  0  0  0  0  0  0  0  0  0  0999 V3000
M  V30 BEGIN CTAB
M  V30 COUNTS 48 51 0 0 0
M  V30 BEGIN ATOM
M  V30 1 C 0.948015 -5.968081 -1.627154 0
M  V30 2 O 1.067662 -4.612314 -1.255900 0
M  V30 3 C 0.750478 -3.607871 -2.140936 0
M  V30 4 C 0.300568 -3.778837 -3.431495 0
M  V30 5 C -0.005125 -2.735686 -4.283243 0
M  V30 6 C 0.168333 -1.457112 -3.759709 0
M  V30 7 C 0.617202 -1.257806 -2.471338 0
M  V30 8 C 0.774020 0.126690 -1.995516 0
M  V30 9 C 1.128127 1.036867 -2.964801 0
M  V30 10 C 1.291865 2.353448 -2.590174 0
M  V30 11 C 1.107576 2.749945 -1.285927 0
M  V30 12 N 1.264237 4.013357 -0.916626 0
M  V30 13 C 1.074061 4.354868 0.374102 0
M  V30 14 N 0.729431 3.489590 1.336829 0
M  V30 15 C 0.555368 2.207246 1.038646 0
M  V30 16 N 0.185816 1.260744 2.038834 0
M  V30 17 C 0.016840 1.766990 3.387888 0
M  V30 18 C -0.374548 0.626448 4.250738 0
M  V30 19 C 0.577799 -0.163950 4.892862 0
M  V30 20 C 0.095716 -1.192730 5.670757 0
M  V30 21 C -1.224095 -1.526738 5.884002 0
M  V30 22 C -2.132366 -0.698922 5.214351 0
M  V30 23 C -3.592938 -0.980621 5.383516 0
M  V30 24 C -1.707137 0.336653 4.429307 0
M  V30 25 C 0.747313 1.833315 -0.290701 0
M  V30 26 C 0.593065 0.536899 -0.695530 0
M  V30 27 C 0.923506 -2.320714 -1.618108 0
M  V30 28 H 1.223361 -6.168266 -2.665645 0
M  V30 29 H 1.530897 -6.623583 -0.928028 0
M  V30 30 H -0.132494 -6.231408 -1.432630 0
M  V30 31 H 0.189697 -4.801340 -3.770788 0
M  V30 32 H -0.355036 -2.884136 -5.285261 0
M  V30 33 H -0.074658 -0.649008 -4.438957 0
M  V30 34 H 1.297323 0.835641 -4.013329 0
M  V30 35 H 1.572061 3.138316 -3.297404 0
M  V30 36 H 1.193190 5.376378 0.713379 0
M  V30 37 H 0.032682 0.246827 1.862482 0
M  V30 38 H 0.958254 2.191527 3.770674 0
M  V30 39 H -0.805780 2.539820 3.411656 0
M  V30 40 H 1.629419 0.029418 4.779134 0
M  V30 41 H 0.846789 -1.809541 6.171936 0
M  V30 42 H -1.503175 -2.356022 6.514977 0
M  V30 43 H -3.891127 -0.599369 6.379682 0
M  V30 44 H -4.165895 -0.384874 4.645484 0
M  V30 45 H -3.800489 -2.038117 5.226300 0
M  V30 46 H -2.466205 0.938845 3.938857 0
M  V30 47 H 0.321818 -0.233269 -0.019864 0
M  V30 48 H 1.262606 -2.076730 -0.642600 0
M  V30 END ATOM
M  V30 BEGIN BOND
M  V30 1 1 1 2
M  V30 2 1 2 3
M  V30 3 2 3 4
M  V30 4 1 4 5
M  V30 5 2 5 6
M  V30 6 1 6 7
M  V30 7 1 7 8
M  V30 8 2 8 9
M  V30 9 1 9 10
M  V30 10 2 10 11
M  V30 11 1 11 12
M  V30 12 2 12 13
M  V30 13 1 13 14
M  V30 14 2 14 15
M  V30 15 1 15 16
M  V30 16 1 16 17
M  V30 17 1 17 18
M  V30 18 2 18 19
M  V30 19 1 19 20
M  V30 20 2 20 21
M  V30 21 1 21 22
M  V30 22 1 22 23
M  V30 23 2 22 24
M  V30 24 1 15 25
M  V30 25 2 25 26
M  V30 26 2 7 27
M  V30 27 1 27 3
M  V30 28 1 26 8
M  V30 29 1 25 11
M  V30 30 1 24 18
M  V30 31 1 1 28
M  V30 32 1 1 29
M  V30 33 1 1 30
M  V30 34 1 4 31
M  V30 35 1 5 32
M  V30 36 1 6 33
M  V30 37 1 9 34
M  V30 38 1 10 35
M  V30 39 1 13 36
M  V30 40 1 16 37
M  V30 41 1 17 38
M  V30 42 1 17 39
M  V30 43 1 19 40
M  V30 44 1 20 41
M  V30 45 1 21 42
M  V30 46 1 23 43
M  V30 47 1 23 44
M  V30 48 1 23 45
M  V30 49 1 24 46
M  V30 50 1 26 47
M  V30 51 1 27 48
M  V30 END BOND
M  V30 END CTAB
M  END
>  <Dataset>  (458) 
ChEMBL_Kinases

>  <Ligand_Instance>  (458) 
nan

>  <PDB_ID>  (458) 
nan

>  <Standardized_SMILES>  (458) 
COc1cccc(-c2ccc3ncnc(NCc4cccc(C)c4)c3c2)c1

>  <Name>  (458) 
nan

>  <Pocket>  (458) 
nan

>  <ATP_Site>  (458) 
nan

>  <Peripheral>  (458) 
nan

>  <Num_H_Atoms_ProtBoundConf>  (458) 
nan

>  <Num_Resolved_Atoms>  (458) 
nan

>  <Num_Not_Resolved_Atoms>  (458) 
nan

$$$$
CHEMBL371911
     RDKit          3D

  0  0  0  0  0  0  0  0  0  0999 V3000
M  V30 BEGIN CTAB
M  V30 COUNTS 38 39 0 0 0
M  V30 BEGIN ATOM
M  V30 1 N 3.639122 -6.183227 4.330145 0
M  V30 2 C 2.935311 -5.269159 3.486014 0
M  V30 3 O 1.823310 -4.892355 3.983006 0
M  V30 4 N 3.505139 -4.887269 2.245190 0
M  V30 5 C 2.696190 -3.962365 1.490552 0
M  V30 6 S 2.817491 -2.089816 1.632243 0
M  V30 7 C 1.602963 -1.781467 0.483932 0
M  V30 8 C 1.111031 -0.431575 0.036301 0
M  V30 9 C 0.710576 0.651641 -0.302233 0
M  V30 10 C 0.215461 1.943773 -0.688019 0
M  V30 11 C 0.820981 2.611060 -1.732281 0
M  V30 12 C 0.317652 3.848559 -2.073140 0
M  V30 13 C -0.745283 4.404685 -1.405283 0
M  V30 14 C -1.368487 3.762009 -0.360265 0
M  V30 15 N -2.457772 4.406020 0.274169 0
M  V30 16 C -3.258484 3.966683 1.356211 0
M  V30 17 O -3.019797 2.849776 1.875401 0
M  V30 18 C -4.381068 4.737556 1.937748 0
M  V30 19 F -4.921445 3.997947 2.966943 0
M  V30 20 F -5.382278 4.891081 0.987676 0
M  V30 21 F -3.971686 5.943705 2.468505 0
M  V30 22 C -0.838340 2.531552 -0.050475 0
M  V30 23 C 1.158207 -2.935773 0.045446 0
M  V30 24 C 1.686135 -4.100215 0.529971 0
M  V30 25 C 1.326792 -5.468880 0.169494 0
M  V30 26 N 0.313251 -5.719147 -0.795904 0
M  V30 27 O 1.900818 -6.440778 0.700414 0
M  V30 28 H 4.359959 -6.743841 4.836166 0
M  V30 29 H 3.166647 -6.859368 4.994724 0
M  V30 30 H 4.412609 -5.257231 1.946741 0
M  V30 31 H 1.653905 2.207591 -2.277416 0
M  V30 32 H 0.744878 4.424758 -2.881010 0
M  V30 33 H -1.110203 5.395569 -1.715601 0
M  V30 34 H -2.762612 5.339633 -0.056456 0
M  V30 35 H -1.263265 1.965043 0.748603 0
M  V30 36 H 0.359929 -3.007043 -0.713210 0
M  V30 37 H -0.673162 -5.934594 -0.547768 0
M  V30 38 H 0.350244 -5.735673 -1.844355 0
M  V30 END ATOM
M  V30 BEGIN BOND
M  V30 1 1 1 2
M  V30 2 2 2 3
M  V30 3 1 2 4
M  V30 4 1 4 5
M  V30 5 1 5 6
M  V30 6 1 6 7
M  V30 7 1 7 8
M  V30 8 3 8 9
M  V30 9 1 9 10
M  V30 10 2 10 11
M  V30 11 1 11 12
M  V30 12 2 12 13
M  V30 13 1 13 14
M  V30 14 1 14 15
M  V30 15 1 15 16
M  V30 16 2 16 17
M  V30 17 1 16 18
M  V30 18 1 18 19
M  V30 19 1 18 20
M  V30 20 1 18 21
M  V30 21 2 14 22
M  V30 22 2 7 23
M  V30 23 1 23 24
M  V30 24 1 24 25
M  V30 25 1 25 26
M  V30 26 2 25 27
M  V30 27 2 24 5
M  V30 28 1 22 10
M  V30 29 1 1 28
M  V30 30 1 1 29
M  V30 31 1 4 30
M  V30 32 1 11 31
M  V30 33 1 12 32
M  V30 34 1 13 33
M  V30 35 1 15 34
M  V30 36 1 22 35
M  V30 37 1 23 36
M  V30 38 1 26 37
M  V30 39 1 26 38
M  V30 END BOND
M  V30 END CTAB
M  END
>  <Dataset>  (459) 
ChEMBL_Kinases

>  <Ligand_Instance>  (459) 
nan

>  <PDB_ID>  (459) 
nan

>  <Standardized_SMILES>  (459) 
NC(=O)Nc1sc(C#Cc2cccc(NC(=O)C(F)(F)F)c2)cc1C(N)=O

>  <Name>  (459) 
nan

>  <Pocket>  (459) 
nan

>  <ATP_Site>  (459) 
nan

>  <Peripheral>  (459) 
nan

>  <Num_H_Atoms_ProtBoundConf>  (459) 
nan

>  <Num_Resolved_Atoms>  (459) 
nan

>  <Num_Not_Resolved_Atoms>  (459) 
nan

$$$$
CHEMBL566501
     RDKit          3D

  0  0  0  0  0  0  0  0  0  0999 V3000
M  V30 BEGIN CTAB
M  V30 COUNTS 45 48 0 0 0
M  V30 BEGIN ATOM
M  V30 1 C 0.175017 -6.966598 0.002493 0
M  V30 2 O 0.110381 -5.555617 0.150454 0
M  V30 3 C 0.269387 -4.797711 -1.006950 0
M  V30 4 C 0.483341 -5.291693 -2.280114 0
M  V30 5 C 0.625109 -4.422748 -3.348174 0
M  V30 6 C 0.558516 -3.035142 -3.183888 0
M  V30 7 C 0.344911 -2.513247 -1.918599 0
M  V30 8 C 0.259921 -1.078010 -1.651091 0
M  V30 9 C -0.266393 -0.271334 -2.647978 0
M  V30 10 C -0.353298 1.099041 -2.406328 0
M  V30 11 C 0.079971 1.619788 -1.196754 0
M  V30 12 N -0.007344 2.944110 -0.971948 0
M  V30 13 C 0.409723 3.461776 0.196938 0
M  V30 14 N 0.907653 2.651881 1.124448 0
M  V30 15 C 1.040907 1.323567 1.008519 0
M  V30 16 N 1.585273 0.519093 2.039645 0
M  V30 17 C 2.030560 1.052859 3.283694 0
M  V30 18 C 0.931256 1.680457 4.017982 0
M  V30 19 C 0.291081 2.880431 4.231186 0
M  V30 20 C -0.774879 3.005862 5.059620 0
M  V30 21 C -1.476080 4.287669 5.304190 0
M  V30 22 C -1.208607 1.745803 5.728116 0
M  V30 23 S 0.006946 0.496512 5.063286 0
M  V30 24 C 0.604106 0.827319 -0.200657 0
M  V30 25 C 0.679770 -0.520977 -0.461748 0
M  V30 26 C 0.206843 -3.407609 -0.869155 0
M  V30 27 H 1.012546 -7.309255 -0.625084 0
M  V30 28 H -0.769075 -7.337494 -0.454010 0
M  V30 29 H 0.262611 -7.359319 1.052778 0
M  V30 30 H 0.530145 -6.370095 -2.376323 0
M  V30 31 H 0.791758 -4.809200 -4.339194 0
M  V30 32 H 0.669850 -2.359410 -4.022238 0
M  V30 33 H -0.623292 -0.623513 -3.619510 0
M  V30 34 H -0.748099 1.802193 -3.121938 0
M  V30 35 H 0.391533 4.503762 0.494354 0
M  V30 36 H 1.706605 -0.498485 1.989874 0
M  V30 37 H 2.789101 1.855932 3.012539 0
M  V30 38 H 2.630327 0.359334 3.913373 0
M  V30 39 H 0.722133 3.695060 3.683180 0
M  V30 40 H -0.818246 5.114892 5.049860 0
M  V30 41 H -2.466801 4.329613 4.788798 0
M  V30 42 H -1.744775 4.278222 6.399758 0
M  V30 43 H -2.135980 1.825334 6.455417 0
M  V30 44 H 1.074556 -1.221572 0.254763 0
M  V30 45 H 0.039866 -2.984484 0.116561 0
M  V30 END ATOM
M  V30 BEGIN BOND
M  V30 1 1 1 2
M  V30 2 1 2 3
M  V30 3 2 3 4
M  V30 4 1 4 5
M  V30 5 2 5 6
M  V30 6 1 6 7
M  V30 7 1 7 8
M  V30 8 2 8 9
M  V30 9 1 9 10
M  V30 10 2 10 11
M  V30 11 1 11 12
M  V30 12 2 12 13
M  V30 13 1 13 14
M  V30 14 2 14 15
M  V30 15 1 15 16
M  V30 16 1 16 17
M  V30 17 1 17 18
M  V30 18 2 18 19
M  V30 19 1 19 20
M  V30 20 1 20 21
M  V30 21 2 20 22
M  V30 22 1 22 23
M  V30 23 1 15 24
M  V30 24 2 24 25
M  V30 25 2 7 26
M  V30 26 1 26 3
M  V30 27 1 25 8
M  V30 28 1 24 11
M  V30 29 1 23 18
M  V30 30 1 1 27
M  V30 31 1 1 28
M  V30 32 1 1 29
M  V30 33 1 4 30
M  V30 34 1 5 31
M  V30 35 1 6 32
M  V30 36 1 9 33
M  V30 37 1 10 34
M  V30 38 1 13 35
M  V30 39 1 16 36
M  V30 40 1 17 37
M  V30 41 1 17 38
M  V30 42 1 19 39
M  V30 43 1 21 40
M  V30 44 1 21 41
M  V30 45 1 21 42
M  V30 46 1 22 43
M  V30 47 1 25 44
M  V30 48 1 26 45
M  V30 END BOND
M  V30 END CTAB
M  END
>  <Dataset>  (460) 
ChEMBL_Kinases

>  <Ligand_Instance>  (460) 
nan

>  <PDB_ID>  (460) 
nan

>  <Standardized_SMILES>  (460) 
COc1cccc(-c2ccc3ncnc(NCc4cc(C)cs4)c3c2)c1

>  <Name>  (460) 
nan

>  <Pocket>  (460) 
nan

>  <ATP_Site>  (460) 
nan

>  <Peripheral>  (460) 
nan

>  <Num_H_Atoms_ProtBoundConf>  (460) 
nan

>  <Num_Resolved_Atoms>  (460) 
nan

>  <Num_Not_Resolved_Atoms>  (460) 
nan

$$$$
CHEMBL3719088
     RDKit          3D

  0  0  0  0  0  0  0  0  0  0999 V3000
M  V30 BEGIN CTAB
M  V30 COUNTS 31 32 0 0 0
M  V30 BEGIN ATOM
M  V30 1 C -2.374713 -0.745448 4.121556 0
M  V30 2 C -1.036611 -1.119897 3.523648 0
M  V30 3 O -0.914538 -0.684197 2.183313 0
M  V30 4 C 0.285954 -0.984291 1.548679 0
M  V30 5 C 1.309313 -1.665162 2.170811 0
M  V30 6 C 2.516628 -2.048951 1.628834 0
M  V30 7 C 2.816544 -2.249145 0.298617 0
M  V30 8 C 2.184132 -1.723993 -0.814567 0
M  V30 9 O 2.646690 -2.110622 -1.911149 0
M  V30 10 C 1.108643 -0.828404 -0.813968 0
M  V30 11 C 0.750613 -0.126681 -1.947366 0
M  V30 12 C 1.446795 -0.236500 -3.267697 0
M  V30 13 N -0.295424 0.621835 -1.602563 0
M  V30 14 C -0.627966 0.438913 -0.310766 0
M  V30 15 C -1.713762 1.058133 0.490145 0
M  V30 16 C 0.254298 -0.492669 0.241798 0
M  V30 17 H -2.475846 0.300284 4.406928 0
M  V30 18 H -3.217895 -1.129686 3.513576 0
M  V30 19 H -2.426197 -1.342378 5.079681 0
M  V30 20 H -0.929300 -2.220166 3.631330 0
M  V30 21 H -0.247875 -0.640353 4.135121 0
M  V30 22 H 1.063805 -1.887290 3.194109 0
M  V30 23 H 3.280777 -2.194902 2.391517 0
M  V30 24 H 3.675068 -2.918891 0.167494 0
M  V30 25 H 1.279590 -1.242662 -3.735910 0
M  V30 26 H 1.023629 0.497101 -3.979086 0
M  V30 27 H 2.513829 0.020985 -3.165208 0
M  V30 28 H -0.782035 1.262082 -2.262452 0
M  V30 29 H -1.293353 1.599233 1.387894 0
M  V30 30 H -2.539890 0.393685 0.748863 0
M  V30 31 H -2.126265 1.875726 -0.137720 0
M  V30 END ATOM
M  V30 BEGIN BOND
M  V30 1 1 1 2
M  V30 2 1 2 3
M  V30 3 1 3 4
M  V30 4 2 4 5
M  V30 5 1 5 6
M  V30 6 2 6 7
M  V30 7 1 7 8
M  V30 8 2 8 9
M  V30 9 1 8 10
M  V30 10 2 10 11
M  V30 11 1 11 12
M  V30 12 1 11 13
M  V30 13 1 13 14
M  V30 14 1 14 15
M  V30 15 2 14 16
M  V30 16 1 16 4
M  V30 17 1 16 10
M  V30 18 1 1 17
M  V30 19 1 1 18
M  V30 20 1 1 19
M  V30 21 1 2 20
M  V30 22 1 2 21
M  V30 23 1 5 22
M  V30 24 1 6 23
M  V30 25 1 7 24
M  V30 26 1 12 25
M  V30 27 1 12 26
M  V30 28 1 12 27
M  V30 29 1 13 28
M  V30 30 1 15 29
M  V30 31 1 15 30
M  V30 32 1 15 31
M  V30 END BOND
M  V30 END CTAB
M  END
>  <Dataset>  (461) 
ChEMBL_Kinases

>  <Ligand_Instance>  (461) 
nan

>  <PDB_ID>  (461) 
nan

>  <Standardized_SMILES>  (461) 
CCOc1cccc(=O)c2c(C)[nH]c(C)c12

>  <Name>  (461) 
nan

>  <Pocket>  (461) 
nan

>  <ATP_Site>  (461) 
nan

>  <Peripheral>  (461) 
nan

>  <Num_H_Atoms_ProtBoundConf>  (461) 
nan

>  <Num_Resolved_Atoms>  (461) 
nan

>  <Num_Not_Resolved_Atoms>  (461) 
nan

$$$$
CHEMBL3719067
     RDKit          3D

  0  0  0  0  0  0  0  0  0  0999 V3000
M  V30 BEGIN CTAB
M  V30 COUNTS 53 57 0 0 0
M  V30 BEGIN ATOM
M  V30 1 O 3.858510 -0.154018 3.308445 0
M  V30 2 C 3.257160 0.527100 2.450177 0
M  V30 3 N 3.107587 -0.028316 1.153457 0
M  V30 4 C 3.607505 -1.313874 0.787283 0 CFG=1
M  V30 5 C 2.556068 -2.287874 0.359047 0
M  V30 6 C 3.244203 -3.651056 0.195866 0
M  V30 7 C 4.545376 -3.509231 -0.549220 0
M  V30 8 N 4.636238 -2.254115 -1.255837 0
M  V30 9 C 4.593697 -1.137416 -0.337857 0
M  V30 10 C 2.656496 1.869233 2.581701 0
M  V30 11 C 3.441717 2.937250 3.002582 0
M  V30 12 C 2.807139 4.161097 3.099275 0
M  V30 13 N 1.492443 4.379273 2.814594 0
M  V30 14 C 0.732267 3.347190 2.407742 0
M  V30 15 N -0.564416 3.127310 2.035356 0
M  V30 16 C -0.717077 1.853333 1.730143 0
M  V30 17 C -1.995935 1.211130 1.272726 0
M  V30 18 C -3.165363 1.803356 1.098136 0
M  V30 19 C -4.243556 1.081510 0.674842 0
M  V30 20 C -4.021964 -0.278791 0.449402 0
M  V30 21 N -4.818709 -1.381300 0.015786 0
M  V30 22 C -6.191675 -1.331878 -0.334606 0
M  V30 23 C -6.230423 -2.247394 -1.565036 0
M  V30 24 C -5.046190 -3.172953 -1.449901 0
M  V30 25 O -5.392545 -4.510364 -1.424056 0
M  V30 26 C -4.371082 -2.731400 -0.142794 0
M  V30 27 S -2.237853 -0.441660 0.869424 0
M  V30 28 N 0.420586 1.150138 1.869069 0
M  V30 29 C 1.307563 2.095844 2.290406 0
M  V30 30 H 2.632217 0.394336 0.304481 0
M  V30 31 H 4.100245 -1.734088 1.705562 0
M  V30 32 H 2.143261 -2.035417 -0.643783 0
M  V30 33 H 1.770162 -2.445199 1.133515 0
M  V30 34 H 3.480261 -4.116927 1.174081 0
M  V30 35 H 2.565843 -4.360620 -0.330229 0
M  V30 36 H 4.589396 -4.310968 -1.313422 0
M  V30 37 H 5.436567 -3.673124 0.119925 0
M  V30 38 H 5.612077 -2.236156 -1.668184 0
M  V30 39 H 5.600240 -0.928229 0.109069 0
M  V30 40 H 4.322625 -0.235041 -0.895661 0
M  V30 41 H 4.483050 2.830387 3.242194 0
M  V30 42 H 3.414576 4.995248 3.426292 0
M  V30 43 H -3.308494 2.881163 1.284883 0
M  V30 44 H -5.260244 1.394093 0.481621 0
M  V30 45 H -6.859698 -1.737978 0.467436 0
M  V30 46 H -6.578780 -0.342667 -0.649772 0
M  V30 47 H -6.148774 -1.599582 -2.469859 0
M  V30 48 H -7.206920 -2.794187 -1.534324 0
M  V30 49 H -4.330689 -2.935730 -2.289956 0
M  V30 50 H -4.634244 -5.028162 -1.048343 0
M  V30 51 H -3.282704 -2.837954 -0.270291 0
M  V30 52 H -4.797383 -3.417242 0.628353 0
M  V30 53 H 0.575707 0.147937 1.697863 0
M  V30 END ATOM
M  V30 BEGIN BOND
M  V30 1 2 1 2
M  V30 2 1 2 3
M  V30 3 1 3 4
M  V30 4 1 4 5
M  V30 5 1 5 6
M  V30 6 1 6 7
M  V30 7 1 7 8
M  V30 8 1 8 9
M  V30 9 1 2 10
M  V30 10 2 10 11
M  V30 11 1 11 12
M  V30 12 2 12 13
M  V30 13 1 13 14
M  V30 14 1 14 15
M  V30 15 2 15 16
M  V30 16 1 16 17
M  V30 17 2 17 18
M  V30 18 1 18 19
M  V30 19 2 19 20
M  V30 20 1 20 21
M  V30 21 1 21 22
M  V30 22 1 22 23
M  V30 23 1 23 24
M  V30 24 1 24 25
M  V30 25 1 24 26
M  V30 26 1 20 27
M  V30 27 1 16 28
M  V30 28 1 28 29
M  V30 29 1 9 4
M  V30 30 1 29 10
M  V30 31 2 29 14
M  V30 32 1 27 17
M  V30 33 1 26 21
M  V30 34 1 3 30
M  V30 35 1 4 31 CFG=1
M  V30 36 1 5 32
M  V30 37 1 5 33
M  V30 38 1 6 34
M  V30 39 1 6 35
M  V30 40 1 7 36
M  V30 41 1 7 37
M  V30 42 1 8 38
M  V30 43 1 9 39
M  V30 44 1 9 40
M  V30 45 1 11 41
M  V30 46 1 12 42
M  V30 47 1 18 43
M  V30 48 1 19 44
M  V30 49 1 22 45
M  V30 50 1 22 46
M  V30 51 1 23 47
M  V30 52 1 23 48
M  V30 53 1 24 49
M  V30 54 1 25 50
M  V30 55 1 26 51
M  V30 56 1 26 52
M  V30 57 1 28 53
M  V30 END BOND
M  V30 END CTAB
M  END
>  <Dataset>  (462) 
ChEMBL_Kinases

>  <Ligand_Instance>  (462) 
nan

>  <PDB_ID>  (462) 
nan

>  <Standardized_SMILES>  (462) 
O=C(N[C@H]1CCCNC1)c1ccnc2nc(-c3ccc(N4CCC(O)C4)s3)[nH]c12

>  <Name>  (462) 
nan

>  <Pocket>  (462) 
nan

>  <ATP_Site>  (462) 
nan

>  <Peripheral>  (462) 
nan

>  <Num_H_Atoms_ProtBoundConf>  (462) 
nan

>  <Num_Resolved_Atoms>  (462) 
nan

>  <Num_Not_Resolved_Atoms>  (462) 
nan

$$$$
CHEMBL566635
     RDKit          3D

  0  0  0  0  0  0  0  0  0  0999 V3000
M  V30 BEGIN CTAB
M  V30 COUNTS 53 56 0 0 0
M  V30 BEGIN ATOM
M  V30 1 C 2.159995 -0.624416 -1.230372 0
M  V30 2 N 2.014410 0.685765 -0.598558 0
M  V30 3 C 3.078202 1.434098 -0.186404 0
M  V30 4 O 4.232169 0.973315 -0.360963 0
M  V30 5 C 2.841510 2.677751 0.410749 0
M  V30 6 C 4.021128 3.439040 0.834587 0
M  V30 7 C 4.594241 4.308966 -0.070275 0
M  V30 8 Cl 3.915159 4.483000 -1.680438 0
M  V30 9 C 5.699362 5.067293 0.228275 0
M  V30 10 C 6.288356 4.976680 1.487687 0
M  V30 11 C 5.723574 4.108721 2.403797 0
M  V30 12 C 4.605014 3.346192 2.089902 0
M  V30 13 Cl 3.843383 2.233661 3.198833 0
M  V30 14 C 1.562168 3.174777 0.597768 0
M  V30 15 C 0.535900 2.362570 0.156135 0
M  V30 16 C -0.780704 2.767801 0.298132 0
M  V30 17 N -1.826072 1.995467 -0.123624 0
M  V30 18 C -1.584849 0.790497 -0.702104 0
M  V30 19 N -2.578335 -0.107836 -1.179624 0
M  V30 20 C -3.106394 -1.148190 -0.361196 0
M  V30 21 C -2.597520 -1.248273 0.916128 0
M  V30 22 C -3.124785 -2.274688 1.692133 0
M  V30 23 C -4.090775 -3.104476 1.161654 0
M  V30 24 N -4.518802 -4.100040 2.080961 0
M  V30 25 C -3.653054 -5.200543 1.854362 0
M  V30 26 O -2.718468 -5.192233 0.981486 0
M  V30 27 C -3.523429 -6.576828 2.456714 0
M  V30 28 C -2.353646 -7.214603 1.694302 0
M  V30 29 N -2.640246 -7.281647 0.283129 0
M  V30 30 C -4.588105 -2.989317 -0.118556 0
M  V30 31 C -4.071783 -1.974577 -0.896373 0
M  V30 32 N -0.313130 0.366684 -0.855151 0
M  V30 33 C 0.741035 1.124542 -0.439903 0
M  V30 34 H 1.639974 -0.549685 -2.206262 0
M  V30 35 H 3.212060 -0.827406 -1.434968 0
M  V30 36 H 1.729749 -1.424410 -0.595140 0
M  V30 37 H 6.203487 5.767950 -0.423533 0
M  V30 38 H 7.151648 5.497194 1.880682 0
M  V30 39 H 6.068023 3.932788 3.413875 0
M  V30 40 H 1.386834 4.131077 1.056879 0
M  V30 41 H -1.004065 3.722504 0.754561 0
M  V30 42 H -2.893702 0.044589 -2.163589 0
M  V30 43 H -1.846660 -0.590075 1.303603 0
M  V30 44 H -2.722798 -2.350372 2.694391 0
M  V30 45 H -5.176739 -4.410987 2.854010 0
M  V30 46 H -4.450539 -7.129937 2.211279 0
M  V30 47 H -3.324315 -6.535683 3.527847 0
M  V30 48 H -1.419436 -6.644457 1.868742 0
M  V30 49 H -2.202643 -8.252395 2.056206 0
M  V30 50 H -1.879742 -6.940231 -0.332234 0
M  V30 51 H -2.915717 -8.233402 -0.055713 0
M  V30 52 H -5.334101 -3.669118 -0.454724 0
M  V30 53 H -4.420761 -1.831079 -1.911500 0
M  V30 END ATOM
M  V30 BEGIN BOND
M  V30 1 1 1 2
M  V30 2 1 2 3
M  V30 3 2 3 4
M  V30 4 1 3 5
M  V30 5 1 5 6
M  V30 6 2 6 7
M  V30 7 1 7 8
M  V30 8 1 7 9
M  V30 9 2 9 10
M  V30 10 1 10 11
M  V30 11 2 11 12
M  V30 12 1 12 13
M  V30 13 2 5 14
M  V30 14 1 14 15
M  V30 15 2 15 16
M  V30 16 1 16 17
M  V30 17 2 17 18
M  V30 18 1 18 19
M  V30 19 1 19 20
M  V30 20 2 20 21
M  V30 21 1 21 22
M  V30 22 2 22 23
M  V30 23 1 23 24
M  V30 24 1 24 25
M  V30 25 2 25 26
M  V30 26 1 25 27
M  V30 27 1 27 28
M  V30 28 1 28 29
M  V30 29 1 23 30
M  V30 30 2 30 31
M  V30 31 1 18 32
M  V30 32 2 32 33
M  V30 33 1 33 2
M  V30 34 1 12 6
M  V30 35 1 33 15
M  V30 36 1 31 20
M  V30 37 1 1 34
M  V30 38 1 1 35
M  V30 39 1 1 36
M  V30 40 1 9 37
M  V30 41 1 10 38
M  V30 42 1 11 39
M  V30 43 1 14 40
M  V30 44 1 16 41
M  V30 45 1 19 42
M  V30 46 1 21 43
M  V30 47 1 22 44
M  V30 48 1 24 45
M  V30 49 1 27 46
M  V30 50 1 27 47
M  V30 51 1 28 48
M  V30 52 1 28 49
M  V30 53 1 29 50
M  V30 54 1 29 51
M  V30 55 1 30 52
M  V30 56 1 31 53
M  V30 END BOND
M  V30 END CTAB
M  END
>  <Dataset>  (463) 
ChEMBL_Kinases

>  <Ligand_Instance>  (463) 
nan

>  <PDB_ID>  (463) 
nan

>  <Standardized_SMILES>  (463) 
Cn1c(=O)c(-c2c(Cl)cccc2Cl)cc2cnc(Nc3ccc(NC(=O)CCN)cc3)nc21

>  <Name>  (463) 
nan

>  <Pocket>  (463) 
nan

>  <ATP_Site>  (463) 
nan

>  <Peripheral>  (463) 
nan

>  <Num_H_Atoms_ProtBoundConf>  (463) 
nan

>  <Num_Resolved_Atoms>  (463) 
nan

>  <Num_Not_Resolved_Atoms>  (463) 
nan

$$$$
CHEMBL3719173
     RDKit          3D

  0  0  0  0  0  0  0  0  0  0999 V3000
M  V30 BEGIN CTAB
M  V30 COUNTS 42 45 0 0 0
M  V30 BEGIN ATOM
M  V30 1 C 2.093017 -1.659095 5.361804 0
M  V30 2 C 1.313653 -1.212491 4.166699 0
M  V30 3 N 1.621512 -1.596872 2.892734 0
M  V30 4 C 0.876258 -1.158333 1.847621 0
M  V30 5 N 1.358360 -1.708627 0.650779 0
M  V30 6 C 0.711525 -2.710955 -0.167877 0
M  V30 7 C 1.221177 -2.750260 -1.561314 0
M  V30 8 C 1.760828 -1.479334 -2.111579 0
M  V30 9 C 2.572224 -0.670232 -1.171255 0
M  V30 10 C 2.074235 0.766796 -1.115071 0
M  V30 11 C 2.650823 -1.211487 0.217858 0
M  V30 12 C -0.178083 -0.328639 2.113382 0
M  V30 13 C -0.507355 0.071496 3.387008 0
M  V30 14 N 0.265680 -0.392749 4.399961 0
M  V30 15 N -1.579394 0.876466 3.285733 0
M  V30 16 C -1.922657 0.987849 1.990506 0
M  V30 17 C -2.924643 1.684799 1.360772 0
M  V30 18 C -3.069576 1.643907 -0.006128 0
M  V30 19 C -2.182808 0.881367 -0.762916 0
M  V30 20 O -2.412208 0.905571 -2.130051 0
M  V30 21 C -1.179454 0.183298 -0.131632 0
M  V30 22 C -1.053825 0.237519 1.230277 0
M  V30 23 H 1.387674 -1.981379 6.181295 0
M  V30 24 H 2.706225 -0.849593 5.796745 0
M  V30 25 H 2.734382 -2.514749 5.122579 0
M  V30 26 H -0.383469 -2.612824 -0.074134 0
M  V30 27 H 0.979967 -3.700092 0.301139 0
M  V30 28 H 0.341949 -3.047719 -2.206327 0
M  V30 29 H 1.944466 -3.598776 -1.739243 0
M  V30 30 H 0.933207 -0.909708 -2.609645 0
M  V30 31 H 2.416001 -1.778210 -2.982463 0
M  V30 32 H 3.642502 -0.591550 -1.529164 0
M  V30 33 H 1.241206 0.921533 -1.850836 0
M  V30 34 H 1.716237 1.030981 -0.092108 0
M  V30 35 H 2.839242 1.508498 -1.388254 0
M  V30 36 H 3.390255 -2.050927 0.263751 0
M  V30 37 H 3.070654 -0.427951 0.887621 0
M  V30 38 H -1.999174 1.293753 4.126814 0
M  V30 39 H -3.590463 2.263640 1.984141 0
M  V30 40 H -3.862910 2.201342 -0.452561 0
M  V30 41 H -2.576856 0.038013 -2.619394 0
M  V30 42 H -0.575492 -0.346818 -0.835552 0
M  V30 END ATOM
M  V30 BEGIN BOND
M  V30 1 1 1 2
M  V30 2 2 2 3
M  V30 3 1 3 4
M  V30 4 1 4 5
M  V30 5 1 5 6
M  V30 6 1 6 7
M  V30 7 1 7 8
M  V30 8 1 8 9
M  V30 9 1 9 10
M  V30 10 1 9 11
M  V30 11 2 4 12
M  V30 12 1 12 13
M  V30 13 2 13 14
M  V30 14 1 13 15
M  V30 15 1 15 16
M  V30 16 2 16 17
M  V30 17 1 17 18
M  V30 18 2 18 19
M  V30 19 1 19 20
M  V30 20 1 19 21
M  V30 21 2 21 22
M  V30 22 1 14 2
M  V30 23 1 22 16
M  V30 24 1 11 5
M  V30 25 1 22 12
M  V30 26 1 1 23
M  V30 27 1 1 24
M  V30 28 1 1 25
M  V30 29 1 6 26
M  V30 30 1 6 27
M  V30 31 1 7 28
M  V30 32 1 7 29
M  V30 33 1 8 30
M  V30 34 1 8 31
M  V30 35 1 9 32
M  V30 36 1 10 33
M  V30 37 1 10 34
M  V30 38 1 10 35
M  V30 39 1 11 36
M  V30 40 1 11 37
M  V30 41 1 15 38
M  V30 42 1 17 39
M  V30 43 1 18 40
M  V30 44 1 20 41
M  V30 45 1 21 42
M  V30 END BOND
M  V30 END CTAB
M  END
>  <Dataset>  (464) 
ChEMBL_Kinases

>  <Ligand_Instance>  (464) 
nan

>  <PDB_ID>  (464) 
nan

>  <Standardized_SMILES>  (464) 
Cc1nc(N2CCCC(C)C2)c2c(n1)[nH]c1ccc(O)cc12

>  <Name>  (464) 
nan

>  <Pocket>  (464) 
nan

>  <ATP_Site>  (464) 
nan

>  <Peripheral>  (464) 
nan

>  <Num_H_Atoms_ProtBoundConf>  (464) 
nan

>  <Num_Resolved_Atoms>  (464) 
nan

>  <Num_Not_Resolved_Atoms>  (464) 
nan

$$$$
CHEMBL371270
     RDKit          3D

  0  0  0  0  0  0  0  0  0  0999 V3000
M  V30 BEGIN CTAB
M  V30 COUNTS 52 56 0 0 0
M  V30 BEGIN ATOM
M  V30 1 C 4.878470 -3.621392 3.420116 0
M  V30 2 O 3.568611 -3.176405 3.592196 0
M  V30 3 C 3.072426 -2.015169 3.071736 0
M  V30 4 C 1.724877 -1.789814 3.381683 0
M  V30 5 C 1.127382 -0.622873 2.892248 0
M  V30 6 C 1.782019 0.342566 2.109737 0
M  V30 7 C 3.112235 0.057774 1.839512 0
M  V30 8 C 3.707182 -1.088091 2.317646 0
M  V30 9 O 3.938131 0.906459 1.066999 0
M  V30 10 C 3.475042 1.503466 -0.132363 0
M  V30 11 N 4.332501 1.505249 -1.178621 0
M  V30 12 C 3.941442 2.055989 -2.339810 0
M  V30 13 N 2.739527 2.620344 -2.554155 0
M  V30 14 C 1.844349 2.657290 -1.573829 0
M  V30 15 N 0.504797 3.197116 -1.613777 0
M  V30 16 C -0.503931 2.170173 -1.538104 0
M  V30 17 C -1.836220 2.527454 -1.454889 0
M  V30 18 N -2.859965 1.645310 -1.359610 0
M  V30 19 C -2.586144 0.330079 -1.343538 0
M  V30 20 N -3.272779 -0.929236 -1.246505 0
M  V30 21 C -3.431790 -1.430988 0.058687 0
M  V30 22 O -3.018717 -0.777828 1.070819 0
M  V30 23 C -4.045812 -2.689536 0.428009 0
M  V30 24 C -4.144345 -3.113310 1.728755 0
M  V30 25 C -4.726169 -4.344481 2.012538 0
M  V30 26 C -5.208635 -5.147233 0.991221 0
M  V30 27 C -5.105741 -4.711555 -0.310392 0
M  V30 28 F -5.601158 -5.550171 -1.283133 0
M  V30 29 C -4.530241 -3.493496 -0.598176 0
M  V30 30 N -1.294549 -0.031010 -1.425223 0
M  V30 31 C -0.265243 0.818017 -1.519816 0
M  V30 32 C 2.223509 2.090758 -0.352892 0
M  V30 33 N 1.200338 2.156269 0.661983 0
M  V30 34 C 0.806457 1.381266 1.818307 0
M  V30 35 H 5.418137 -3.625249 4.399284 0
M  V30 36 H 4.849316 -4.658957 2.989669 0
M  V30 37 H 5.483275 -3.001647 2.734785 0
M  V30 38 H 1.124167 -2.476889 3.983002 0
M  V30 39 H 0.073536 -0.492593 3.160556 0
M  V30 40 H 4.739374 -1.250512 2.075808 0
M  V30 41 H 4.661530 2.037190 -3.159084 0
M  V30 42 H 0.218985 4.172266 -1.686132 0
M  V30 43 H -2.192006 3.548885 -1.459291 0
M  V30 44 H -3.626275 -1.488730 -2.033842 0
M  V30 45 H -3.770566 -2.489512 2.553178 0
M  V30 46 H -4.787219 -4.650523 3.038856 0
M  V30 47 H -5.664093 -6.111966 1.201208 0
M  V30 48 H -4.515498 -3.276153 -1.647592 0
M  V30 49 H 0.799075 0.541421 -1.590330 0
M  V30 50 H 0.562028 2.992515 0.522729 0
M  V30 51 H 0.612669 2.052753 2.680861 0
M  V30 52 H -0.169951 0.848165 1.582664 0
M  V30 END ATOM
M  V30 BEGIN BOND
M  V30 1 1 1 2
M  V30 2 1 2 3
M  V30 3 2 3 4
M  V30 4 1 4 5
M  V30 5 2 5 6
M  V30 6 1 6 7
M  V30 7 2 7 8
M  V30 8 1 7 9
M  V30 9 1 9 10
M  V30 10 2 10 11
M  V30 11 1 11 12
M  V30 12 2 12 13
M  V30 13 1 13 14
M  V30 14 1 14 15
M  V30 15 1 15 16
M  V30 16 2 16 17
M  V30 17 1 17 18
M  V30 18 2 18 19
M  V30 19 1 19 20
M  V30 20 1 20 21
M  V30 21 2 21 22
M  V30 22 1 21 23
M  V30 23 2 23 24
M  V30 24 1 24 25
M  V30 25 2 25 26
M  V30 26 1 26 27
M  V30 27 1 27 28
M  V30 28 2 27 29
M  V30 29 1 19 30
M  V30 30 2 30 31
M  V30 31 2 14 32
M  V30 32 1 32 33
M  V30 33 1 33 34
M  V30 34 1 8 3
M  V30 35 1 32 10
M  V30 36 1 34 6
M  V30 37 1 31 16
M  V30 38 1 29 23
M  V30 39 1 1 35
M  V30 40 1 1 36
M  V30 41 1 1 37
M  V30 42 1 4 38
M  V30 43 1 5 39
M  V30 44 1 8 40
M  V30 45 1 12 41
M  V30 46 1 15 42
M  V30 47 1 17 43
M  V30 48 1 20 44
M  V30 49 1 24 45
M  V30 50 1 25 46
M  V30 51 1 26 47
M  V30 52 1 29 48
M  V30 53 1 31 49
M  V30 54 1 33 50
M  V30 55 1 34 51
M  V30 56 1 34 52
M  V30 END BOND
M  V30 END CTAB
M  END
>  <Dataset>  (465) 
ChEMBL_Kinases

>  <Ligand_Instance>  (465) 
nan

>  <PDB_ID>  (465) 
nan

>  <Standardized_SMILES>  (465) 
COc1ccc2c(c1)Oc1ncnc(Nc3cnc(NC(=O)c4cccc(F)c4)nc3)c1NC2

>  <Name>  (465) 
nan

>  <Pocket>  (465) 
nan

>  <ATP_Site>  (465) 
nan

>  <Peripheral>  (465) 
nan

>  <Num_H_Atoms_ProtBoundConf>  (465) 
nan

>  <Num_Resolved_Atoms>  (465) 
nan

>  <Num_Not_Resolved_Atoms>  (465) 
nan

$$$$
CHEMBL372681
     RDKit          3D

  0  0  0  0  0  0  0  0  0  0999 V3000
M  V30 BEGIN CTAB
M  V30 COUNTS 50 53 0 0 0
M  V30 BEGIN ATOM
M  V30 1 C -1.777637 -5.453990 -0.517329 0
M  V30 2 C -1.375616 -4.159238 -1.138527 0
M  V30 3 N -0.023593 -4.071974 -1.583966 0
M  V30 4 C 0.257244 -2.794009 -2.165574 0
M  V30 5 C 1.637639 -2.285200 -1.893411 0
M  V30 6 C 1.995436 -2.257238 -0.416652 0
M  V30 7 C 1.452457 -1.033951 0.220131 0
M  V30 8 C 2.224406 0.025544 0.654371 0
M  V30 9 C 1.380744 0.997454 1.202087 0
M  V30 10 C 1.663160 2.294096 1.795960 0
M  V30 11 C 1.109622 3.353589 1.122047 0
M  V30 12 C 1.267316 4.643882 1.529972 0
M  V30 13 N 1.992417 4.898423 2.635588 0
M  V30 14 C 2.564459 3.879588 3.342381 0
M  V30 15 C 2.412769 2.566730 2.940228 0
M  V30 16 C 0.083955 0.514042 1.095057 0
M  V30 17 C -1.195084 1.113251 1.506233 0
M  V30 18 C -1.250405 1.313568 2.891161 0
M  V30 19 C -2.392796 1.871819 3.451514 0
M  V30 20 C -3.455479 2.221602 2.644336 0
M  V30 21 F -4.615833 2.770591 3.078132 0
M  V30 22 C -3.389532 2.019286 1.278231 0
M  V30 23 C -2.267377 1.469026 0.713525 0
M  V30 24 N 0.190911 -0.690329 0.506762 0
M  V30 25 C 1.570596 -3.525202 0.229389 0
M  V30 26 C 0.974225 -4.544079 -0.685967 0
M  V30 27 H -1.214452 -6.336655 -0.825885 0
M  V30 28 H -1.729904 -5.413941 0.609978 0
M  V30 29 H -2.868842 -5.671615 -0.714587 0
M  V30 30 H -2.010515 -4.028091 -2.063120 0
M  V30 31 H -1.633121 -3.357327 -0.416268 0
M  V30 32 H -0.540048 -2.043127 -1.989541 0
M  V30 33 H 0.218392 -2.964159 -3.282959 0
M  V30 34 H 1.714195 -1.258648 -2.313645 0
M  V30 35 H 2.351568 -2.920913 -2.470491 0
M  V30 36 H 3.116868 -2.121025 -0.386768 0
M  V30 37 H 3.288649 0.198269 0.634916 0
M  V30 38 H 0.514568 3.251343 0.228542 0
M  V30 39 H 0.843355 5.505025 1.021069 0
M  V30 40 H 3.151088 4.058597 4.232904 0
M  V30 41 H 2.816162 1.696275 3.417984 0
M  V30 42 H -0.472949 1.073665 3.603736 0
M  V30 43 H -2.488767 2.048878 4.516674 0
M  V30 44 H -4.199507 2.277262 0.598258 0
M  V30 45 H -2.094208 1.260241 -0.344090 0
M  V30 46 H -0.609726 -1.306200 0.288831 0
M  V30 47 H 0.856740 -3.389911 1.066776 0
M  V30 48 H 2.463767 -4.010691 0.708574 0
M  V30 49 H 0.577279 -5.374158 -0.069508 0
M  V30 50 H 1.816927 -4.951812 -1.317794 0
M  V30 END ATOM
M  V30 BEGIN BOND
M  V30 1 1 1 2
M  V30 2 1 2 3
M  V30 3 1 3 4
M  V30 4 1 4 5
M  V30 5 1 5 6
M  V30 6 1 6 7
M  V30 7 2 7 8
M  V30 8 1 8 9
M  V30 9 1 9 10
M  V30 10 2 10 11
M  V30 11 1 11 12
M  V30 12 2 12 13
M  V30 13 1 13 14
M  V30 14 2 14 15
M  V30 15 2 9 16
M  V30 16 1 16 17
M  V30 17 2 17 18
M  V30 18 1 18 19
M  V30 19 2 19 20
M  V30 20 1 20 21
M  V30 21 1 20 22
M  V30 22 2 22 23
M  V30 23 1 16 24
M  V30 24 1 6 25
M  V30 25 1 25 26
M  V30 26 1 26 3
M  V30 27 1 24 7
M  V30 28 1 15 10
M  V30 29 1 23 17
M  V30 30 1 1 27
M  V30 31 1 1 28
M  V30 32 1 1 29
M  V30 33 1 2 30
M  V30 34 1 2 31
M  V30 35 1 4 32
M  V30 36 1 4 33
M  V30 37 1 5 34
M  V30 38 1 5 35
M  V30 39 1 6 36
M  V30 40 1 8 37
M  V30 41 1 11 38
M  V30 42 1 12 39
M  V30 43 1 14 40
M  V30 44 1 15 41
M  V30 45 1 18 42
M  V30 46 1 19 43
M  V30 47 1 22 44
M  V30 48 1 23 45
M  V30 49 1 24 46
M  V30 50 1 25 47
M  V30 51 1 25 48
M  V30 52 1 26 49
M  V30 53 1 26 50
M  V30 END BOND
M  V30 END CTAB
M  END
>  <Dataset>  (466) 
ChEMBL_Kinases

>  <Ligand_Instance>  (466) 
nan

>  <PDB_ID>  (466) 
nan

>  <Standardized_SMILES>  (466) 
CCN1CCC(c2cc(-c3ccncc3)c(-c3ccc(F)cc3)[nH]2)CC1

>  <Name>  (466) 
nan

>  <Pocket>  (466) 
nan

>  <ATP_Site>  (466) 
nan

>  <Peripheral>  (466) 
nan

>  <Num_H_Atoms_ProtBoundConf>  (466) 
nan

>  <Num_Resolved_Atoms>  (466) 
nan

>  <Num_Not_Resolved_Atoms>  (466) 
nan

$$$$
CHEMBL372672
     RDKit          3D

  0  0  0  0  0  0  0  0  0  0999 V3000
M  V30 BEGIN CTAB
M  V30 COUNTS 40 43 0 0 0
M  V30 BEGIN ATOM
M  V30 1 F 4.734573 -2.582801 3.617889 0
M  V30 2 C 3.733794 -2.742952 2.647658 0
M  V30 3 F 2.740062 -3.519412 3.278672 0
M  V30 4 F 4.290650 -3.504237 1.619085 0
M  V30 5 C 3.192051 -1.463578 2.176835 0
M  V30 6 C 3.610146 -0.250568 2.659390 0
M  V30 7 N 3.016339 0.851058 2.160021 0
M  V30 8 C 2.042125 0.713613 1.210361 0
M  V30 9 N 1.328354 1.731363 0.589752 0
M  V30 10 C 0.622626 2.735237 -0.016213 0
M  V30 11 C 0.055835 2.243629 -1.199681 0
M  V30 12 C -0.666791 3.073065 -2.045735 0
M  V30 13 C -0.759081 4.385822 -1.611994 0
M  V30 14 C -0.215518 4.944572 -0.453375 0
M  V30 15 Cl -0.364016 6.614710 0.025286 0
M  V30 16 C 0.485807 4.069525 0.345659 0
M  V30 17 N 1.672174 -0.487004 0.769610 0
M  V30 18 C 2.222149 -1.670770 1.222051 0
M  V30 19 N 1.699976 -2.846489 0.621563 0
M  V30 20 C 0.254447 -2.879490 0.722134 0
M  V30 21 C -0.370731 -2.080355 1.636347 0
M  V30 22 C -1.747529 -1.997934 1.804319 0
M  V30 23 C -2.479778 -2.793783 0.972144 0
M  V30 24 N -3.823164 -2.931754 0.895101 0
M  V30 25 C -4.067164 -3.841085 -0.075365 0
M  V30 26 N -2.884512 -4.250165 -0.588507 0
M  V30 27 C -1.886143 -3.616103 0.038451 0
M  V30 28 C -0.518565 -3.677706 -0.108613 0
M  V30 29 H 4.382208 -0.204355 3.415250 0
M  V30 30 H 0.740635 1.832823 1.485764 0
M  V30 31 H 0.076466 1.229911 -1.610587 0
M  V30 32 H -1.170327 2.830817 -2.984468 0
M  V30 33 H -1.314749 5.102368 -2.222062 0
M  V30 34 H 0.972446 4.328013 1.282779 0
M  V30 35 H 2.252501 -3.625878 0.138398 0
M  V30 36 H 0.162434 -1.414439 2.348961 0
M  V30 37 H -2.205370 -1.341263 2.547921 0
M  V30 38 H -4.522246 -2.403966 1.517003 0
M  V30 39 H -5.084341 -4.110914 -0.305426 0
M  V30 40 H -0.004296 -4.297968 -0.820548 0
M  V30 END ATOM
M  V30 BEGIN BOND
M  V30 1 1 1 2
M  V30 2 1 2 3
M  V30 3 1 2 4
M  V30 4 1 2 5
M  V30 5 2 5 6
M  V30 6 1 6 7
M  V30 7 2 7 8
M  V30 8 1 8 9
M  V30 9 1 9 10
M  V30 10 2 10 11
M  V30 11 1 11 12
M  V30 12 2 12 13
M  V30 13 1 13 14
M  V30 14 1 14 15
M  V30 15 2 14 16
M  V30 16 1 8 17
M  V30 17 2 17 18
M  V30 18 1 18 19
M  V30 19 1 19 20
M  V30 20 2 20 21
M  V30 21 1 21 22
M  V30 22 2 22 23
M  V30 23 1 23 24
M  V30 24 1 24 25
M  V30 25 2 25 26
M  V30 26 1 26 27
M  V30 27 2 27 28
M  V30 28 1 18 5
M  V30 29 1 28 20
M  V30 30 1 16 10
M  V30 31 1 27 23
M  V30 32 1 6 29
M  V30 33 1 9 30
M  V30 34 1 11 31
M  V30 35 1 12 32
M  V30 36 1 13 33
M  V30 37 1 16 34
M  V30 38 1 19 35
M  V30 39 1 21 36
M  V30 40 1 22 37
M  V30 41 1 24 38
M  V30 42 1 25 39
M  V30 43 1 28 40
M  V30 END BOND
M  V30 END CTAB
M  END
>  <Dataset>  (467) 
ChEMBL_Kinases

>  <Ligand_Instance>  (467) 
nan

>  <PDB_ID>  (467) 
nan

>  <Standardized_SMILES>  (467) 
FC(F)(F)c1cnc(Nc2cccc(Cl)c2)nc1Nc1ccc2[nH]cnc2c1

>  <Name>  (467) 
nan

>  <Pocket>  (467) 
nan

>  <ATP_Site>  (467) 
nan

>  <Peripheral>  (467) 
nan

>  <Num_H_Atoms_ProtBoundConf>  (467) 
nan

>  <Num_Resolved_Atoms>  (467) 
nan

>  <Num_Not_Resolved_Atoms>  (467) 
nan

$$$$
CHEMBL371306
     RDKit          3D

  0  0  0  0  0  0  0  0  0  0999 V3000
M  V30 BEGIN CTAB
M  V30 COUNTS 64 67 0 0 0
M  V30 BEGIN ATOM
M  V30 1 C 2.879752 0.526480 5.002205 0
M  V30 2 C 2.638155 0.876925 3.538302 0
M  V30 3 C 2.229707 -0.491309 2.945530 0
M  V30 4 O 3.709901 1.274374 2.870413 0
M  V30 5 C 3.856102 2.317581 2.078500 0
M  V30 6 C 3.119214 2.438744 0.773996 0
M  V30 7 O 3.514785 3.684359 0.164778 0
M  V30 8 C 1.648462 2.576562 0.928435 0
M  V30 9 N 0.985504 2.823368 -0.353870 0
M  V30 10 C 1.036535 1.689796 -1.216598 0
M  V30 11 C -0.145814 1.641384 -2.140607 0
M  V30 12 C -1.412066 1.447408 -1.354261 0
M  V30 13 C -1.618368 -0.004424 -1.122785 0
M  V30 14 C -2.482917 -0.787186 -1.894979 0
M  V30 15 C -2.498778 -2.085502 -1.462184 0
M  V30 16 C -3.192143 -3.290496 -1.879415 0
M  V30 17 C -4.543200 -3.501806 -1.915077 0
M  V30 18 C -5.006621 -4.745940 -2.350825 0
M  V30 19 N -4.169911 -5.726330 -2.730488 0
M  V30 20 C -2.844004 -5.540487 -2.703327 0
M  V30 21 C -2.339094 -4.323475 -2.278601 0
M  V30 22 C -1.626714 -2.115585 -0.397891 0
M  V30 23 C -1.259718 -3.262882 0.447878 0
M  V30 24 C -2.357210 -3.735136 1.126110 0
M  V30 25 C -2.220682 -4.826926 1.988092 0
M  V30 26 C -0.969814 -5.408334 2.136075 0
M  V30 27 F -0.808786 -6.462470 2.960665 0
M  V30 28 C 0.127675 -4.904059 1.431406 0
M  V30 29 C -0.023849 -3.824877 0.583794 0
M  V30 30 N -1.136228 -0.875487 -0.236987 0
M  V30 31 C -1.369446 2.219020 -0.085910 0
M  V30 32 C -0.339352 3.305655 -0.056385 0
M  V30 33 H 1.871552 0.259774 5.415703 0
M  V30 34 H 3.487391 -0.402227 5.063544 0
M  V30 35 H 3.299300 1.341334 5.576318 0
M  V30 36 H 1.724428 1.497657 3.474506 0
M  V30 37 H 2.229918 -0.467407 1.857634 0
M  V30 38 H 1.348002 -0.899920 3.439539 0
M  V30 39 H 3.074113 -1.188347 3.224026 0
M  V30 40 H 3.831978 3.325662 2.626037 0
M  V30 41 H 4.960045 2.318019 1.756800 0
M  V30 42 H 3.440113 1.692761 0.042774 0
M  V30 43 H 2.852417 3.828847 -0.545911 0
M  V30 44 H 1.418840 3.436249 1.571623 0
M  V30 45 H 1.196968 1.618127 1.289863 0
M  V30 46 H 1.937549 1.775472 -1.908388 0
M  V30 47 H 1.084577 0.717832 -0.673159 0
M  V30 48 H -0.051443 0.797824 -2.861692 0
M  V30 49 H -0.190761 2.566502 -2.763066 0
M  V30 50 H -2.283185 1.769517 -2.006082 0
M  V30 51 H -3.091699 -0.473921 -2.740953 0
M  V30 52 H -5.156973 -2.693136 -1.603825 0
M  V30 53 H -6.077101 -4.877390 -2.365964 0
M  V30 54 H -2.223928 -6.365648 -3.020117 0
M  V30 55 H -1.255734 -4.274261 -2.293475 0
M  V30 56 H -3.383469 -3.361913 1.090025 0
M  V30 57 H -3.041709 -5.254791 2.556821 0
M  V30 58 H 1.115389 -5.328853 1.519914 0
M  V30 59 H 0.754593 -3.362697 -0.001721 0
M  V30 60 H -0.453481 -0.619021 0.507002 0
M  V30 61 H -1.233207 1.552265 0.801056 0
M  V30 62 H -2.355311 2.711030 0.065949 0
M  V30 63 H -0.642004 4.138766 -0.726554 0
M  V30 64 H -0.357781 3.727569 0.969498 0
M  V30 END ATOM
M  V30 BEGIN BOND
M  V30 1 1 1 2
M  V30 2 1 2 3
M  V30 3 1 2 4
M  V30 4 1 4 5
M  V30 5 1 5 6
M  V30 6 1 6 7
M  V30 7 1 6 8
M  V30 8 1 8 9
M  V30 9 1 9 10
M  V30 10 1 10 11
M  V30 11 1 11 12
M  V30 12 1 12 13
M  V30 13 2 13 14
M  V30 14 1 14 15
M  V30 15 1 15 16
M  V30 16 2 16 17
M  V30 17 1 17 18
M  V30 18 2 18 19
M  V30 19 1 19 20
M  V30 20 2 20 21
M  V30 21 2 15 22
M  V30 22 1 22 23
M  V30 23 2 23 24
M  V30 24 1 24 25
M  V30 25 2 25 26
M  V30 26 1 26 27
M  V30 27 1 26 28
M  V30 28 2 28 29
M  V30 29 1 22 30
M  V30 30 1 12 31
M  V30 31 1 31 32
M  V30 32 1 32 9
M  V30 33 1 30 13
M  V30 34 1 21 16
M  V30 35 1 29 23
M  V30 36 1 1 33
M  V30 37 1 1 34
M  V30 38 1 1 35
M  V30 39 1 2 36
M  V30 40 1 3 37
M  V30 41 1 3 38
M  V30 42 1 3 39
M  V30 43 1 5 40
M  V30 44 1 5 41
M  V30 45 1 6 42
M  V30 46 1 7 43
M  V30 47 1 8 44
M  V30 48 1 8 45
M  V30 49 1 10 46
M  V30 50 1 10 47
M  V30 51 1 11 48
M  V30 52 1 11 49
M  V30 53 1 12 50
M  V30 54 1 14 51
M  V30 55 1 17 52
M  V30 56 1 18 53
M  V30 57 1 20 54
M  V30 58 1 21 55
M  V30 59 1 24 56
M  V30 60 1 25 57
M  V30 61 1 28 58
M  V30 62 1 29 59
M  V30 63 1 30 60
M  V30 64 1 31 61
M  V30 65 1 31 62
M  V30 66 1 32 63
M  V30 67 1 32 64
M  V30 END BOND
M  V30 END CTAB
M  END
>  <Dataset>  (468) 
ChEMBL_Kinases

>  <Ligand_Instance>  (468) 
nan

>  <PDB_ID>  (468) 
nan

>  <Standardized_SMILES>  (468) 
CC(C)OCC(O)CN1CCC(c2cc(-c3ccncc3)c(-c3ccc(F)cc3)[nH]2)CC1

>  <Name>  (468) 
nan

>  <Pocket>  (468) 
nan

>  <ATP_Site>  (468) 
nan

>  <Peripheral>  (468) 
nan

>  <Num_H_Atoms_ProtBoundConf>  (468) 
nan

>  <Num_Resolved_Atoms>  (468) 
nan

>  <Num_Not_Resolved_Atoms>  (468) 
nan

$$$$
CHEMBL372600
     RDKit          3D

  0  0  0  0  0  0  0  0  0  0999 V3000
M  V30 BEGIN CTAB
M  V30 COUNTS 39 40 0 0 0
M  V30 BEGIN ATOM
M  V30 1 C 2.525176 -4.082888 3.087972 0
M  V30 2 N 1.405615 -3.475730 2.392632 0
M  V30 3 C 1.730025 -2.561340 1.430952 0
M  V30 4 C 0.720678 -1.939739 0.724908 0
M  V30 5 C 0.988624 -0.954719 -0.314461 0
M  V30 6 O -0.001253 -0.443249 -0.902081 0
M  V30 7 N 2.267555 -0.538657 -0.703989 0
M  V30 8 O 2.310352 0.391017 -1.693845 0
M  V30 9 C 2.283939 1.626076 -1.063657 0
M  V30 10 C 2.325406 2.774713 -2.032276 0
M  V30 11 O 3.450443 2.791358 -2.823423 0
M  V30 12 C -0.593666 -2.255906 1.006306 0
M  V30 13 N -1.674073 -1.636451 0.299519 0
M  V30 14 C -2.158026 -0.431183 0.897688 0
M  V30 15 C -1.617856 0.082679 2.063096 0
M  V30 16 C -2.034163 1.228717 2.685327 0
M  V30 17 C -3.074612 1.940562 2.118290 0
M  V30 18 Br -3.750638 3.552110 2.882695 0
M  V30 19 C -3.646254 1.468765 0.955976 0
M  V30 20 C -3.208744 0.301927 0.339099 0
M  V30 21 F -3.773398 -0.148578 -0.793680 0
M  V30 22 C -0.896941 -3.182444 1.981844 0
M  V30 23 F -2.168251 -3.542417 2.311829 0
M  V30 24 C 0.119822 -3.799129 2.682961 0
M  V30 25 O -0.032852 -4.655069 3.589591 0
M  V30 26 H 2.172857 -4.847038 3.789034 0
M  V30 27 H 3.191670 -4.540323 2.339042 0
M  V30 28 H 3.088625 -3.295362 3.622962 0
M  V30 29 H 2.765488 -2.327676 1.225713 0
M  V30 30 H 3.105801 -0.944890 -0.235063 0
M  V30 31 H 1.357063 1.747449 -0.466323 0
M  V30 32 H 3.171478 1.686866 -0.411241 0
M  V30 33 H 1.401076 2.784730 -2.637735 0
M  V30 34 H 2.285416 3.704858 -1.416465 0
M  V30 35 H 3.525155 3.656463 -3.267219 0
M  V30 36 H -2.140236 -1.945339 -0.573492 0
M  V30 37 H -0.796080 -0.446126 2.543926 0
M  V30 38 H -1.575593 1.592332 3.603089 0
M  V30 39 H -4.462665 2.022829 0.506613 0
M  V30 END ATOM
M  V30 BEGIN BOND
M  V30 1 1 1 2
M  V30 2 1 2 3
M  V30 3 2 3 4
M  V30 4 1 4 5
M  V30 5 2 5 6
M  V30 6 1 5 7
M  V30 7 1 7 8
M  V30 8 1 8 9
M  V30 9 1 9 10
M  V30 10 1 10 11
M  V30 11 1 4 12
M  V30 12 1 12 13
M  V30 13 1 13 14
M  V30 14 2 14 15
M  V30 15 1 15 16
M  V30 16 2 16 17
M  V30 17 1 17 18
M  V30 18 1 17 19
M  V30 19 2 19 20
M  V30 20 1 20 21
M  V30 21 2 12 22
M  V30 22 1 22 23
M  V30 23 1 22 24
M  V30 24 2 24 25
M  V30 25 1 24 2
M  V30 26 1 20 14
M  V30 27 1 1 26
M  V30 28 1 1 27
M  V30 29 1 1 28
M  V30 30 1 3 29
M  V30 31 1 7 30
M  V30 32 1 9 31
M  V30 33 1 9 32
M  V30 34 1 10 33
M  V30 35 1 10 34
M  V30 36 1 11 35
M  V30 37 1 13 36
M  V30 38 1 15 37
M  V30 39 1 16 38
M  V30 40 1 19 39
M  V30 END BOND
M  V30 END CTAB
M  END
>  <Dataset>  (469) 
ChEMBL_Kinases

>  <Ligand_Instance>  (469) 
nan

>  <PDB_ID>  (469) 
nan

>  <Standardized_SMILES>  (469) 
Cn1cc(C(=O)NOCCO)c(Nc2ccc(Br)cc2F)c(F)c1=O

>  <Name>  (469) 
nan

>  <Pocket>  (469) 
nan

>  <ATP_Site>  (469) 
nan

>  <Peripheral>  (469) 
nan

>  <Num_H_Atoms_ProtBoundConf>  (469) 
nan

>  <Num_Resolved_Atoms>  (469) 
nan

>  <Num_Not_Resolved_Atoms>  (469) 
nan

$$$$
CHEMBL372585
     RDKit          3D

  0  0  0  0  0  0  0  0  0  0999 V3000
M  V30 BEGIN CTAB
M  V30 COUNTS 59 64 0 0 0
M  V30 BEGIN ATOM
M  V30 1 C 4.358869 0.595186 4.004596 0
M  V30 2 N 3.104833 -0.143750 3.653652 0
M  V30 3 C 3.415800 -1.510164 4.036103 0
M  V30 4 C 2.794705 0.067969 2.285602 0
M  V30 5 C 1.471047 -0.383008 1.807536 0
M  V30 6 C 1.192917 -1.827845 1.922703 0
M  V30 7 C 1.870025 -2.613805 0.779296 0
M  V30 8 N 0.992699 -2.308205 -0.368982 0
M  V30 9 C 0.715858 -0.997613 -0.439080 0
M  V30 10 C -0.145408 -0.864573 -1.546939 0
M  V30 11 C -0.865675 0.235996 -2.154472 0
M  V30 12 C -1.698040 1.153495 -1.630788 0
M  V30 13 C -2.176868 1.366653 -0.267510 0
M  V30 14 C -2.265047 2.575651 0.433301 0
M  V30 15 N -2.764675 2.335940 1.658203 0
M  V30 16 C -3.019144 1.020099 1.816389 0
M  V30 17 C -3.535531 0.303583 2.888383 0
M  V30 18 C -3.697626 -1.071996 2.764575 0
M  V30 19 C -3.347548 -1.722888 1.582870 0
M  V30 20 C -2.843487 -0.927020 0.576158 0
M  V30 21 C -2.656074 0.427234 0.627098 0
M  V30 22 C -2.160378 2.070105 -2.664950 0
M  V30 23 O -2.950056 3.066401 -2.578345 0
M  V30 24 N -1.564500 1.679545 -3.903803 0
M  V30 25 C -0.761566 0.546283 -3.598758 0
M  V30 26 O -0.120642 0.009820 -4.544647 0
M  V30 27 C -0.317004 -2.134269 -2.064478 0
M  V30 28 C -1.017263 -2.726451 -3.112456 0
M  V30 29 C -0.994917 -4.078288 -3.379268 0
M  V30 30 C -0.236462 -4.916637 -2.567881 0
M  V30 31 C 0.489899 -4.411896 -1.504630 0
M  V30 32 C 0.398411 -3.043778 -1.324158 0
M  V30 33 C 1.182299 0.122007 0.382050 0
M  V30 34 H 4.184948 1.093379 4.981234 0
M  V30 35 H 4.592456 1.338896 3.237119 0
M  V30 36 H 5.206327 -0.108586 4.095724 0
M  V30 37 H 3.640084 -2.173746 3.193477 0
M  V30 38 H 4.373844 -1.563777 4.660165 0
M  V30 39 H 2.653855 -1.879617 4.757982 0
M  V30 40 H 3.641195 -0.302334 1.642855 0
M  V30 41 H 2.861853 1.195153 2.131244 0
M  V30 42 H 0.709342 0.138583 2.458925 0
M  V30 43 H 1.360700 -2.236310 2.898878 0
M  V30 44 H 0.068016 -1.938925 1.697679 0
M  V30 45 H 1.830805 -3.658734 1.078580 0
M  V30 46 H 2.886515 -2.281822 0.589181 0
M  V30 47 H -1.965402 3.502428 0.000890 0
M  V30 48 H -2.951929 3.038218 2.427631 0
M  V30 49 H -3.810734 0.791833 3.812888 0
M  V30 50 H -4.104045 -1.662333 3.601432 0
M  V30 51 H -3.474171 -2.809058 1.479239 0
M  V30 52 H -2.602302 -1.480833 -0.314466 0
M  V30 53 H -1.726855 2.173583 -4.821478 0
M  V30 54 H -1.624865 -2.107886 -3.760530 0
M  V30 55 H -1.560859 -4.489234 -4.210555 0
M  V30 56 H -0.215463 -5.982384 -2.773073 0
M  V30 57 H 1.101000 -5.017985 -0.835273 0
M  V30 58 H 2.189367 0.515923 0.025392 0
M  V30 59 H 0.555739 0.996850 0.387039 0
M  V30 END ATOM
M  V30 BEGIN BOND
M  V30 1 1 1 2
M  V30 2 1 2 3
M  V30 3 1 2 4
M  V30 4 1 4 5
M  V30 5 1 5 6
M  V30 6 1 6 7
M  V30 7 1 7 8
M  V30 8 1 8 9
M  V30 9 2 9 10
M  V30 10 1 10 11
M  V30 11 2 11 12
M  V30 12 1 12 13
M  V30 13 2 13 14
M  V30 14 1 14 15
M  V30 15 1 15 16
M  V30 16 2 16 17
M  V30 17 1 17 18
M  V30 18 2 18 19
M  V30 19 1 19 20
M  V30 20 2 20 21
M  V30 21 1 12 22
M  V30 22 2 22 23
M  V30 23 1 22 24
M  V30 24 1 24 25
M  V30 25 2 25 26
M  V30 26 1 10 27
M  V30 27 2 27 28
M  V30 28 1 28 29
M  V30 29 2 29 30
M  V30 30 1 30 31
M  V30 31 2 31 32
M  V30 32 1 9 33
M  V30 33 1 33 5
M  V30 34 1 32 8
M  V30 35 1 25 11
M  V30 36 1 32 27
M  V30 37 1 21 13
M  V30 38 1 21 16
M  V30 39 1 1 34
M  V30 40 1 1 35
M  V30 41 1 1 36
M  V30 42 1 3 37
M  V30 43 1 3 38
M  V30 44 1 3 39
M  V30 45 1 4 40
M  V30 46 1 4 41
M  V30 47 1 5 42
M  V30 48 1 6 43
M  V30 49 1 6 44
M  V30 50 1 7 45
M  V30 51 1 7 46
M  V30 52 1 14 47
M  V30 53 1 15 48
M  V30 54 1 17 49
M  V30 55 1 18 50
M  V30 56 1 19 51
M  V30 57 1 20 52
M  V30 58 1 24 53
M  V30 59 1 28 54
M  V30 60 1 29 55
M  V30 61 1 30 56
M  V30 62 1 31 57
M  V30 63 1 33 58
M  V30 64 1 33 59
M  V30 END BOND
M  V30 END CTAB
M  END
>  <Dataset>  (470) 
ChEMBL_Kinases

>  <Ligand_Instance>  (470) 
nan

>  <PDB_ID>  (470) 
nan

>  <Standardized_SMILES>  (470) 
CN(C)CC1CCn2c(c(C3=C(c4c[nH]c5ccccc45)C(=O)NC3=O)c3ccccc32)C1

>  <Name>  (470) 
nan

>  <Pocket>  (470) 
nan

>  <ATP_Site>  (470) 
nan

>  <Peripheral>  (470) 
nan

>  <Num_H_Atoms_ProtBoundConf>  (470) 
nan

>  <Num_Resolved_Atoms>  (470) 
nan

>  <Num_Not_Resolved_Atoms>  (470) 
nan

$$$$
CHEMBL372503
     RDKit          3D

  0  0  0  0  0  0  0  0  0  0999 V3000
M  V30 BEGIN CTAB
M  V30 COUNTS 40 44 0 0 0
M  V30 BEGIN ATOM
M  V30 1 Br 3.036069 -4.463244 3.187774 0
M  V30 2 C 2.864294 -2.653203 2.567773 0
M  V30 3 C 3.613342 -1.705124 3.257088 0
M  V30 4 N 3.493836 -0.443845 2.827002 0
M  V30 5 C 2.724020 -0.033588 1.805214 0
M  V30 6 N 2.687790 1.319631 1.471695 0
M  V30 7 C 1.930329 1.986955 0.483122 0
M  V30 8 C 1.087809 1.372236 -0.415899 0
M  V30 9 C 0.328750 2.004922 -1.375307 0
M  V30 10 C 0.402595 3.376022 -1.461304 0
M  V30 11 N -0.218874 4.242972 -2.285249 0
M  V30 12 C 0.223468 5.468369 -1.921449 0
M  V30 13 N 1.088864 5.357223 -0.908106 0
M  V30 14 C 1.236784 4.044807 -0.578785 0
M  V30 15 C 1.975488 3.368581 0.361654 0
M  V30 16 N 2.027987 -0.990429 1.179626 0
M  V30 17 C 2.068440 -2.279837 1.520276 0
M  V30 18 N 1.366316 -3.361156 0.931052 0
M  V30 19 C -0.054397 -3.525619 0.988425 0
M  V30 20 C -0.747317 -4.657269 0.554916 0
M  V30 21 C -2.114833 -4.670355 0.647883 0
M  V30 22 C -2.839337 -3.591611 1.160720 0
M  V30 23 N -4.158529 -3.388944 1.338927 0
M  V30 24 C -4.340049 -2.145931 1.881004 0
M  V30 25 N -3.118865 -1.602203 2.027699 0
M  V30 26 C -2.170188 -2.443192 1.603332 0
M  V30 27 C -0.796616 -2.467455 1.494212 0
M  V30 28 H 4.275384 -1.878901 4.096327 0
M  V30 29 H 3.323234 1.967051 2.034726 0
M  V30 30 H 0.974133 0.302229 -0.414274 0
M  V30 31 H -0.324024 1.447419 -2.063043 0
M  V30 32 H -0.894741 4.093306 -3.046724 0
M  V30 33 H -0.003049 6.471592 -2.303143 0
M  V30 34 H 2.613372 3.959375 1.027493 0
M  V30 35 H 1.949679 -4.081685 0.426534 0
M  V30 36 H -0.142251 -5.473036 0.165697 0
M  V30 37 H -2.626417 -5.563754 0.303148 0
M  V30 38 H -4.955195 -4.032160 1.118641 0
M  V30 39 H -5.273055 -1.631541 2.164347 0
M  V30 40 H -0.310768 -1.547053 1.852803 0
M  V30 END ATOM
M  V30 BEGIN BOND
M  V30 1 1 1 2
M  V30 2 2 2 3
M  V30 3 1 3 4
M  V30 4 2 4 5
M  V30 5 1 5 6
M  V30 6 1 6 7
M  V30 7 2 7 8
M  V30 8 1 8 9
M  V30 9 2 9 10
M  V30 10 1 10 11
M  V30 11 1 11 12
M  V30 12 2 12 13
M  V30 13 1 13 14
M  V30 14 2 14 15
M  V30 15 1 5 16
M  V30 16 2 16 17
M  V30 17 1 17 18
M  V30 18 1 18 19
M  V30 19 2 19 20
M  V30 20 1 20 21
M  V30 21 2 21 22
M  V30 22 1 22 23
M  V30 23 1 23 24
M  V30 24 2 24 25
M  V30 25 1 25 26
M  V30 26 2 26 27
M  V30 27 1 17 2
M  V30 28 1 27 19
M  V30 29 1 15 7
M  V30 30 1 26 22
M  V30 31 1 14 10
M  V30 32 1 3 28
M  V30 33 1 6 29
M  V30 34 1 8 30
M  V30 35 1 9 31
M  V30 36 1 11 32
M  V30 37 1 12 33
M  V30 38 1 15 34
M  V30 39 1 18 35
M  V30 40 1 20 36
M  V30 41 1 21 37
M  V30 42 1 23 38
M  V30 43 1 24 39
M  V30 44 1 27 40
M  V30 END BOND
M  V30 END CTAB
M  END
>  <Dataset>  (471) 
ChEMBL_Kinases

>  <Ligand_Instance>  (471) 
nan

>  <PDB_ID>  (471) 
nan

>  <Standardized_SMILES>  (471) 
Brc1cnc(Nc2ccc3[nH]cnc3c2)nc1Nc1ccc2[nH]cnc2c1

>  <Name>  (471) 
nan

>  <Pocket>  (471) 
nan

>  <ATP_Site>  (471) 
nan

>  <Peripheral>  (471) 
nan

>  <Num_H_Atoms_ProtBoundConf>  (471) 
nan

>  <Num_Resolved_Atoms>  (471) 
nan

>  <Num_Not_Resolved_Atoms>  (471) 
nan

$$$$
CHEMBL372465
     RDKit          3D

  0  0  0  0  0  0  0  0  0  0999 V3000
M  V30 BEGIN CTAB
M  V30 COUNTS 40 44 0 0 0
M  V30 BEGIN ATOM
M  V30 1 Br 2.714912 -4.049047 4.313655 0
M  V30 2 C 2.604199 -2.224262 3.799421 0
M  V30 3 C 3.097083 -1.149783 4.518749 0
M  V30 4 N 2.981747 0.129899 4.078584 0
M  V30 5 C 2.374497 0.387846 2.911835 0
M  V30 6 N 2.148585 1.686410 2.357491 0
M  V30 7 C 1.652020 1.958575 1.055578 0
M  V30 8 C 1.719926 1.101121 -0.028594 0
M  V30 9 C 1.172752 1.464451 -1.238420 0
M  V30 10 C 0.552474 2.670765 -1.392481 0
M  V30 11 N -0.048288 3.211012 -2.478404 0
M  V30 12 C -0.511273 4.431649 -2.097002 0
M  V30 13 N -0.196984 4.636300 -0.787899 0
M  V30 14 C 0.456982 3.559790 -0.347058 0
M  V30 15 C 1.010197 3.177142 0.846618 0
M  V30 16 N 1.896782 -0.660636 2.216700 0
M  V30 17 C 1.983826 -1.946803 2.604662 0
M  V30 18 N 1.399125 -2.881198 1.717507 0
M  V30 19 C 0.149043 -3.114925 1.079873 0
M  V30 20 C -0.004914 -4.248111 0.311981 0
M  V30 21 C -1.233169 -4.430553 -0.276704 0
M  V30 22 C -2.264859 -3.557235 -0.130432 0
M  V30 23 C -2.136796 -2.406810 0.637613 0
M  V30 24 C -0.891221 -2.204576 1.246218 0
M  V30 25 O -3.371437 -1.778102 0.550131 0
M  V30 26 C -4.170139 -2.365185 -0.430598 0
M  V30 27 O -3.533648 -3.606234 -0.650308 0
M  V30 28 H 3.581086 -1.382029 5.444653 0
M  V30 29 H 2.378464 2.456823 2.994226 0
M  V30 30 H 2.224884 0.140866 0.075131 0
M  V30 31 H 1.276750 0.719540 -2.040513 0
M  V30 32 H -0.159189 2.808801 -3.432377 0
M  V30 33 H -1.048749 5.175879 -2.664906 0
M  V30 34 H 0.915678 3.905621 1.659077 0
M  V30 35 H 2.203681 -3.557154 1.542992 0
M  V30 36 H 0.830232 -4.928751 0.211774 0
M  V30 37 H -1.310930 -5.350550 -0.878464 0
M  V30 38 H -0.806760 -1.299726 1.847179 0
M  V30 39 H -5.217406 -2.564821 -0.066373 0
M  V30 40 H -4.215684 -1.764443 -1.375286 0
M  V30 END ATOM
M  V30 BEGIN BOND
M  V30 1 1 1 2
M  V30 2 2 2 3
M  V30 3 1 3 4
M  V30 4 2 4 5
M  V30 5 1 5 6
M  V30 6 1 6 7
M  V30 7 2 7 8
M  V30 8 1 8 9
M  V30 9 2 9 10
M  V30 10 1 10 11
M  V30 11 1 11 12
M  V30 12 2 12 13
M  V30 13 1 13 14
M  V30 14 2 14 15
M  V30 15 1 5 16
M  V30 16 2 16 17
M  V30 17 1 17 18
M  V30 18 1 18 19
M  V30 19 2 19 20
M  V30 20 1 20 21
M  V30 21 2 21 22
M  V30 22 1 22 23
M  V30 23 2 23 24
M  V30 24 1 23 25
M  V30 25 1 25 26
M  V30 26 1 26 27
M  V30 27 1 17 2
M  V30 28 1 24 19
M  V30 29 1 15 7
M  V30 30 1 27 22
M  V30 31 1 14 10
M  V30 32 1 3 28
M  V30 33 1 6 29
M  V30 34 1 8 30
M  V30 35 1 9 31
M  V30 36 1 11 32
M  V30 37 1 12 33
M  V30 38 1 15 34
M  V30 39 1 18 35
M  V30 40 1 20 36
M  V30 41 1 21 37
M  V30 42 1 24 38
M  V30 43 1 26 39
M  V30 44 1 26 40
M  V30 END BOND
M  V30 END CTAB
M  END
>  <Dataset>  (472) 
ChEMBL_Kinases

>  <Ligand_Instance>  (472) 
nan

>  <PDB_ID>  (472) 
nan

>  <Standardized_SMILES>  (472) 
Brc1cnc(Nc2ccc3[nH]cnc3c2)nc1Nc1ccc2c(c1)OCO2

>  <Name>  (472) 
nan

>  <Pocket>  (472) 
nan

>  <ATP_Site>  (472) 
nan

>  <Peripheral>  (472) 
nan

>  <Num_H_Atoms_ProtBoundConf>  (472) 
nan

>  <Num_Resolved_Atoms>  (472) 
nan

>  <Num_Not_Resolved_Atoms>  (472) 
nan

$$$$
CHEMBL37139
     RDKit          3D

  0  0  0  0  0  0  0  0  0  0999 V3000
M  V30 BEGIN CTAB
M  V30 COUNTS 40 42 0 0 0
M  V30 BEGIN ATOM
M  V30 1 C -0.214023 -7.836158 1.334330 0
M  V30 2 O 0.410234 -7.228171 0.204991 0
M  V30 3 C 0.501003 -5.864813 0.086781 0
M  V30 4 C -0.000353 -5.019579 1.041911 0
M  V30 5 C 0.113307 -3.653830 0.881561 0
M  V30 6 C 0.714639 -3.056581 -0.205911 0
M  V30 7 C 0.845655 -1.617493 -0.395758 0
M  V30 8 C 0.410455 -0.700461 0.439822 0
M  V30 9 C 0.543205 0.740635 0.246838 0
M  V30 10 C 1.146811 1.325795 -0.845329 0
M  V30 11 C 1.265792 2.689748 -1.015756 0
M  V30 12 C 0.762323 3.544043 -0.056548 0
M  V30 13 C 0.815595 4.921838 -0.105345 0
M  V30 14 C 0.258613 5.629225 0.947232 0
M  V30 15 C -0.344185 5.035567 2.037615 0
M  V30 16 C -0.912238 5.844888 3.114237 0
M  V30 17 O -0.923332 7.102572 3.179854 0
M  V30 18 O -1.506947 5.194913 4.187612 0
M  V30 19 C -0.393025 3.649544 2.077945 0
M  V30 20 O -0.997715 3.040403 3.171262 0
M  V30 21 C 0.161885 2.941332 1.029154 0
M  V30 22 N 0.066115 1.606443 1.157815 0
M  V30 23 C 1.203379 -3.941333 -1.139196 0
M  V30 24 C 1.106222 -5.310248 -1.009400 0
M  V30 25 O 1.621806 -6.138811 -1.990167 0
M  V30 26 H -0.084722 -8.919099 1.327061 0
M  V30 27 H -1.269760 -7.547747 1.338249 0
M  V30 28 H 0.220508 -7.430310 2.287170 0
M  V30 29 H -0.481030 -5.454515 1.912708 0
M  V30 30 H -0.297812 -3.028809 1.662336 0
M  V30 31 H 1.333170 -1.269078 -1.282291 0
M  V30 32 H -0.083461 -1.041632 1.338429 0
M  V30 33 H 1.553927 0.714278 -1.618122 0
M  V30 34 H 1.739916 3.130786 -1.874311 0
M  V30 35 H 1.287353 5.369874 -0.959290 0
M  V30 36 H 0.308827 6.726663 0.894002 0
M  V30 37 H -1.690583 5.600858 5.086900 0
M  V30 38 H -2.012058 3.057804 3.299303 0
M  V30 39 H 1.694971 -3.553216 -2.031813 0
M  V30 40 H 1.329015 -7.103772 -2.050051 0
M  V30 END ATOM
M  V30 BEGIN BOND
M  V30 1 1 1 2
M  V30 2 1 2 3
M  V30 3 2 3 4
M  V30 4 1 4 5
M  V30 5 2 5 6
M  V30 6 1 6 7
M  V30 7 2 7 8
M  V30 8 1 8 9
M  V30 9 2 9 10
M  V30 10 1 10 11
M  V30 11 2 11 12
M  V30 12 1 12 13
M  V30 13 2 13 14
M  V30 14 1 14 15
M  V30 15 1 15 16
M  V30 16 2 16 17
M  V30 17 1 16 18
M  V30 18 2 15 19
M  V30 19 1 19 20
M  V30 20 1 19 21
M  V30 21 2 21 22
M  V30 22 1 6 23
M  V30 23 2 23 24
M  V30 24 1 24 25
M  V30 25 1 24 3
M  V30 26 1 22 9
M  V30 27 1 21 12
M  V30 28 1 1 26
M  V30 29 1 1 27
M  V30 30 1 1 28
M  V30 31 1 4 29
M  V30 32 1 5 30
M  V30 33 1 7 31
M  V30 34 1 8 32
M  V30 35 1 10 33
M  V30 36 1 11 34
M  V30 37 1 13 35
M  V30 38 1 14 36
M  V30 39 1 18 37
M  V30 40 1 20 38
M  V30 41 1 23 39
M  V30 42 1 25 40
M  V30 END BOND
M  V30 END CTAB
M  END
>  <Dataset>  (473) 
ChEMBL_Kinases

>  <Ligand_Instance>  (473) 
nan

>  <PDB_ID>  (473) 
nan

>  <Standardized_SMILES>  (473) 
COc1ccc(/C=C/c2ccc3ccc(C(=O)O)c(O)c3n2)cc1O

>  <Name>  (473) 
nan

>  <Pocket>  (473) 
nan

>  <ATP_Site>  (473) 
nan

>  <Peripheral>  (473) 
nan

>  <Num_H_Atoms_ProtBoundConf>  (473) 
nan

>  <Num_Resolved_Atoms>  (473) 
nan

>  <Num_Not_Resolved_Atoms>  (473) 
nan

$$$$
CHEMBL566058
     RDKit          3D

  0  0  0  0  0  0  0  0  0  0999 V3000
M  V30 BEGIN CTAB
M  V30 COUNTS 57 60 0 0 0
M  V30 BEGIN ATOM
M  V30 1 C 4.075078 2.603718 -0.169568 0
M  V30 2 C 3.436335 1.341814 0.387300 0
M  V30 3 O 3.150646 1.592486 1.735535 0
M  V30 4 C 3.667191 0.825648 2.733682 0
M  V30 5 C 3.205004 1.318535 3.962419 0
M  V30 6 C 3.568107 0.732797 5.180607 0
M  V30 7 C 4.406049 -0.365632 5.202201 0
M  V30 8 C 4.859132 -0.848483 3.992463 0
M  V30 9 C 4.499308 -0.269243 2.799745 0
M  V30 10 C 2.194317 1.012882 -0.384948 0
M  V30 11 O 2.186234 0.750536 -1.630073 0
M  V30 12 N 0.933554 0.981961 0.276118 0
M  V30 13 C -0.287961 0.678810 -0.389653 0
M  V30 14 C -0.620513 -0.659086 -0.411193 0
M  V30 15 C -1.776607 -1.096770 -1.021519 0
M  V30 16 C -2.298697 -2.448226 -1.153862 0
M  V30 17 C -3.476921 -2.899833 -0.591383 0
M  V30 18 C -4.455341 -2.202935 0.234746 0
M  V30 19 C -5.792550 -1.960919 -0.025509 0
M  V30 20 C -6.547438 -1.275963 0.898596 0
M  V30 21 C -5.991110 -0.823856 2.086826 0
M  V30 22 F -6.786283 -0.153584 2.959974 0
M  V30 23 C -4.659071 -1.050920 2.373395 0
M  V30 24 C -3.904929 -1.743942 1.432992 0
M  V30 25 N -3.519527 -4.186676 -0.995571 0
M  V30 26 O -2.513469 -4.512149 -1.713323 0
M  V30 27 C -1.704755 -3.461208 -1.851970 0
M  V30 28 C -0.428021 -3.491261 -2.635081 0
M  V30 29 C 0.756652 -3.889306 -1.779200 0
M  V30 30 C -0.110095 -2.200223 -3.309632 0
M  V30 31 C -2.610375 -0.153256 -1.621432 0
M  V30 32 C -2.248133 1.195259 -1.583981 0
M  V30 33 N -1.114507 1.590049 -0.981345 0
M  V30 34 H 3.440465 3.441680 0.148790 0
M  V30 35 H 4.033886 2.490736 -1.272776 0
M  V30 36 H 5.091094 2.661694 0.243676 0
M  V30 37 H 4.097181 0.487544 0.292983 0
M  V30 38 H 2.549550 2.159736 4.152664 0
M  V30 39 H 3.248113 1.061787 6.157958 0
M  V30 40 H 4.713759 -0.851558 6.115275 0
M  V30 41 H 5.516818 -1.701103 3.907506 0
M  V30 42 H 4.810236 -0.586609 1.815895 0
M  V30 43 H 0.848547 1.188459 1.316627 0
M  V30 44 H -0.040934 -1.462372 0.024389 0
M  V30 45 H -6.106545 -2.360057 -0.977664 0
M  V30 46 H -7.581174 -1.132595 0.612517 0
M  V30 47 H -4.212503 -0.698078 3.308688 0
M  V30 48 H -2.855586 -1.888464 1.725978 0
M  V30 49 H -0.536199 -4.293694 -3.410774 0
M  V30 50 H 0.935512 -4.995063 -1.837204 0
M  V30 51 H 0.629034 -3.646072 -0.704475 0
M  V30 52 H 1.673963 -3.329639 -2.127620 0
M  V30 53 H -0.979227 -1.568416 -3.552984 0
M  V30 54 H 0.712321 -1.624250 -2.790533 0
M  V30 55 H 0.368665 -2.448165 -4.303222 0
M  V30 56 H -3.556310 -0.362617 -2.139341 0
M  V30 57 H -2.829957 2.012339 -2.022618 0
M  V30 END ATOM
M  V30 BEGIN BOND
M  V30 1 1 1 2
M  V30 2 1 2 3
M  V30 3 1 3 4
M  V30 4 2 4 5
M  V30 5 1 5 6
M  V30 6 2 6 7
M  V30 7 1 7 8
M  V30 8 2 8 9
M  V30 9 1 2 10
M  V30 10 2 10 11
M  V30 11 1 10 12
M  V30 12 1 12 13
M  V30 13 2 13 14
M  V30 14 1 14 15
M  V30 15 1 15 16
M  V30 16 1 16 17
M  V30 17 1 17 18
M  V30 18 2 18 19
M  V30 19 1 19 20
M  V30 20 2 20 21
M  V30 21 1 21 22
M  V30 22 1 21 23
M  V30 23 2 23 24
M  V30 24 2 17 25
M  V30 25 1 25 26
M  V30 26 1 26 27
M  V30 27 1 27 28
M  V30 28 1 28 29
M  V30 29 1 28 30
M  V30 30 2 15 31
M  V30 31 1 31 32
M  V30 32 2 32 33
M  V30 33 1 9 4
M  V30 34 1 33 13
M  V30 35 2 27 16
M  V30 36 1 24 18
M  V30 37 1 1 34
M  V30 38 1 1 35
M  V30 39 1 1 36
M  V30 40 1 2 37
M  V30 41 1 5 38
M  V30 42 1 6 39
M  V30 43 1 7 40
M  V30 44 1 8 41
M  V30 45 1 9 42
M  V30 46 1 12 43
M  V30 47 1 14 44
M  V30 48 1 19 45
M  V30 49 1 20 46
M  V30 50 1 23 47
M  V30 51 1 24 48
M  V30 52 1 28 49
M  V30 53 1 29 50
M  V30 54 1 29 51
M  V30 55 1 29 52
M  V30 56 1 30 53
M  V30 57 1 30 54
M  V30 58 1 30 55
M  V30 59 1 31 56
M  V30 60 1 32 57
M  V30 END BOND
M  V30 END CTAB
M  END
>  <Dataset>  (474) 
ChEMBL_Kinases

>  <Ligand_Instance>  (474) 
nan

>  <PDB_ID>  (474) 
nan

>  <Standardized_SMILES>  (474) 
CC(Oc1ccccc1)C(=O)Nc1cc(-c2c(-c3ccc(F)cc3)noc2C(C)C)ccn1

>  <Name>  (474) 
nan

>  <Pocket>  (474) 
nan

>  <ATP_Site>  (474) 
nan

>  <Peripheral>  (474) 
nan

>  <Num_H_Atoms_ProtBoundConf>  (474) 
nan

>  <Num_Resolved_Atoms>  (474) 
nan

>  <Num_Not_Resolved_Atoms>  (474) 
nan

$$$$
CHEMBL371931
     RDKit          3D

  0  0  0  0  0  0  0  0  0  0999 V3000
M  V30 BEGIN CTAB
M  V30 COUNTS 53 56 0 0 0
M  V30 BEGIN ATOM
M  V30 1 C 2.995364 -5.255146 5.571404 0
M  V30 2 O 4.281231 -5.168142 4.975811 0
M  V30 3 C 4.399664 -4.411025 3.820106 0
M  V30 4 C 3.324937 -3.759976 3.255957 0
M  V30 5 C 3.423735 -3.000644 2.102863 0
M  V30 6 C 2.304524 -2.295606 1.483359 0
M  V30 7 C 1.294559 -1.796287 2.315902 0
M  V30 8 C 0.214387 -1.125568 1.767076 0
M  V30 9 C 0.194328 -0.984345 0.396593 0
M  V30 10 C 1.171173 -1.462763 -0.452591 0
M  V30 11 C 2.262171 -2.138754 0.091194 0
M  V30 12 N 0.863761 -1.162045 -1.815304 0
M  V30 13 C -0.363433 -0.465907 -1.788237 0
M  V30 14 O -0.859473 -0.082184 -2.860015 0
M  V30 15 C -0.819681 -0.332123 -0.418964 0
M  V30 16 C -1.935036 0.329073 -0.165506 0
M  V30 17 C -2.900785 0.948738 -1.071223 0
M  V30 18 N -3.469504 0.282539 -2.119022 0
M  V30 19 C -4.311391 1.077768 -2.815156 0
M  V30 20 C -5.133779 0.751078 -4.021149 0
M  V30 21 C -4.245594 2.295225 -2.144295 0
M  V30 22 C -3.384517 2.242490 -1.067362 0
M  V30 23 C -3.023267 3.300900 -0.098752 0
M  V30 24 C -4.008335 3.291413 1.073295 0
M  V30 25 C -3.066649 4.681400 -0.704384 0
M  V30 26 C 4.677047 -2.925617 1.532428 0
M  V30 27 C 5.808910 -3.547049 2.032204 0
M  V30 28 C 5.646169 -4.296759 3.195289 0
M  V30 29 O 6.800938 -4.923284 3.695449 0
M  V30 30 H 2.946311 -5.948568 6.426383 0
M  V30 31 H 2.631835 -4.226456 5.804411 0
M  V30 32 H 2.291572 -5.625678 4.769383 0
M  V30 33 H 2.333558 -3.824619 3.716257 0
M  V30 34 H 1.392776 -1.951653 3.361846 0
M  V30 35 H -0.583455 -0.726728 2.382124 0
M  V30 36 H 3.057395 -2.537436 -0.497052 0
M  V30 37 H 1.477523 -1.438695 -2.609561 0
M  V30 38 H -2.171936 0.427017 0.903884 0
M  V30 39 H -3.379912 -0.722817 -2.458767 0
M  V30 40 H -4.780002 1.296235 -4.916238 0
M  V30 41 H -5.058320 -0.360370 -4.192229 0
M  V30 42 H -6.211167 0.970293 -3.843863 0
M  V30 43 H -4.804175 3.182819 -2.433459 0
M  V30 44 H -2.036278 3.093702 0.328833 0
M  V30 45 H -5.007009 3.078295 0.676163 0
M  V30 46 H -4.034135 4.309965 1.506692 0
M  V30 47 H -3.726433 2.553821 1.846388 0
M  V30 48 H -3.180988 5.408828 0.114156 0
M  V30 49 H -2.129513 4.924264 -1.217749 0
M  V30 50 H -3.977057 4.784787 -1.338584 0
M  V30 51 H 4.824449 -2.352832 0.632901 0
M  V30 52 H 6.779509 -3.458776 1.544810 0
M  V30 53 H 6.790064 -5.936782 3.793906 0
M  V30 END ATOM
M  V30 BEGIN BOND
M  V30 1 1 1 2
M  V30 2 1 2 3
M  V30 3 2 3 4
M  V30 4 1 4 5
M  V30 5 1 5 6
M  V30 6 2 6 7
M  V30 7 1 7 8
M  V30 8 2 8 9
M  V30 9 1 9 10
M  V30 10 2 10 11
M  V30 11 1 10 12
M  V30 12 1 12 13
M  V30 13 2 13 14
M  V30 14 1 13 15
M  V30 15 2 15 16
M  V30 16 1 16 17
M  V30 17 1 17 18
M  V30 18 1 18 19
M  V30 19 1 19 20
M  V30 20 2 19 21
M  V30 21 1 21 22
M  V30 22 1 22 23
M  V30 23 1 23 24
M  V30 24 1 23 25
M  V30 25 2 5 26
M  V30 26 1 26 27
M  V30 27 2 27 28
M  V30 28 1 28 29
M  V30 29 1 28 3
M  V30 30 1 11 6
M  V30 31 2 22 17
M  V30 32 1 15 9
M  V30 33 1 1 30
M  V30 34 1 1 31
M  V30 35 1 1 32
M  V30 36 1 4 33
M  V30 37 1 7 34
M  V30 38 1 8 35
M  V30 39 1 11 36
M  V30 40 1 12 37
M  V30 41 1 16 38
M  V30 42 1 18 39
M  V30 43 1 20 40
M  V30 44 1 20 41
M  V30 45 1 20 42
M  V30 46 1 21 43
M  V30 47 1 23 44
M  V30 48 1 24 45
M  V30 49 1 24 46
M  V30 50 1 24 47
M  V30 51 1 25 48
M  V30 52 1 25 49
M  V30 53 1 25 50
M  V30 54 1 26 51
M  V30 55 1 27 52
M  V30 56 1 29 53
M  V30 END BOND
M  V30 END CTAB
M  END
>  <Dataset>  (475) 
ChEMBL_Kinases

>  <Ligand_Instance>  (475) 
nan

>  <PDB_ID>  (475) 
nan

>  <Standardized_SMILES>  (475) 
COc1cc(-c2ccc3c(c2)NC(=O)/C3=C\c2[nH]c(C)cc2C(C)C)ccc1O

>  <Name>  (475) 
nan

>  <Pocket>  (475) 
nan

>  <ATP_Site>  (475) 
nan

>  <Peripheral>  (475) 
nan

>  <Num_H_Atoms_ProtBoundConf>  (475) 
nan

>  <Num_Resolved_Atoms>  (475) 
nan

>  <Num_Not_Resolved_Atoms>  (475) 
nan

$$$$
CHEMBL372160
     RDKit          3D

  0  0  0  0  0  0  0  0  0  0999 V3000
M  V30 BEGIN CTAB
M  V30 COUNTS 80 84 0 0 0
M  V30 BEGIN ATOM
M  V30 1 C 0.075458 -4.113525 0.755164 0
M  V30 2 C -0.572837 -4.216330 -0.577975 0
M  V30 3 O -1.789459 -4.483153 -0.299937 0
M  V30 4 N 0.105168 -4.038029 -1.840415 0
M  V30 5 C -0.848771 -4.207112 -2.925063 0
M  V30 6 C -1.527232 -5.545621 -2.923578 0
M  V30 7 C 0.020897 -4.168202 -4.200901 0
M  V30 8 C -1.858936 -3.106016 -2.947473 0
M  V30 9 C -1.207041 -1.754259 -3.155479 0
M  V30 10 C -2.204170 -0.652248 -3.123339 0
M  V30 11 C -3.059750 0.052989 -3.954822 0
M  V30 12 C -3.818153 1.034738 -3.380260 0
M  V30 13 C -3.731960 1.297699 -2.070196 0
M  V30 14 C -4.366227 2.269039 -1.211597 0
M  V30 15 C -5.376031 3.166710 -1.541849 0
M  V30 16 C -5.794323 4.023207 -0.567134 0
M  V30 17 N -5.266506 4.011231 0.652542 0
M  V30 18 C -4.290274 3.159298 1.007812 0
M  V30 19 N -3.683616 3.156204 2.306780 0
M  V30 20 C -2.697746 2.236860 2.754834 0
M  V30 21 C -1.928966 2.593881 3.842010 0
M  V30 22 C -0.947810 1.791443 4.366575 0
M  V30 23 C -0.691089 0.562195 3.805169 0
M  V30 24 C 0.279388 -0.504741 4.110661 0
M  V30 25 O 0.057333 -1.698840 4.509735 0
M  V30 26 N 1.587095 0.040057 3.871868 0
M  V30 27 C 2.045745 1.363294 3.441607 0
M  V30 28 C 3.240359 1.231822 2.521466 0
M  V30 29 C 3.009812 -0.036124 1.716155 0
M  V30 30 N 3.644887 -0.021082 0.460116 0
M  V30 31 C 3.425630 -1.183315 -0.334963 0
M  V30 32 C 4.315147 -0.941965 -1.551220 0
M  V30 33 C 5.373355 0.032643 -1.071294 0
M  V30 34 C 5.023959 0.322329 0.400964 0
M  V30 35 C 3.298915 -1.187334 2.622472 0
M  V30 36 C 2.810460 -0.761472 4.017889 0
M  V30 37 C -1.448753 0.153146 2.695806 0
M  V30 38 C -2.435850 1.007452 2.201165 0
M  V30 39 N -3.899319 2.332435 0.039269 0
M  V30 40 S -2.451619 0.057806 -1.494925 0
M  V30 41 H 0.057710 -5.123808 1.253340 0
M  V30 42 H -0.421026 -3.407674 1.430585 0
M  V30 43 H 1.141160 -3.825751 0.634803 0
M  V30 44 H 1.127542 -3.827636 -1.703538 0
M  V30 45 H -1.917941 -5.687775 -3.973156 0
M  V30 46 H -2.406704 -5.612664 -2.281006 0
M  V30 47 H -0.795372 -6.370310 -2.728116 0
M  V30 48 H -0.613354 -4.119322 -5.100226 0
M  V30 49 H 0.735954 -3.324018 -4.128552 0
M  V30 50 H 0.643228 -5.082149 -4.239082 0
M  V30 51 H -2.548987 -3.269127 -3.806197 0
M  V30 52 H -2.413615 -3.077267 -2.003164 0
M  V30 53 H -0.698469 -1.699924 -4.149024 0
M  V30 54 H -0.408209 -1.649760 -2.414193 0
M  V30 55 H -3.007733 -0.282271 -4.977392 0
M  V30 56 H -4.487369 1.591912 -4.024114 0
M  V30 57 H -5.662758 3.011655 -2.576269 0
M  V30 58 H -6.577112 4.689661 -0.895426 0
M  V30 59 H -4.026028 3.906001 2.944380 0
M  V30 60 H -2.050044 3.538528 4.354054 0
M  V30 61 H -0.287944 1.952293 5.197547 0
M  V30 62 H 1.261545 1.891278 2.901596 0
M  V30 63 H 2.339568 1.907237 4.382970 0
M  V30 64 H 3.332973 2.063225 1.796383 0
M  V30 65 H 4.194018 1.139249 3.099361 0
M  V30 66 H 1.891913 -0.075339 1.528198 0
M  V30 67 H 2.362601 -1.236089 -0.665877 0
M  V30 68 H 3.669266 -2.141732 0.151222 0
M  V30 69 H 4.756186 -1.887866 -1.931882 0
M  V30 70 H 3.708880 -0.514432 -2.381648 0
M  V30 71 H 6.388667 -0.370146 -1.179780 0
M  V30 72 H 5.312741 0.953602 -1.689953 0
M  V30 73 H 5.672712 -0.286668 1.045410 0
M  V30 74 H 5.210874 1.418571 0.544033 0
M  V30 75 H 2.777671 -2.113960 2.314554 0
M  V30 76 H 4.399232 -1.305005 2.677869 0
M  V30 77 H 3.585408 -0.279416 4.608877 0
M  V30 78 H 2.496932 -1.688088 4.528310 0
M  V30 79 H -1.361459 -0.796996 2.138296 0
M  V30 80 H -3.028413 0.686322 1.352978 0
M  V30 END ATOM
M  V30 BEGIN BOND
M  V30 1 1 1 2
M  V30 2 2 2 3
M  V30 3 1 2 4
M  V30 4 1 4 5
M  V30 5 1 5 6
M  V30 6 1 5 7
M  V30 7 1 5 8
M  V30 8 1 8 9
M  V30 9 1 9 10
M  V30 10 2 10 11
M  V30 11 1 11 12
M  V30 12 2 12 13
M  V30 13 1 13 14
M  V30 14 2 14 15
M  V30 15 1 15 16
M  V30 16 2 16 17
M  V30 17 1 17 18
M  V30 18 1 18 19
M  V30 19 1 19 20
M  V30 20 2 20 21
M  V30 21 1 21 22
M  V30 22 2 22 23
M  V30 23 1 23 24
M  V30 24 2 24 25
M  V30 25 1 24 26
M  V30 26 1 26 27
M  V30 27 1 27 28
M  V30 28 1 28 29
M  V30 29 1 29 30
M  V30 30 1 30 31
M  V30 31 1 31 32
M  V30 32 1 32 33
M  V30 33 1 33 34
M  V30 34 1 29 35
M  V30 35 1 35 36
M  V30 36 1 23 37
M  V30 37 2 37 38
M  V30 38 2 18 39
M  V30 39 1 13 40
M  V30 40 1 40 10
M  V30 41 1 39 14
M  V30 42 1 38 20
M  V30 43 1 36 26
M  V30 44 1 34 30
M  V30 45 1 1 41
M  V30 46 1 1 42
M  V30 47 1 1 43
M  V30 48 1 4 44
M  V30 49 1 6 45
M  V30 50 1 6 46
M  V30 51 1 6 47
M  V30 52 1 7 48
M  V30 53 1 7 49
M  V30 54 1 7 50
M  V30 55 1 8 51
M  V30 56 1 8 52
M  V30 57 1 9 53
M  V30 58 1 9 54
M  V30 59 1 11 55
M  V30 60 1 12 56
M  V30 61 1 15 57
M  V30 62 1 16 58
M  V30 63 1 19 59
M  V30 64 1 21 60
M  V30 65 1 22 61
M  V30 66 1 27 62
M  V30 67 1 27 63
M  V30 68 1 28 64
M  V30 69 1 28 65
M  V30 70 1 29 66
M  V30 71 1 31 67
M  V30 72 1 31 68
M  V30 73 1 32 69
M  V30 74 1 32 70
M  V30 75 1 33 71
M  V30 76 1 33 72
M  V30 77 1 34 73
M  V30 78 1 34 74
M  V30 79 1 35 75
M  V30 80 1 35 76
M  V30 81 1 36 77
M  V30 82 1 36 78
M  V30 83 1 37 79
M  V30 84 1 38 80
M  V30 END BOND
M  V30 END CTAB
M  END
>  <Dataset>  (476) 
ChEMBL_Kinases

>  <Ligand_Instance>  (476) 
nan

>  <PDB_ID>  (476) 
nan

>  <Standardized_SMILES>  (476) 
CC(=O)NC(C)(C)CCc1ccc(-c2ccnc(Nc3ccc(C(=O)N4CCC(N5CCCC5)CC4)cc3)n2)s1

>  <Name>  (476) 
nan

>  <Pocket>  (476) 
nan

>  <ATP_Site>  (476) 
nan

>  <Peripheral>  (476) 
nan

>  <Num_H_Atoms_ProtBoundConf>  (476) 
nan

>  <Num_Resolved_Atoms>  (476) 
nan

>  <Num_Not_Resolved_Atoms>  (476) 
nan

$$$$
CHEMBL372083
     RDKit          3D

  0  0  0  0  0  0  0  0  0  0999 V3000
M  V30 BEGIN CTAB
M  V30 COUNTS 58 61 0 0 0
M  V30 BEGIN ATOM
M  V30 1 C 1.206221 1.104932 3.385967 0
M  V30 2 C 2.687377 0.852325 3.292606 0
M  V30 3 O 2.952698 -0.466564 3.588457 0
M  V30 4 C 3.240117 1.278018 1.943514 0 CFG=1
M  V30 5 C 4.745486 1.294422 2.020353 0
M  V30 6 O 5.090424 2.058881 3.147525 0
M  V30 7 N 2.716126 0.536816 0.843582 0
M  V30 8 C 3.219873 0.891658 -0.447313 0
M  V30 9 C 2.161335 0.566902 -1.479336 0
M  V30 10 C 1.828469 -0.886898 -1.380258 0
M  V30 11 C 0.386532 -1.153684 -1.136091 0
M  V30 12 C -0.395568 -0.714138 -0.073261 0
M  V30 13 C -1.704870 -1.181291 -0.209891 0
M  V30 14 C -2.723684 -0.842710 0.800989 0
M  V30 15 C -2.704550 -1.182215 2.159071 0
M  V30 16 C -3.759918 -0.763540 2.940005 0
M  V30 17 N -4.765144 -0.058551 2.417948 0
M  V30 18 C -4.818720 0.285366 1.123554 0
M  V30 19 C -3.773170 -0.116481 0.296364 0
M  V30 20 C -1.691254 -1.916761 -1.387585 0
M  V30 21 C -2.917777 -2.561360 -1.844299 0
M  V30 22 C -3.482692 -3.533395 -1.010523 0
M  V30 23 C -4.639139 -4.242974 -1.289670 0
M  V30 24 C -5.251436 -3.941921 -2.487060 0
M  V30 25 F -6.383798 -4.610088 -2.801924 0
M  V30 26 C -4.739357 -2.993686 -3.346897 0
M  V30 27 C -3.579869 -2.304080 -3.033225 0
M  V30 28 N -0.444471 -1.867370 -1.887142 0
M  V30 29 C 2.692440 -1.595832 -0.337776 0
M  V30 30 C 2.700232 -0.882745 0.989079 0
M  V30 31 H 0.677403 0.153263 3.470173 0
M  V30 32 H 0.852192 1.614239 2.465657 0
M  V30 33 H 0.965489 1.778856 4.248006 0
M  V30 34 H 3.198434 1.486914 4.050999 0
M  V30 35 H 2.177075 -0.842707 4.087805 0
M  V30 36 H 2.921607 2.341454 1.817208 0
M  V30 37 H 5.197413 1.826866 1.158509 0
M  V30 38 H 5.178854 0.296174 2.183337 0
M  V30 39 H 5.299265 1.493704 3.912142 0
M  V30 40 H 3.537105 1.952039 -0.524383 0
M  V30 41 H 4.087483 0.217704 -0.665409 0
M  V30 42 H 1.320990 1.239944 -1.293267 0
M  V30 43 H 2.572262 0.842185 -2.479764 0
M  V30 44 H 2.120470 -1.382888 -2.350250 0
M  V30 45 H -0.002568 -0.099635 0.723004 0
M  V30 46 H -1.834085 -1.751750 2.440465 0
M  V30 47 H -3.697021 -1.051628 3.982537 0
M  V30 48 H -5.657736 0.862481 0.733435 0
M  V30 49 H -3.875268 0.195076 -0.748045 0
M  V30 50 H -2.974956 -3.756722 -0.057815 0
M  V30 51 H -4.985093 -4.977450 -0.563224 0
M  V30 52 H -5.243302 -2.769674 -4.295451 0
M  V30 53 H -3.128715 -1.542342 -3.676367 0
M  V30 54 H -0.235225 -2.376244 -2.794948 0
M  V30 55 H 2.183931 -2.589040 -0.159760 0
M  V30 56 H 3.686792 -1.815712 -0.721163 0
M  V30 57 H 1.888477 -1.237528 1.659630 0
M  V30 58 H 3.661421 -1.198467 1.487441 0
M  V30 END ATOM
M  V30 BEGIN BOND
M  V30 1 1 1 2
M  V30 2 1 2 3
M  V30 3 1 2 4
M  V30 4 1 4 5
M  V30 5 1 5 6
M  V30 6 1 4 7
M  V30 7 1 7 8
M  V30 8 1 8 9
M  V30 9 1 9 10
M  V30 10 1 10 11
M  V30 11 2 11 12
M  V30 12 1 12 13
M  V30 13 1 13 14
M  V30 14 2 14 15
M  V30 15 1 15 16
M  V30 16 2 16 17
M  V30 17 1 17 18
M  V30 18 2 18 19
M  V30 19 2 13 20
M  V30 20 1 20 21
M  V30 21 2 21 22
M  V30 22 1 22 23
M  V30 23 2 23 24
M  V30 24 1 24 25
M  V30 25 1 24 26
M  V30 26 2 26 27
M  V30 27 1 20 28
M  V30 28 1 10 29
M  V30 29 1 29 30
M  V30 30 1 30 7
M  V30 31 1 28 11
M  V30 32 1 19 14
M  V30 33 1 27 21
M  V30 34 1 1 31
M  V30 35 1 1 32
M  V30 36 1 1 33
M  V30 37 1 2 34
M  V30 38 1 3 35
M  V30 39 1 4 36 CFG=3
M  V30 40 1 5 37
M  V30 41 1 5 38
M  V30 42 1 6 39
M  V30 43 1 8 40
M  V30 44 1 8 41
M  V30 45 1 9 42
M  V30 46 1 9 43
M  V30 47 1 10 44
M  V30 48 1 12 45
M  V30 49 1 15 46
M  V30 50 1 16 47
M  V30 51 1 18 48
M  V30 52 1 19 49
M  V30 53 1 22 50
M  V30 54 1 23 51
M  V30 55 1 26 52
M  V30 56 1 27 53
M  V30 57 1 28 54
M  V30 58 1 29 55
M  V30 59 1 29 56
M  V30 60 1 30 57
M  V30 61 1 30 58
M  V30 END BOND
M  V30 END CTAB
M  END
>  <Dataset>  (477) 
ChEMBL_Kinases

>  <Ligand_Instance>  (477) 
nan

>  <PDB_ID>  (477) 
nan

>  <Standardized_SMILES>  (477) 
CC(O)[C@@H](CO)N1CCC(c2cc(-c3ccncc3)c(-c3ccc(F)cc3)[nH]2)CC1

>  <Name>  (477) 
nan

>  <Pocket>  (477) 
nan

>  <ATP_Site>  (477) 
nan

>  <Peripheral>  (477) 
nan

>  <Num_H_Atoms_ProtBoundConf>  (477) 
nan

>  <Num_Resolved_Atoms>  (477) 
nan

>  <Num_Not_Resolved_Atoms>  (477) 
nan

$$$$
CHEMBL566061
     RDKit          3D

  0  0  0  0  0  0  0  0  0  0999 V3000
M  V30 BEGIN CTAB
M  V30 COUNTS 44 48 0 0 0
M  V30 BEGIN ATOM
M  V30 1 C 2.088328 -5.503743 -2.593646 0
M  V30 2 C 1.338057 -4.236566 -2.802704 0
M  V30 3 C -0.021521 -4.391247 -3.262643 0
M  V30 4 S -0.570845 -2.653202 -3.388248 0
M  V30 5 C 1.025308 -1.903868 -2.829246 0
M  V30 6 C 1.233925 -0.424456 -2.714826 0
M  V30 7 N 0.891614 0.089581 -1.402937 0
M  V30 8 C 1.040223 1.497368 -1.157789 0
M  V30 9 N 1.487688 2.295715 -2.129610 0
M  V30 10 C 1.644869 3.622366 -1.946693 0
M  V30 11 N 1.347351 4.197927 -0.745469 0
M  V30 12 C 0.891789 3.412028 0.257923 0
M  V30 13 C 0.573395 3.935264 1.495863 0
M  V30 14 C 0.104108 3.198000 2.564004 0
M  V30 15 C -0.042347 1.844086 2.334400 0
M  V30 16 C -0.535115 0.990498 3.413580 0
M  V30 17 C -1.427224 1.439689 4.361456 0
M  V30 18 C -1.879956 0.613251 5.376809 0
M  V30 19 C -1.422118 -0.698328 5.438521 0
M  V30 20 C -0.527593 -1.188702 4.508273 0
M  V30 21 C -0.106896 -0.315580 3.511074 0
M  V30 22 O -0.220582 -2.528263 4.783509 0
M  V30 23 C -1.262995 -2.988605 5.638199 0
M  V30 24 O -1.643867 -1.780264 6.279159 0
M  V30 25 C 0.267458 1.292230 1.108787 0
M  V30 26 C 0.734132 2.057226 0.062039 0
M  V30 27 C 1.861977 -3.000834 -2.585965 0
M  V30 28 H 2.171992 -6.041537 -3.573485 0
M  V30 29 H 3.109583 -5.328341 -2.264860 0
M  V30 30 H 1.523107 -6.197298 -1.914893 0
M  V30 31 H -0.580590 -5.203092 -3.476828 0
M  V30 32 H 0.580362 0.112884 -3.439108 0
M  V30 33 H 2.280385 -0.170535 -3.005304 0
M  V30 34 H 0.561618 -0.630933 -0.745726 0
M  V30 35 H 2.008445 4.241974 -2.751132 0
M  V30 36 H 0.700252 4.999703 1.639511 0
M  V30 37 H -0.131566 3.657613 3.518337 0
M  V30 38 H -1.781055 2.472507 4.303589 0
M  V30 39 H -2.579545 0.936054 6.134573 0
M  V30 40 H 0.592096 -0.683665 2.775648 0
M  V30 41 H -0.846084 -3.714891 6.336285 0
M  V30 42 H -2.070897 -3.398799 5.007927 0
M  V30 43 H 0.127488 0.226716 1.003976 0
M  V30 44 H 2.863132 -2.820749 -2.244743 0
M  V30 END ATOM
M  V30 BEGIN BOND
M  V30 1 1 1 2
M  V30 2 2 2 3
M  V30 3 1 3 4
M  V30 4 1 4 5
M  V30 5 1 5 6
M  V30 6 1 6 7
M  V30 7 1 7 8
M  V30 8 2 8 9
M  V30 9 1 9 10
M  V30 10 2 10 11
M  V30 11 1 11 12
M  V30 12 2 12 13
M  V30 13 1 13 14
M  V30 14 2 14 15
M  V30 15 1 15 16
M  V30 16 2 16 17
M  V30 17 1 17 18
M  V30 18 2 18 19
M  V30 19 1 19 20
M  V30 20 2 20 21
M  V30 21 1 20 22
M  V30 22 1 22 23
M  V30 23 1 23 24
M  V30 24 1 15 25
M  V30 25 2 25 26
M  V30 26 2 5 27
M  V30 27 1 27 2
M  V30 28 1 26 8
M  V30 29 1 26 12
M  V30 30 1 21 16
M  V30 31 1 24 19
M  V30 32 1 1 28
M  V30 33 1 1 29
M  V30 34 1 1 30
M  V30 35 1 3 31
M  V30 36 1 6 32
M  V30 37 1 6 33
M  V30 38 1 7 34
M  V30 39 1 10 35
M  V30 40 1 13 36
M  V30 41 1 14 37
M  V30 42 1 17 38
M  V30 43 1 18 39
M  V30 44 1 21 40
M  V30 45 1 23 41
M  V30 46 1 23 42
M  V30 47 1 25 43
M  V30 48 1 27 44
M  V30 END BOND
M  V30 END CTAB
M  END
>  <Dataset>  (478) 
ChEMBL_Kinases

>  <Ligand_Instance>  (478) 
nan

>  <PDB_ID>  (478) 
nan

>  <Standardized_SMILES>  (478) 
Cc1csc(CNc2ncnc3ccc(-c4ccc5c(c4)OCO5)cc23)c1

>  <Name>  (478) 
nan

>  <Pocket>  (478) 
nan

>  <ATP_Site>  (478) 
nan

>  <Peripheral>  (478) 
nan

>  <Num_H_Atoms_ProtBoundConf>  (478) 
nan

>  <Num_Resolved_Atoms>  (478) 
nan

>  <Num_Not_Resolved_Atoms>  (478) 
nan

$$$$
CHEMBL372057
     RDKit          3D

  0  0  0  0  0  0  0  0  0  0999 V3000
M  V30 BEGIN CTAB
M  V30 COUNTS 47 50 0 0 0
M  V30 BEGIN ATOM
M  V30 1 C -2.357674 -4.597948 2.329018 0
M  V30 2 N -2.980209 -3.285408 2.339439 0
M  V30 3 C -3.134287 -2.857313 0.998235 0
M  V30 4 C -3.404776 -1.404002 0.791933 0
M  V30 5 C -2.676620 -0.486624 1.706563 0
M  V30 6 C -1.338214 -0.052580 1.198537 0
M  V30 7 C -0.941278 1.252602 0.942506 0
M  V30 8 C 0.371551 1.196726 0.486081 0
M  V30 9 C 1.181963 2.346159 0.099523 0
M  V30 10 C 2.313342 2.513437 0.904384 0
M  V30 11 C 3.171180 3.563074 0.651126 0
M  V30 12 N 2.922709 4.417837 -0.359758 0
M  V30 13 C 1.855960 4.277270 -1.134572 0
M  V30 14 C 0.978187 3.259650 -0.928375 0
M  V30 15 C 0.745679 -0.133050 0.473236 0
M  V30 16 C 2.079958 -0.588801 0.044987 0
M  V30 17 C 2.963613 -1.275762 0.878863 0
M  V30 18 C 4.184741 -1.648280 0.357474 0
M  V30 19 C 4.597244 -1.389991 -0.933119 0
M  V30 20 C 3.733884 -0.710249 -1.772731 0
M  V30 21 F 4.040698 -0.402592 -3.067930 0
M  V30 22 C 2.493623 -0.326471 -1.258861 0
M  V30 23 N -0.302255 -0.883149 0.908491 0
M  V30 24 C -2.583001 -0.993006 3.127832 0
M  V30 25 C -2.238723 -2.440266 3.208831 0
M  V30 26 H -2.982001 -5.369840 2.823673 0
M  V30 27 H -2.078469 -4.929775 1.285460 0
M  V30 28 H -1.381733 -4.573041 2.873853 0
M  V30 29 H -2.274984 -3.223448 0.383030 0
M  V30 30 H -4.020192 -3.422051 0.590065 0
M  V30 31 H -3.114154 -1.153645 -0.257416 0
M  V30 32 H -4.518357 -1.224135 0.835624 0
M  V30 33 H -3.276034 0.460257 1.786222 0
M  V30 34 H -1.509243 2.159469 1.061155 0
M  V30 35 H 2.622851 1.904384 1.736667 0
M  V30 36 H 4.083060 3.767342 1.234657 0
M  V30 37 H 1.537307 4.893065 -1.981731 0
M  V30 38 H 0.059849 3.014329 -1.479455 0
M  V30 39 H 2.648954 -1.482158 1.891236 0
M  V30 40 H 4.894515 -2.186657 0.987789 0
M  V30 41 H 5.537934 -1.673328 -1.345333 0
M  V30 42 H 1.833630 0.204756 -1.934680 0
M  V30 43 H -0.248378 -1.911595 0.981102 0
M  V30 44 H -1.774507 -0.410407 3.618276 0
M  V30 45 H -3.547962 -0.792733 3.667098 0
M  V30 46 H -2.449575 -2.770960 4.263822 0
M  V30 47 H -1.129720 -2.575363 3.108764 0
M  V30 END ATOM
M  V30 BEGIN BOND
M  V30 1 1 1 2
M  V30 2 1 2 3
M  V30 3 1 3 4
M  V30 4 1 4 5
M  V30 5 1 5 6
M  V30 6 2 6 7
M  V30 7 1 7 8
M  V30 8 1 8 9
M  V30 9 2 9 10
M  V30 10 1 10 11
M  V30 11 2 11 12
M  V30 12 1 12 13
M  V30 13 2 13 14
M  V30 14 2 8 15
M  V30 15 1 15 16
M  V30 16 2 16 17
M  V30 17 1 17 18
M  V30 18 2 18 19
M  V30 19 1 19 20
M  V30 20 1 20 21
M  V30 21 2 20 22
M  V30 22 1 15 23
M  V30 23 1 5 24
M  V30 24 1 24 25
M  V30 25 1 25 2
M  V30 26 1 23 6
M  V30 27 1 14 9
M  V30 28 1 22 16
M  V30 29 1 1 26
M  V30 30 1 1 27
M  V30 31 1 1 28
M  V30 32 1 3 29
M  V30 33 1 3 30
M  V30 34 1 4 31
M  V30 35 1 4 32
M  V30 36 1 5 33
M  V30 37 1 7 34
M  V30 38 1 10 35
M  V30 39 1 11 36
M  V30 40 1 13 37
M  V30 41 1 14 38
M  V30 42 1 17 39
M  V30 43 1 18 40
M  V30 44 1 19 41
M  V30 45 1 22 42
M  V30 46 1 23 43
M  V30 47 1 24 44
M  V30 48 1 24 45
M  V30 49 1 25 46
M  V30 50 1 25 47
M  V30 END BOND
M  V30 END CTAB
M  END
>  <Dataset>  (479) 
ChEMBL_Kinases

>  <Ligand_Instance>  (479) 
nan

>  <PDB_ID>  (479) 
nan

>  <Standardized_SMILES>  (479) 
CN1CCC(c2cc(-c3ccncc3)c(-c3cccc(F)c3)[nH]2)CC1

>  <Name>  (479) 
nan

>  <Pocket>  (479) 
nan

>  <ATP_Site>  (479) 
nan

>  <Peripheral>  (479) 
nan

>  <Num_H_Atoms_ProtBoundConf>  (479) 
nan

>  <Num_Resolved_Atoms>  (479) 
nan

>  <Num_Not_Resolved_Atoms>  (479) 
nan

$$$$
CHEMBL566064
     RDKit          3D

  0  0  0  0  0  0  0  0  0  0999 V3000
M  V30 BEGIN CTAB
M  V30 COUNTS 50 53 0 0 0
M  V30 BEGIN ATOM
M  V30 1 O -2.956115 -5.667393 1.305689 0
M  V30 2 C -1.808958 -6.221454 1.289892 0
M  V30 3 N -0.682047 -5.580229 1.817531 0
M  V30 4 C -0.961598 -4.244956 2.371198 0
M  V30 5 N -0.933587 -3.162942 1.822263 0
M  V30 6 C -1.195699 -2.012561 2.382536 0
M  V30 7 C -1.128090 -0.773660 1.614834 0
M  V30 8 C -0.795037 -0.696744 0.278672 0
M  V30 9 C -0.724925 0.460861 -0.465813 0
M  V30 10 C -1.010709 1.650775 0.171042 0
M  V30 11 S -0.930677 3.143612 -0.747763 0
M  V30 12 O -1.884959 4.097588 -0.091630 0
M  V30 13 O -1.394575 2.952609 -2.151554 0
M  V30 14 N 0.666965 3.810991 -0.657046 0
M  V30 15 C 0.924234 4.095841 0.738852 0
M  V30 16 C 2.327020 4.588738 0.993149 0
M  V30 17 C 3.304095 3.439590 0.975738 0
M  V30 18 C 3.955968 3.409994 -0.386697 0
M  V30 19 C 2.954749 3.555843 -1.503273 0
M  V30 20 C 1.646295 2.899390 -1.211379 0
M  V30 21 C -1.352358 1.655012 1.507949 0
M  V30 22 C -1.400049 0.451600 2.183167 0
M  V30 23 C -1.531447 -2.061479 3.718168 0
M  V30 24 S -1.427719 -3.924887 4.067938 0
M  V30 25 C -1.632881 -7.554681 0.715587 0
M  V30 26 C -2.548356 -8.351162 0.160552 0
M  V30 27 C -2.217636 -9.582558 -0.335117 0
M  V30 28 C -0.834727 -9.914749 -0.200312 0
M  V30 29 S -0.105285 -8.450912 0.621953 0
M  V30 30 H 0.283928 -5.961439 1.843405 0
M  V30 31 H -0.564210 -1.633288 -0.245527 0
M  V30 32 H -0.456193 0.444139 -1.511950 0
M  V30 33 H 0.673112 3.283292 1.418501 0
M  V30 34 H 0.249289 4.963879 0.984959 0
M  V30 35 H 2.640829 5.339468 0.257444 0
M  V30 36 H 2.335476 5.016660 2.015434 0
M  V30 37 H 4.095427 3.618582 1.732709 0
M  V30 38 H 2.828032 2.483799 1.267572 0
M  V30 39 H 4.531924 2.464380 -0.455547 0
M  V30 40 H 4.674632 4.253795 -0.431987 0
M  V30 41 H 3.397855 3.070371 -2.396941 0
M  V30 42 H 2.816726 4.623929 -1.803638 0
M  V30 43 H 1.210078 2.566812 -2.190011 0
M  V30 44 H 1.781637 1.985897 -0.620850 0
M  V30 45 H -1.571278 2.594565 1.984461 0
M  V30 46 H -1.673087 0.542759 3.216192 0
M  V30 47 H -1.800518 -1.100147 4.382481 0
M  V30 48 H -3.597545 -8.017970 0.095541 0
M  V30 49 H -2.880338 -10.298688 -0.800846 0
M  V30 50 H -0.396144 -10.894308 -0.558262 0
M  V30 END ATOM
M  V30 BEGIN BOND
M  V30 1 2 1 2
M  V30 2 1 2 3
M  V30 3 1 3 4
M  V30 4 2 4 5
M  V30 5 1 5 6
M  V30 6 1 6 7
M  V30 7 2 7 8
M  V30 8 1 8 9
M  V30 9 2 9 10
M  V30 10 1 10 11
M  V30 11 2 11 12
M  V30 12 2 11 13
M  V30 13 1 11 14
M  V30 14 1 14 15
M  V30 15 1 15 16
M  V30 16 1 16 17
M  V30 17 1 17 18
M  V30 18 1 18 19
M  V30 19 1 19 20
M  V30 20 1 10 21
M  V30 21 2 21 22
M  V30 22 2 6 23
M  V30 23 1 23 24
M  V30 24 1 2 25
M  V30 25 2 25 26
M  V30 26 1 26 27
M  V30 27 2 27 28
M  V30 28 1 28 29
M  V30 29 1 24 4
M  V30 30 1 29 25
M  V30 31 1 22 7
M  V30 32 1 20 14
M  V30 33 1 3 30
M  V30 34 1 8 31
M  V30 35 1 9 32
M  V30 36 1 15 33
M  V30 37 1 15 34
M  V30 38 1 16 35
M  V30 39 1 16 36
M  V30 40 1 17 37
M  V30 41 1 17 38
M  V30 42 1 18 39
M  V30 43 1 18 40
M  V30 44 1 19 41
M  V30 45 1 19 42
M  V30 46 1 20 43
M  V30 47 1 20 44
M  V30 48 1 21 45
M  V30 49 1 22 46
M  V30 50 1 23 47
M  V30 51 1 26 48
M  V30 52 1 27 49
M  V30 53 1 28 50
M  V30 END BOND
M  V30 END CTAB
M  END
>  <Dataset>  (480) 
ChEMBL_Kinases

>  <Ligand_Instance>  (480) 
nan

>  <PDB_ID>  (480) 
nan

>  <Standardized_SMILES>  (480) 
O=C(Nc1nc(-c2ccc(S(=O)(=O)N3CCCCCC3)cc2)cs1)c1cccs1

>  <Name>  (480) 
nan

>  <Pocket>  (480) 
nan

>  <ATP_Site>  (480) 
nan

>  <Peripheral>  (480) 
nan

>  <Num_H_Atoms_ProtBoundConf>  (480) 
nan

>  <Num_Resolved_Atoms>  (480) 
nan

>  <Num_Not_Resolved_Atoms>  (480) 
nan

$$$$
CHEMBL371391
     RDKit          3D

  0  0  0  0  0  0  0  0  0  0999 V3000
M  V30 BEGIN CTAB
M  V30 COUNTS 38 41 0 0 0
M  V30 BEGIN ATOM
M  V30 1 C 0.186359 -3.703548 3.351350 0
M  V30 2 C 1.275366 -2.678015 3.121728 0
M  V30 3 N 0.835186 -1.574367 2.326176 0
M  V30 4 C 0.861201 -1.411952 0.993667 0
M  V30 5 C 1.370563 -2.380186 0.037049 0
M  V30 6 N 1.895740 -3.585742 0.316389 0
M  V30 7 O 2.253341 -4.197243 -0.770898 0
M  V30 8 N 1.992620 -3.451742 -1.806665 0
M  V30 9 C 1.438091 -2.304014 -1.337804 0
M  V30 10 N 1.001219 -1.209740 -2.130784 0
M  V30 11 N 0.336807 -0.198078 0.656288 0
M  V30 12 C -0.013244 0.386473 1.799532 0
M  V30 13 C -0.583442 1.619300 1.963265 0
M  V30 14 O -0.932970 2.550544 0.999040 0
M  V30 15 C -0.701417 2.256891 -0.336053 0
M  V30 16 C -1.813468 1.621537 -0.882481 0
M  V30 17 C -1.826123 1.222294 -2.223973 0
M  V30 18 C -0.707347 1.474411 -2.992542 0
M  V30 19 C 0.389987 2.103870 -2.444423 0
M  V30 20 C 0.408215 2.501277 -1.117354 0
M  V30 21 N -0.864755 2.033281 3.221859 0
M  V30 22 C -0.598959 1.265950 4.314150 0
M  V30 23 C -0.022792 0.026108 4.113283 0
M  V30 24 C 0.281980 -0.438280 2.845815 0
M  V30 25 H -0.297951 -3.599739 4.346499 0
M  V30 26 H -0.619449 -3.659312 2.598680 0
M  V30 27 H 0.617183 -4.731943 3.346473 0
M  V30 28 H 2.133852 -3.182298 2.646195 0
M  V30 29 H 1.559745 -2.304286 4.138133 0
M  V30 30 H -0.056441 -1.235701 -2.198399 0
M  V30 31 H 1.866906 -0.689301 -2.421179 0
M  V30 32 H -2.745623 1.370045 -0.383138 0
M  V30 33 H -2.664422 0.726214 -2.694222 0
M  V30 34 H -0.644427 1.194853 -4.036238 0
M  V30 35 H 1.307347 2.341794 -2.968297 0
M  V30 36 H 1.194115 2.994751 -0.579268 0
M  V30 37 H -0.837756 1.629538 5.308815 0
M  V30 38 H 0.199485 -0.604779 4.961512 0
M  V30 END ATOM
M  V30 BEGIN BOND
M  V30 1 1 1 2
M  V30 2 1 2 3
M  V30 3 1 3 4
M  V30 4 1 4 5
M  V30 5 2 5 6
M  V30 6 1 6 7
M  V30 7 1 7 8
M  V30 8 2 8 9
M  V30 9 1 9 10
M  V30 10 2 4 11
M  V30 11 1 11 12
M  V30 12 2 12 13
M  V30 13 1 13 14
M  V30 14 1 14 15
M  V30 15 2 15 16
M  V30 16 1 16 17
M  V30 17 2 17 18
M  V30 18 1 18 19
M  V30 19 2 19 20
M  V30 20 1 13 21
M  V30 21 2 21 22
M  V30 22 1 22 23
M  V30 23 2 23 24
M  V30 24 1 24 3
M  V30 25 1 9 5
M  V30 26 1 24 12
M  V30 27 1 20 15
M  V30 28 1 1 25
M  V30 29 1 1 26
M  V30 30 1 1 27
M  V30 31 1 2 28
M  V30 32 1 2 29
M  V30 33 1 10 30
M  V30 34 1 10 31
M  V30 35 1 16 32
M  V30 36 1 17 33
M  V30 37 1 18 34
M  V30 38 1 19 35
M  V30 39 1 20 36
M  V30 40 1 22 37
M  V30 41 1 23 38
M  V30 END BOND
M  V30 END CTAB
M  END
>  <Dataset>  (481) 
ChEMBL_Kinases

>  <Ligand_Instance>  (481) 
nan

>  <PDB_ID>  (481) 
nan

>  <Standardized_SMILES>  (481) 
CCn1c(-c2nonc2N)nc2c(Oc3ccccc3)nccc21

>  <Name>  (481) 
nan

>  <Pocket>  (481) 
nan

>  <ATP_Site>  (481) 
nan

>  <Peripheral>  (481) 
nan

>  <Num_H_Atoms_ProtBoundConf>  (481) 
nan

>  <Num_Resolved_Atoms>  (481) 
nan

>  <Num_Not_Resolved_Atoms>  (481) 
nan

$$$$
CHEMBL371937
     RDKit          3D

  0  0  0  0  0  0  0  0  0  0999 V3000
M  V30 BEGIN CTAB
M  V30 COUNTS 56 60 0 0 0
M  V30 BEGIN ATOM
M  V30 1 C 2.762409 -1.756381 4.916660 0
M  V30 2 O 2.923951 -0.389687 5.158218 0
M  V30 3 C 2.450153 0.613104 4.310995 0
M  V30 4 C 1.768545 0.302097 3.134616 0
M  V30 5 C 1.278680 1.247099 2.259977 0
M  V30 6 C 1.503431 2.553751 2.618275 0
M  V30 7 C 2.174748 2.875256 3.777376 0
M  V30 8 C 2.664247 1.927366 4.651009 0
M  V30 9 O 3.344009 2.196166 5.826264 0
M  V30 10 C 3.649034 3.464408 6.322491 0
M  V30 11 O 1.128512 3.699593 1.936327 0
M  V30 12 C 0.370433 3.782623 0.777050 0
M  V30 13 N 0.249360 5.006896 0.236093 0
M  V30 14 C -0.447478 5.255299 -0.879809 0
M  V30 15 N -1.079912 4.278051 -1.541675 0
M  V30 16 C -1.021071 2.992942 -1.078465 0
M  V30 17 N -1.705277 2.012334 -1.816495 0
M  V30 18 C -1.940431 0.659662 -2.077284 0
M  V30 19 C -3.100761 -0.084646 -2.091803 0
M  V30 20 N -3.045483 -1.387899 -2.409832 0
M  V30 21 C -1.863437 -1.986729 -2.718952 0
M  V30 22 N -2.015323 -3.352023 -3.027452 0
M  V30 23 C -1.965592 -4.540492 -2.304781 0
M  V30 24 O -1.707448 -4.125966 -1.117873 0
M  V30 25 C -2.105865 -5.955621 -2.474099 0
M  V30 26 C -2.379846 -6.374583 -3.762847 0
M  V30 27 C -2.539868 -7.707123 -4.071437 0
M  V30 28 C -2.410548 -8.591075 -3.024003 0
M  V30 29 C -2.137615 -8.163838 -1.743530 0
M  V30 30 F -2.013201 -9.051870 -0.708670 0
M  V30 31 C -1.975942 -6.830391 -1.424498 0
M  V30 32 N -0.715019 -1.278242 -2.711783 0
M  V30 33 C -0.732223 0.050630 -2.392392 0
M  V30 34 C -0.298211 2.770453 0.072665 0
M  V30 35 N -0.362826 1.402504 0.455126 0
M  V30 36 C 0.609542 0.564417 1.115001 0
M  V30 37 H 3.517283 -2.133921 4.196886 0
M  V30 38 H 1.772125 -2.035265 4.520253 0
M  V30 39 H 2.891541 -2.287395 5.901181 0
M  V30 40 H 1.642781 -0.749673 2.943301 0
M  V30 41 H 2.329600 3.916780 4.022252 0
M  V30 42 H 3.536696 4.290306 5.613702 0
M  V30 43 H 3.017045 3.741717 7.211225 0
M  V30 44 H 4.696158 3.445633 6.726667 0
M  V30 45 H -0.522606 6.268710 -1.286731 0
M  V30 46 H -2.389332 2.374788 -2.548991 0
M  V30 47 H -3.958765 0.505945 -1.830730 0
M  V30 48 H -2.221929 -3.675254 -3.985387 0
M  V30 49 H -2.481168 -5.675311 -4.596484 0
M  V30 50 H -2.755728 -8.145601 -5.030179 0
M  V30 51 H -2.513232 -9.676529 -3.127019 0
M  V30 52 H -1.763234 -6.432204 -0.449861 0
M  V30 53 H 0.267927 0.448801 -2.437868 0
M  V30 54 H -1.318336 1.003697 0.188091 0
M  V30 55 H 1.408931 0.300199 0.391863 0
M  V30 56 H 0.154067 -0.369369 1.510208 0
M  V30 END ATOM
M  V30 BEGIN BOND
M  V30 1 1 1 2
M  V30 2 1 2 3
M  V30 3 2 3 4
M  V30 4 1 4 5
M  V30 5 2 5 6
M  V30 6 1 6 7
M  V30 7 2 7 8
M  V30 8 1 8 9
M  V30 9 1 9 10
M  V30 10 1 6 11
M  V30 11 1 11 12
M  V30 12 2 12 13
M  V30 13 1 13 14
M  V30 14 2 14 15
M  V30 15 1 15 16
M  V30 16 1 16 17
M  V30 17 1 17 18
M  V30 18 2 18 19
M  V30 19 1 19 20
M  V30 20 2 20 21
M  V30 21 1 21 22
M  V30 22 1 22 23
M  V30 23 2 23 24
M  V30 24 1 23 25
M  V30 25 2 25 26
M  V30 26 1 26 27
M  V30 27 2 27 28
M  V30 28 1 28 29
M  V30 29 1 29 30
M  V30 30 2 29 31
M  V30 31 1 21 32
M  V30 32 2 32 33
M  V30 33 2 16 34
M  V30 34 1 34 35
M  V30 35 1 35 36
M  V30 36 1 8 3
M  V30 37 1 34 12
M  V30 38 1 36 5
M  V30 39 1 33 18
M  V30 40 1 31 25
M  V30 41 1 1 37
M  V30 42 1 1 38
M  V30 43 1 1 39
M  V30 44 1 4 40
M  V30 45 1 7 41
M  V30 46 1 10 42
M  V30 47 1 10 43
M  V30 48 1 10 44
M  V30 49 1 14 45
M  V30 50 1 17 46
M  V30 51 1 19 47
M  V30 52 1 22 48
M  V30 53 1 26 49
M  V30 54 1 27 50
M  V30 55 1 28 51
M  V30 56 1 31 52
M  V30 57 1 33 53
M  V30 58 1 35 54
M  V30 59 1 36 55
M  V30 60 1 36 56
M  V30 END BOND
M  V30 END CTAB
M  END
>  <Dataset>  (482) 
ChEMBL_Kinases

>  <Ligand_Instance>  (482) 
nan

>  <PDB_ID>  (482) 
nan

>  <Standardized_SMILES>  (482) 
COc1cc2c(cc1OC)Oc1ncnc(Nc3cnc(NC(=O)c4cccc(F)c4)nc3)c1NC2

>  <Name>  (482) 
nan

>  <Pocket>  (482) 
nan

>  <ATP_Site>  (482) 
nan

>  <Peripheral>  (482) 
nan

>  <Num_H_Atoms_ProtBoundConf>  (482) 
nan

>  <Num_Resolved_Atoms>  (482) 
nan

>  <Num_Not_Resolved_Atoms>  (482) 
nan

$$$$
CHEMBL3719327
     RDKit          3D

  0  0  0  0  0  0  0  0  0  0999 V3000
M  V30 BEGIN CTAB
M  V30 COUNTS 41 44 0 0 0
M  V30 BEGIN ATOM
M  V30 1 N 2.778978 -4.189222 3.462967 0
M  V30 2 C 1.842899 -3.176417 3.099950 0
M  V30 3 N 1.894151 -2.568980 1.897903 0
M  V30 4 C 0.999831 -1.598502 1.545198 0
M  V30 5 N 1.183580 -1.117032 0.247126 0
M  V30 6 C 0.306459 -1.446728 -0.856624 0
M  V30 7 C 0.333581 -0.376145 -1.868456 0
M  V30 8 C 1.432525 0.608730 -1.851142 0
M  V30 9 C 1.869031 0.837091 -3.278429 0
M  V30 10 O 3.054635 0.600727 -3.680465 0
M  V30 11 O 1.112084 1.309537 -4.325992 0
M  V30 12 C 2.658809 0.279181 -1.087824 0
M  V30 13 C 2.376094 -0.284234 0.287308 0
M  V30 14 C 0.062640 -1.296116 2.496916 0
M  V30 15 C 0.008103 -1.915345 3.725086 0
M  V30 16 N 0.914772 -2.864793 4.016681 0
M  V30 17 N -1.020782 -1.375873 4.402688 0
M  V30 18 C -1.609328 -0.439861 3.639711 0
M  V30 19 C -2.677187 0.386738 3.871035 0
M  V30 20 C -3.097352 1.292281 2.910053 0
M  V30 21 C -2.413755 1.349090 1.700309 0
M  V30 22 O -2.904083 2.293382 0.783957 0
M  V30 23 C -1.341622 0.514134 1.476596 0
M  V30 24 C -0.941648 -0.375183 2.438579 0
M  V30 25 H 2.400500 -5.145199 3.676030 0
M  V30 26 H 3.801589 -4.299167 3.596944 0
M  V30 27 H -0.739515 -1.605622 -0.503692 0
M  V30 28 H 0.664354 -2.403027 -1.321645 0
M  V30 29 H 0.237397 -0.877714 -2.885525 0
M  V30 30 H -0.655949 0.183915 -1.811003 0
M  V30 31 H 1.044733 1.615880 -1.519616 0
M  V30 32 H 1.058936 0.831077 -5.236712 0
M  V30 33 H 3.337828 -0.352840 -1.691640 0
M  V30 34 H 3.204088 1.244575 -0.916942 0
M  V30 35 H 2.348007 0.493013 1.069110 0
M  V30 36 H 3.227854 -0.954650 0.522949 0
M  V30 37 H -1.255664 -1.688881 5.357222 0
M  V30 38 H -3.196293 0.325943 4.822137 0
M  V30 39 H -3.938073 1.934904 3.106497 0
M  V30 40 H -3.896565 2.478369 0.724599 0
M  V30 41 H -0.912807 0.676914 0.513237 0
M  V30 END ATOM
M  V30 BEGIN BOND
M  V30 1 1 1 2
M  V30 2 2 2 3
M  V30 3 1 3 4
M  V30 4 1 4 5
M  V30 5 1 5 6
M  V30 6 1 6 7
M  V30 7 1 7 8
M  V30 8 1 8 9
M  V30 9 2 9 10
M  V30 10 1 9 11
M  V30 11 1 8 12
M  V30 12 1 12 13
M  V30 13 2 4 14
M  V30 14 1 14 15
M  V30 15 2 15 16
M  V30 16 1 15 17
M  V30 17 1 17 18
M  V30 18 2 18 19
M  V30 19 1 19 20
M  V30 20 2 20 21
M  V30 21 1 21 22
M  V30 22 1 21 23
M  V30 23 2 23 24
M  V30 24 1 16 2
M  V30 25 1 24 18
M  V30 26 1 13 5
M  V30 27 1 24 14
M  V30 28 1 1 25
M  V30 29 1 1 26
M  V30 30 1 6 27
M  V30 31 1 6 28
M  V30 32 1 7 29
M  V30 33 1 7 30
M  V30 34 1 8 31
M  V30 35 1 11 32
M  V30 36 1 12 33
M  V30 37 1 12 34
M  V30 38 1 13 35
M  V30 39 1 13 36
M  V30 40 1 17 37
M  V30 41 1 19 38
M  V30 42 1 20 39
M  V30 43 1 22 40
M  V30 44 1 23 41
M  V30 END BOND
M  V30 END CTAB
M  END
>  <Dataset>  (483) 
ChEMBL_Kinases

>  <Ligand_Instance>  (483) 
nan

>  <PDB_ID>  (483) 
nan

>  <Standardized_SMILES>  (483) 
Nc1nc(N2CCC(C(=O)O)CC2)c2c(n1)[nH]c1ccc(O)cc12

>  <Name>  (483) 
nan

>  <Pocket>  (483) 
nan

>  <ATP_Site>  (483) 
nan

>  <Peripheral>  (483) 
nan

>  <Num_H_Atoms_ProtBoundConf>  (483) 
nan

>  <Num_Resolved_Atoms>  (483) 
nan

>  <Num_Not_Resolved_Atoms>  (483) 
nan

$$$$
CHEMBL566074
     RDKit          3D

  0  0  0  0  0  0  0  0  0  0999 V3000
M  V30 BEGIN CTAB
M  V30 COUNTS 51 54 0 0 0
M  V30 BEGIN ATOM
M  V30 1 C 0.823003 -3.806656 0.825963 0
M  V30 2 C -0.167369 -3.328095 -0.153576 0
M  V30 3 C -0.046966 -2.174363 -0.899351 0
M  V30 4 N 1.122563 -1.433375 -0.674787 0
M  V30 5 C 1.578837 -0.226292 -1.242442 0
M  V30 6 C 2.367139 -0.244780 -2.395522 0
M  V30 7 C 2.694302 -1.522024 -2.978024 0
M  V30 8 N 2.971479 -2.552864 -3.439746 0
M  V30 9 C 2.798442 0.953953 -2.927388 0
M  V30 10 N 2.485661 2.151312 -2.372397 0
M  V30 11 C 1.720809 2.210008 -1.250279 0
M  V30 12 C 1.291782 1.014549 -0.721471 0
M  V30 13 C 0.470578 0.989183 0.475969 0
M  V30 14 C 0.036344 2.002164 1.193175 0
M  V30 15 C -0.775710 2.274245 2.402787 0
M  V30 16 C -0.009911 3.142545 3.359847 0
M  V30 17 C 0.770233 2.422326 4.402620 0
M  V30 18 C 1.090049 1.043514 3.923957 0
M  V30 19 C -0.187148 0.289124 3.763037 0
M  V30 20 C -1.288457 1.057535 3.105301 0
M  V30 21 C -0.949054 -1.711820 -1.810585 0
M  V30 22 C -2.090683 -2.498094 -1.984936 0
M  V30 23 C -2.284416 -3.682657 -1.264397 0
M  V30 24 N -3.265737 -4.600660 -1.241480 0
M  V30 25 C -2.952961 -5.570861 -0.347618 0
M  V30 26 C -1.720308 -5.282242 0.240524 0
M  V30 27 C -1.317971 -4.099926 -0.344015 0
M  V30 28 H 0.756787 -4.931689 0.903858 0
M  V30 29 H 1.878815 -3.623914 0.541496 0
M  V30 30 H 0.539131 -3.427016 1.821118 0
M  V30 31 H 1.897860 -1.660810 -0.012954 0
M  V30 32 H 3.408842 0.919640 -3.821873 0
M  V30 33 H 1.490159 3.175926 -0.834198 0
M  V30 34 H 0.085829 0.106108 0.954834 0
M  V30 35 H 0.343620 3.002516 0.824649 0
M  V30 36 H -1.699043 2.866946 2.047660 0
M  V30 37 H -0.755248 3.854337 3.834894 0
M  V30 38 H 0.683970 3.795592 2.751409 0
M  V30 39 H 1.752471 2.948082 4.560849 0
M  V30 40 H 0.257911 2.401468 5.391281 0
M  V30 41 H 1.684911 0.481079 4.707060 0
M  V30 42 H 1.727354 1.118180 3.044486 0
M  V30 43 H -0.023045 -0.649913 3.173269 0
M  V30 44 H -0.541622 -0.116984 4.771413 0
M  V30 45 H -1.865006 0.386210 2.422822 0
M  V30 46 H -2.021694 1.412590 3.893091 0
M  V30 47 H -0.839294 -0.811545 -2.382344 0
M  V30 48 H -2.882171 -2.259786 -2.664887 0
M  V30 49 H -4.143875 -4.604251 -1.804633 0
M  V30 50 H -3.473224 -6.469850 -0.041241 0
M  V30 51 H -1.180262 -5.855376 0.997434 0
M  V30 END ATOM
M  V30 BEGIN BOND
M  V30 1 1 1 2
M  V30 2 2 2 3
M  V30 3 1 3 4
M  V30 4 1 4 5
M  V30 5 2 5 6
M  V30 6 1 6 7
M  V30 7 3 7 8
M  V30 8 1 6 9
M  V30 9 2 9 10
M  V30 10 1 10 11
M  V30 11 2 11 12
M  V30 12 1 12 13
M  V30 13 2 13 14
M  V30 14 1 14 15
M  V30 15 1 15 16
M  V30 16 1 16 17
M  V30 17 1 17 18
M  V30 18 1 18 19
M  V30 19 1 19 20
M  V30 20 1 3 21
M  V30 21 2 21 22
M  V30 22 1 22 23
M  V30 23 1 23 24
M  V30 24 1 24 25
M  V30 25 2 25 26
M  V30 26 1 26 27
M  V30 27 1 27 2
M  V30 28 1 12 5
M  V30 29 1 20 15
M  V30 30 2 27 23
M  V30 31 1 1 28
M  V30 32 1 1 29
M  V30 33 1 1 30
M  V30 34 1 4 31
M  V30 35 1 9 32
M  V30 36 1 11 33
M  V30 37 1 13 34
M  V30 38 1 14 35
M  V30 39 1 15 36
M  V30 40 1 16 37
M  V30 41 1 16 38
M  V30 42 1 17 39
M  V30 43 1 17 40
M  V30 44 1 18 41
M  V30 45 1 18 42
M  V30 46 1 19 43
M  V30 47 1 19 44
M  V30 48 1 20 45
M  V30 49 1 20 46
M  V30 50 1 21 47
M  V30 51 1 22 48
M  V30 52 1 24 49
M  V30 53 1 25 50
M  V30 54 1 26 51
M  V30 END BOND
M  V30 END CTAB
M  END
>  <Dataset>  (484) 
ChEMBL_Kinases

>  <Ligand_Instance>  (484) 
nan

>  <PDB_ID>  (484) 
nan

>  <Standardized_SMILES>  (484) 
Cc1c(Nc2c(C#N)cncc2/C=C/C2CCCCC2)ccc2[nH]ccc12

>  <Name>  (484) 
nan

>  <Pocket>  (484) 
nan

>  <ATP_Site>  (484) 
nan

>  <Peripheral>  (484) 
nan

>  <Num_H_Atoms_ProtBoundConf>  (484) 
nan

>  <Num_Resolved_Atoms>  (484) 
nan

>  <Num_Not_Resolved_Atoms>  (484) 
nan

$$$$
CHEMBL3719325
     RDKit          3D

  0  0  0  0  0  0  0  0  0  0999 V3000
M  V30 BEGIN CTAB
M  V30 COUNTS 47 50 0 0 0
M  V30 BEGIN ATOM
M  V30 1 O 0.798262 -0.722212 4.777488 0
M  V30 2 C 0.655235 -0.019902 3.763461 0
M  V30 3 N 1.588474 -0.465219 2.743147 0
M  V30 4 C 2.549386 -1.551223 2.822075 0
M  V30 5 C 3.311751 -1.619854 1.490409 0 CFG=1
M  V30 6 C 2.378110 -1.851789 0.348167 0
M  V30 7 C 2.588588 -0.814329 -0.730583 0
M  V30 8 C 4.064058 -0.751332 -1.016468 0
M  V30 9 N 4.726942 -0.140206 0.096660 0
M  V30 10 C 4.192883 -0.428802 1.387613 0
M  V30 11 C -0.116875 1.115335 3.193486 0
M  V30 12 C -0.023045 2.438251 3.567710 0
M  V30 13 C -0.821906 3.307596 2.875788 0
M  V30 14 N -1.631523 2.896860 1.909076 0
M  V30 15 C -1.780003 1.630913 1.487891 0
M  V30 16 N -2.511311 0.979390 0.566208 0
M  V30 17 C -2.212857 -0.346932 0.626491 0
M  V30 18 C -2.675504 -1.574769 -0.108839 0
M  V30 19 O -2.942050 -2.549296 0.852264 0
M  V30 20 C -3.854814 -1.260438 -0.913341 0
M  V30 21 C -4.600218 -0.221320 -1.482789 0
M  V30 22 C -5.712605 -0.565990 -2.199637 0
M  V30 23 C -6.121498 -1.859656 -2.380364 0
M  V30 24 S -4.776833 -2.798647 -1.418638 0
M  V30 25 N -1.285445 -0.488837 1.603049 0
M  V30 26 C -0.988272 0.729523 2.166552 0
M  V30 27 H 1.618457 0.032095 1.800519 0
M  V30 28 H 3.248777 -1.489224 3.649946 0
M  V30 29 H 1.941647 -2.500279 2.832676 0
M  V30 30 H 3.929869 -2.558609 1.587110 0
M  V30 31 H 1.307632 -1.759204 0.633785 0
M  V30 32 H 2.467518 -2.839289 -0.134880 0
M  V30 33 H 2.264580 0.201097 -0.447901 0
M  V30 34 H 2.062932 -1.128399 -1.678864 0
M  V30 35 H 4.218484 -0.066023 -1.902548 0
M  V30 36 H 4.443192 -1.765154 -1.267350 0
M  V30 37 H 5.747711 -0.330219 0.048463 0
M  V30 38 H 3.624912 0.440972 1.800020 0
M  V30 39 H 5.063189 -0.616335 2.085130 0
M  V30 40 H 0.678996 2.622092 4.367543 0
M  V30 41 H -0.740202 4.347856 3.180263 0
M  V30 42 H -1.827702 -1.986941 -0.714502 0
M  V30 43 H -2.066952 -2.951226 1.125651 0
M  V30 44 H -4.163364 0.731405 -1.258583 0
M  V30 45 H -6.285240 0.250486 -2.638345 0
M  V30 46 H -6.904325 -2.252898 -2.872513 0
M  V30 47 H -0.838953 -1.393587 1.899099 0
M  V30 END ATOM
M  V30 BEGIN BOND
M  V30 1 2 1 2
M  V30 2 1 2 3
M  V30 3 1 3 4
M  V30 4 1 4 5
M  V30 5 1 5 6
M  V30 6 1 6 7
M  V30 7 1 7 8
M  V30 8 1 8 9
M  V30 9 1 9 10
M  V30 10 1 2 11
M  V30 11 2 11 12
M  V30 12 1 12 13
M  V30 13 2 13 14
M  V30 14 1 14 15
M  V30 15 1 15 16
M  V30 16 2 16 17
M  V30 17 1 17 18
M  V30 18 1 18 19
M  V30 19 1 18 20
M  V30 20 2 20 21
M  V30 21 1 21 22
M  V30 22 2 22 23
M  V30 23 1 23 24
M  V30 24 1 17 25
M  V30 25 1 25 26
M  V30 26 1 10 5
M  V30 27 1 26 11
M  V30 28 2 26 15
M  V30 29 1 24 20
M  V30 30 1 3 27
M  V30 31 1 4 28
M  V30 32 1 4 29
M  V30 33 1 5 30 CFG=1
M  V30 34 1 6 31
M  V30 35 1 6 32
M  V30 36 1 7 33
M  V30 37 1 7 34
M  V30 38 1 8 35
M  V30 39 1 8 36
M  V30 40 1 9 37
M  V30 41 1 10 38
M  V30 42 1 10 39
M  V30 43 1 12 40
M  V30 44 1 13 41
M  V30 45 1 18 42
M  V30 46 1 19 43
M  V30 47 1 21 44
M  V30 48 1 22 45
M  V30 49 1 23 46
M  V30 50 1 25 47
M  V30 END BOND
M  V30 END CTAB
M  END
>  <Dataset>  (485) 
ChEMBL_Kinases

>  <Ligand_Instance>  (485) 
nan

>  <PDB_ID>  (485) 
nan

>  <Standardized_SMILES>  (485) 
O=C(NC[C@H]1CCCNC1)c1ccnc2nc(C(O)c3cccs3)[nH]c12

>  <Name>  (485) 
nan

>  <Pocket>  (485) 
nan

>  <ATP_Site>  (485) 
nan

>  <Peripheral>  (485) 
nan

>  <Num_H_Atoms_ProtBoundConf>  (485) 
nan

>  <Num_Resolved_Atoms>  (485) 
nan

>  <Num_Not_Resolved_Atoms>  (485) 
nan

$$$$
CHEMBL3719311
     RDKit          3D

  0  0  0  0  0  0  0  0  0  0999 V3000
M  V30 BEGIN CTAB
M  V30 COUNTS 49 52 0 0 0
M  V30 BEGIN ATOM
M  V30 1 C -0.432245 2.782660 2.424413 0
M  V30 2 C -1.209839 1.526068 2.717028 0
M  V30 3 C -2.676216 1.846245 3.016897 0
M  V30 4 N -0.695139 0.848819 3.889214 0
M  V30 5 C 0.633577 0.355233 4.046912 0
M  V30 6 C 1.102439 -0.293263 5.168588 0
M  V30 7 C 2.390059 -0.760130 5.300209 0
M  V30 8 C 3.286026 -0.591277 4.283971 0
M  V30 9 F 4.536809 -1.065649 4.457688 0
M  V30 10 C 2.893850 0.048133 3.128266 0
M  V30 11 C 3.853845 0.227145 2.054924 0
M  V30 12 N 3.547103 0.872918 0.833423 0
M  V30 13 O 5.018612 -0.219297 2.230993 0
M  V30 14 C 1.587005 0.494674 3.055718 0
M  V30 15 C -1.136836 0.546437 1.572484 0
M  V30 16 O -0.743135 -0.671083 1.537022 0
M  V30 17 N -1.554078 0.956902 0.273883 0
M  V30 18 C -1.367039 -0.184989 -0.616586 0
M  V30 19 N -1.902129 -1.118117 -1.021692 0
M  V30 20 C -1.507414 -2.044941 -1.860661 0
M  V30 21 C -2.122934 -3.172660 -2.362758 0
M  V30 22 C -3.510267 -3.560900 -1.982550 0
M  V30 23 F -3.895876 -4.720633 -2.607192 0
M  V30 24 F -3.564378 -3.696278 -0.620335 0
M  V30 25 F -4.431733 -2.576121 -2.325826 0
M  V30 26 C -1.461188 -3.985453 -3.246179 0
M  V30 27 C -0.181162 -3.799208 -3.719077 0
M  V30 28 N 0.716705 -4.365154 -4.542327 0
M  V30 29 N 1.844052 -3.666884 -4.583711 0
M  V30 30 C 1.760557 -2.573330 -3.774325 0
M  V30 31 C 0.494313 -2.695041 -3.261556 0
M  V30 32 C -0.176716 -1.880848 -2.372662 0
M  V30 33 S 0.325569 -0.290428 -1.488806 0
M  V30 34 H 0.012862 2.809956 1.406626 0
M  V30 35 H 0.360226 2.880060 3.187553 0
M  V30 36 H -1.154035 3.645479 2.499611 0
M  V30 37 H -3.040949 1.262497 3.888041 0
M  V30 38 H -3.267897 1.496577 2.142939 0
M  V30 39 H -2.758488 2.930054 3.122717 0
M  V30 40 H -1.296932 0.668450 4.742636 0
M  V30 41 H 0.412051 -0.443620 5.998077 0
M  V30 42 H 2.656228 -1.256971 6.224554 0
M  V30 43 H 3.508423 1.901775 0.622324 0
M  V30 44 H 3.296852 0.479135 -0.106459 0
M  V30 45 H 1.361725 0.982365 2.119809 0
M  V30 46 H -1.912418 1.891998 0.051665 0
M  V30 47 H -1.967142 -4.883728 -3.639115 0
M  V30 48 H 0.493697 -5.258768 -5.067109 0
M  V30 49 H 2.466501 -1.786258 -3.553661 0
M  V30 END ATOM
M  V30 BEGIN BOND
M  V30 1 1 1 2
M  V30 2 1 2 3
M  V30 3 1 2 4
M  V30 4 1 4 5
M  V30 5 2 5 6
M  V30 6 1 6 7
M  V30 7 2 7 8
M  V30 8 1 8 9
M  V30 9 1 8 10
M  V30 10 1 10 11
M  V30 11 1 11 12
M  V30 12 2 11 13
M  V30 13 2 10 14
M  V30 14 1 2 15
M  V30 15 2 15 16
M  V30 16 1 15 17
M  V30 17 1 17 18
M  V30 18 2 18 19
M  V30 19 1 19 20
M  V30 20 2 20 21
M  V30 21 1 21 22
M  V30 22 1 22 23
M  V30 23 1 22 24
M  V30 24 1 22 25
M  V30 25 1 21 26
M  V30 26 2 26 27
M  V30 27 1 27 28
M  V30 28 1 28 29
M  V30 29 2 29 30
M  V30 30 1 30 31
M  V30 31 2 31 32
M  V30 32 1 32 33
M  V30 33 1 14 5
M  V30 34 1 33 18
M  V30 35 1 32 20
M  V30 36 1 31 27
M  V30 37 1 1 34
M  V30 38 1 1 35
M  V30 39 1 1 36
M  V30 40 1 3 37
M  V30 41 1 3 38
M  V30 42 1 3 39
M  V30 43 1 4 40
M  V30 44 1 6 41
M  V30 45 1 7 42
M  V30 46 1 12 43
M  V30 47 1 12 44
M  V30 48 1 14 45
M  V30 49 1 17 46
M  V30 50 1 26 47
M  V30 51 1 28 48
M  V30 52 1 30 49
M  V30 END BOND
M  V30 END CTAB
M  END
>  <Dataset>  (486) 
ChEMBL_Kinases

>  <Ligand_Instance>  (486) 
nan

>  <PDB_ID>  (486) 
nan

>  <Standardized_SMILES>  (486) 
CC(C)(Nc1ccc(F)c(C(N)=O)c1)C(=O)Nc1nc2c(C(F)(F)F)cc3[nH]ncc3c2s1

>  <Name>  (486) 
nan

>  <Pocket>  (486) 
nan

>  <ATP_Site>  (486) 
nan

>  <Peripheral>  (486) 
nan

>  <Num_H_Atoms_ProtBoundConf>  (486) 
nan

>  <Num_Resolved_Atoms>  (486) 
nan

>  <Num_Not_Resolved_Atoms>  (486) 
nan

$$$$
CHEMBL566060
     RDKit          3D

  0  0  0  0  0  0  0  0  0  0999 V3000
M  V30 BEGIN CTAB
M  V30 COUNTS 48 51 0 0 0
M  V30 BEGIN ATOM
M  V30 1 C 0.934271 -3.436488 0.527626 0
M  V30 2 C -0.188155 -2.629020 -0.064215 0
M  V30 3 C 0.139114 -1.369785 -0.538560 0
M  V30 4 N 1.493830 -0.868309 -0.463639 0
M  V30 5 C 1.592767 0.437499 -1.007560 0
M  V30 6 C 1.765596 0.470001 -2.354341 0
M  V30 7 C 1.851579 -0.684639 -3.174471 0
M  V30 8 N 1.913915 -1.640092 -3.833134 0
M  V30 9 C 1.864608 1.685966 -2.971588 0
M  V30 10 N 1.784228 2.785555 -2.201595 0
M  V30 11 C 1.613403 2.727337 -0.871640 0
M  V30 12 C 1.506586 1.534664 -0.187513 0
M  V30 13 C 1.344029 1.571919 1.240860 0
M  V30 14 C 1.258574 0.677996 2.174428 0
M  V30 15 C 1.091215 0.878455 3.605461 0
M  V30 16 C 0.991483 2.084911 4.238068 0
M  V30 17 C 0.833143 2.259741 5.594719 0
M  V30 18 C 0.767340 1.153798 6.396619 0
M  V30 19 C 0.863212 -0.087508 5.804766 0
M  V30 20 C 1.020715 -0.212220 4.445572 0
M  V30 21 C -0.900159 -0.649823 -1.074170 0
M  V30 22 C -2.190620 -1.178665 -1.123550 0
M  V30 23 C -3.281177 -0.359473 -1.712799 0
M  V30 24 C -2.453702 -2.438389 -0.635156 0
M  V30 25 N -3.555196 -3.210062 -0.538768 0
M  V30 26 C -3.246726 -4.400883 0.043005 0
M  V30 27 C -1.905742 -4.384343 0.324987 0
M  V30 28 C -1.444483 -3.175201 -0.098745 0
M  V30 29 H 1.456954 -2.849744 1.302822 0
M  V30 30 H 0.562095 -4.362930 0.980048 0
M  V30 31 H 1.676589 -3.671734 -0.269151 0
M  V30 32 H 2.204006 -1.500721 -0.043217 0
M  V30 33 H 2.000589 1.845474 -4.014004 0
M  V30 34 H 1.563765 3.699137 -0.358571 0
M  V30 35 H 1.267918 2.553746 1.704902 0
M  V30 36 H 1.329739 -0.330050 1.810324 0
M  V30 37 H 1.036641 2.993269 3.657107 0
M  V30 38 H 0.760335 3.264154 6.031488 0
M  V30 39 H 0.643562 1.219038 7.472095 0
M  V30 40 H 0.815237 -0.985619 6.407936 0
M  V30 41 H 1.091764 -1.221938 4.024787 0
M  V30 42 H -0.729642 0.324695 -1.459148 0
M  V30 43 H -3.023146 0.701225 -1.486587 0
M  V30 44 H -4.251657 -0.548324 -1.197091 0
M  V30 45 H -3.378417 -0.516442 -2.793616 0
M  V30 46 H -4.506150 -2.911236 -0.873107 0
M  V30 47 H -3.906713 -5.226370 0.257868 0
M  V30 48 H -1.333089 -5.185782 0.795173 0
M  V30 END ATOM
M  V30 BEGIN BOND
M  V30 1 1 1 2
M  V30 2 2 2 3
M  V30 3 1 3 4
M  V30 4 1 4 5
M  V30 5 2 5 6
M  V30 6 1 6 7
M  V30 7 3 7 8
M  V30 8 1 6 9
M  V30 9 2 9 10
M  V30 10 1 10 11
M  V30 11 2 11 12
M  V30 12 1 12 13
M  V30 13 2 13 14
M  V30 14 1 14 15
M  V30 15 2 15 16
M  V30 16 1 16 17
M  V30 17 2 17 18
M  V30 18 1 18 19
M  V30 19 2 19 20
M  V30 20 1 3 21
M  V30 21 2 21 22
M  V30 22 1 22 23
M  V30 23 1 22 24
M  V30 24 1 24 25
M  V30 25 1 25 26
M  V30 26 2 26 27
M  V30 27 1 27 28
M  V30 28 1 28 2
M  V30 29 1 12 5
M  V30 30 1 20 15
M  V30 31 2 28 24
M  V30 32 1 1 29
M  V30 33 1 1 30
M  V30 34 1 1 31
M  V30 35 1 4 32
M  V30 36 1 9 33
M  V30 37 1 11 34
M  V30 38 1 13 35
M  V30 39 1 14 36
M  V30 40 1 16 37
M  V30 41 1 17 38
M  V30 42 1 18 39
M  V30 43 1 19 40
M  V30 44 1 20 41
M  V30 45 1 21 42
M  V30 46 1 23 43
M  V30 47 1 23 44
M  V30 48 1 23 45
M  V30 49 1 25 46
M  V30 50 1 26 47
M  V30 51 1 27 48
M  V30 END BOND
M  V30 END CTAB
M  END
>  <Dataset>  (487) 
ChEMBL_Kinases

>  <Ligand_Instance>  (487) 
nan

>  <PDB_ID>  (487) 
nan

>  <Standardized_SMILES>  (487) 
Cc1c(Nc2c(C#N)cncc2/C=C/c2ccccc2)cc(C)c2[nH]ccc12

>  <Name>  (487) 
nan

>  <Pocket>  (487) 
nan

>  <ATP_Site>  (487) 
nan

>  <Peripheral>  (487) 
nan

>  <Num_H_Atoms_ProtBoundConf>  (487) 
nan

>  <Num_Resolved_Atoms>  (487) 
nan

>  <Num_Not_Resolved_Atoms>  (487) 
nan

$$$$
CHEMBL3714861
     RDKit          3D

  0  0  0  0  0  0  0  0  0  0999 V3000
M  V30 BEGIN CTAB
M  V30 COUNTS 50 53 0 0 0
M  V30 BEGIN ATOM
M  V30 1 O -1.107673 -3.484413 0.056520 0
M  V30 2 C -1.190316 -4.289927 1.044081 0
M  V30 3 C -0.188599 -4.560683 2.135288 0
M  V30 4 O 0.924501 -3.754339 1.910935 0
M  V30 5 C 0.948942 -2.393591 1.879672 0
M  V30 6 C 2.240970 -1.922073 1.620405 0
M  V30 7 C 2.523061 -0.557665 1.539790 0
M  V30 8 C 1.495714 0.342447 1.721770 0
M  V30 9 C 1.782576 1.784388 1.639366 0
M  V30 10 N 3.030920 2.263395 1.388537 0
M  V30 11 C 3.239469 3.611518 1.323294 0
M  V30 12 C 2.191207 4.488946 1.510419 0
M  V30 13 C 2.496192 5.912916 1.424212 0
M  V30 14 C 1.575833 6.927211 1.583401 0
M  V30 15 C 1.966600 8.262866 1.481658 0
M  V30 16 C 3.276213 8.621529 1.220295 0
M  V30 17 C 4.163348 7.574796 1.068271 0
M  V30 18 N 3.764001 6.281738 1.170910 0
M  V30 19 C 0.925205 4.003040 1.764853 0
M  V30 20 N 0.773637 2.660073 1.818925 0
M  V30 21 C 0.210732 -0.098260 1.979212 0
M  V30 22 C -0.037191 -1.452949 2.053021 0
M  V30 23 N -2.415536 -5.006033 1.073257 0
M  V30 24 C -3.539992 -4.947666 0.167283 0
M  V30 25 C -3.281769 -5.674692 -1.098748 0
M  V30 26 C -3.587357 -7.025456 -1.193059 0
M  V30 27 C -3.363567 -7.737238 -2.362021 0
M  V30 28 C -2.828595 -7.137505 -3.481783 0
M  V30 29 Cl -2.524355 -7.977139 -4.978666 0
M  V30 30 C -2.512796 -5.789582 -3.419231 0
M  V30 31 Cl -1.830689 -4.965331 -4.803363 0
M  V30 32 C -2.750830 -5.122110 -2.241076 0
M  V30 33 H -0.670309 -4.356346 3.122402 0
M  V30 34 H 0.036006 -5.634293 2.098453 0
M  V30 35 H 3.138842 -2.539180 1.458234 0
M  V30 36 H 3.512124 -0.170522 1.341143 0
M  V30 37 H 4.274064 3.896509 1.117361 0
M  V30 38 H 0.548507 6.662703 1.787696 0
M  V30 39 H 1.203425 9.040118 1.614746 0
M  V30 40 H 3.581229 9.658910 1.140812 0
M  V30 41 H 5.210500 7.768274 0.861158 0
M  V30 42 H 0.100063 4.685526 1.912165 0
M  V30 43 H -0.616460 0.580784 2.126110 0
M  V30 44 H -1.002833 -1.884026 2.253444 0
M  V30 45 H -2.561758 -5.694819 1.861768 0
M  V30 46 H -4.492102 -5.187744 0.649548 0
M  V30 47 H -3.629145 -3.855988 -0.122675 0
M  V30 48 H -4.011855 -7.591895 -0.370491 0
M  V30 49 H -3.594081 -8.781767 -2.450441 0
M  V30 50 H -2.494548 -4.075892 -2.229596 0
M  V30 END ATOM
M  V30 BEGIN BOND
M  V30 1 2 1 2
M  V30 2 1 2 3
M  V30 3 1 3 4
M  V30 4 1 4 5
M  V30 5 2 5 6
M  V30 6 1 6 7
M  V30 7 2 7 8
M  V30 8 1 8 9
M  V30 9 2 9 10
M  V30 10 1 10 11
M  V30 11 2 11 12
M  V30 12 1 12 13
M  V30 13 2 13 14
M  V30 14 1 14 15
M  V30 15 2 15 16
M  V30 16 1 16 17
M  V30 17 2 17 18
M  V30 18 1 12 19
M  V30 19 2 19 20
M  V30 20 1 8 21
M  V30 21 2 21 22
M  V30 22 1 2 23
M  V30 23 1 23 24
M  V30 24 1 24 25
M  V30 25 2 25 26
M  V30 26 1 26 27
M  V30 27 2 27 28
M  V30 28 1 28 29
M  V30 29 1 28 30
M  V30 30 1 30 31
M  V30 31 2 30 32
M  V30 32 1 22 5
M  V30 33 1 32 25
M  V30 34 1 20 9
M  V30 35 1 18 13
M  V30 36 1 3 33
M  V30 37 1 3 34
M  V30 38 1 6 35
M  V30 39 1 7 36
M  V30 40 1 11 37
M  V30 41 1 14 38
M  V30 42 1 15 39
M  V30 43 1 16 40
M  V30 44 1 17 41
M  V30 45 1 19 42
M  V30 46 1 21 43
M  V30 47 1 22 44
M  V30 48 1 23 45
M  V30 49 1 24 46
M  V30 50 1 24 47
M  V30 51 1 26 48
M  V30 52 1 27 49
M  V30 53 1 32 50
M  V30 END BOND
M  V30 END CTAB
M  END
>  <Dataset>  (488) 
ChEMBL_Kinases

>  <Ligand_Instance>  (488) 
nan

>  <PDB_ID>  (488) 
nan

>  <Standardized_SMILES>  (488) 
O=C(COc1ccc(-c2ncc(-c3ccccn3)cn2)cc1)NCc1ccc(Cl)c(Cl)c1

>  <Name>  (488) 
nan

>  <Pocket>  (488) 
nan

>  <ATP_Site>  (488) 
nan

>  <Peripheral>  (488) 
nan

>  <Num_H_Atoms_ProtBoundConf>  (488) 
nan

>  <Num_Resolved_Atoms>  (488) 
nan

>  <Num_Not_Resolved_Atoms>  (488) 
nan

$$$$
CHEMBL3714864
     RDKit          3D

  0  0  0  0  0  0  0  0  0  0999 V3000
M  V30 BEGIN CTAB
M  V30 COUNTS 30 31 0 0 0
M  V30 BEGIN ATOM
M  V30 1 C -3.862904 -3.870070 2.450482 0
M  V30 2 O -2.518806 -4.249427 2.199760 0
M  V30 3 C -1.562156 -3.357149 1.702042 0
M  V30 4 C -0.317998 -3.979600 1.544608 0
M  V30 5 C 0.724576 -3.217955 1.060191 0
M  V30 6 C 0.615074 -1.883399 0.722282 0
M  V30 7 C 1.763150 -1.143386 0.215384 0
M  V30 8 N 2.989802 -1.671515 0.036102 0
M  V30 9 N 3.822193 -0.757117 -0.434930 0
M  V30 10 C 3.158556 0.403985 -0.578385 0
M  V30 11 S 3.841319 1.942308 -1.181021 0
M  V30 12 C 2.548518 3.216464 -1.182351 0
M  V30 13 C 2.090587 3.578854 0.174282 0
M  V30 14 O 1.200757 4.464673 0.076381 0
M  V30 15 O 1.711641 3.867131 1.471202 0
M  V30 16 N 1.908190 0.133667 -0.173700 0
M  V30 17 C -0.629852 -1.320144 0.896110 0
M  V30 18 O -0.852117 0.012074 0.588576 0
M  V30 19 C -1.709497 -2.029406 1.376146 0
M  V30 20 H -3.990195 -3.544175 3.510122 0
M  V30 21 H -4.556906 -4.713227 2.300258 0
M  V30 22 H -4.180530 -3.045375 1.756119 0
M  V30 23 H -0.096267 -5.020453 1.772102 0
M  V30 24 H 1.715204 -3.673450 0.923718 0
M  V30 25 H 2.853608 4.105148 -1.773388 0
M  V30 26 H 1.658984 2.766723 -1.704236 0
M  V30 27 H 1.467433 3.109962 2.127185 0
M  V30 28 H 1.159536 0.844570 -0.170993 0
M  V30 29 H -1.062729 0.663411 1.348284 0
M  V30 30 H -2.686296 -1.650264 1.530572 0
M  V30 END ATOM
M  V30 BEGIN BOND
M  V30 1 1 1 2
M  V30 2 1 2 3
M  V30 3 2 3 4
M  V30 4 1 4 5
M  V30 5 2 5 6
M  V30 6 1 6 7
M  V30 7 2 7 8
M  V30 8 1 8 9
M  V30 9 2 9 10
M  V30 10 1 10 11
M  V30 11 1 11 12
M  V30 12 1 12 13
M  V30 13 2 13 14
M  V30 14 1 13 15
M  V30 15 1 10 16
M  V30 16 1 6 17
M  V30 17 1 17 18
M  V30 18 2 17 19
M  V30 19 1 19 3
M  V30 20 1 16 7
M  V30 21 1 1 20
M  V30 22 1 1 21
M  V30 23 1 1 22
M  V30 24 1 4 23
M  V30 25 1 5 24
M  V30 26 1 12 25
M  V30 27 1 12 26
M  V30 28 1 15 27
M  V30 29 1 16 28
M  V30 30 1 18 29
M  V30 31 1 19 30
M  V30 END BOND
M  V30 END CTAB
M  END
>  <Dataset>  (489) 
ChEMBL_Kinases

>  <Ligand_Instance>  (489) 
nan

>  <PDB_ID>  (489) 
nan

>  <Standardized_SMILES>  (489) 
COc1ccc(-c2nnc(SCC(=O)O)[nH]2)c(O)c1

>  <Name>  (489) 
nan

>  <Pocket>  (489) 
nan

>  <ATP_Site>  (489) 
nan

>  <Peripheral>  (489) 
nan

>  <Num_H_Atoms_ProtBoundConf>  (489) 
nan

>  <Num_Resolved_Atoms>  (489) 
nan

>  <Num_Not_Resolved_Atoms>  (489) 
nan

$$$$
CHEMBL3714866
     RDKit          3D

  0  0  0  0  0  0  0  0  0  0999 V3000
M  V30 BEGIN CTAB
M  V30 COUNTS 51 54 0 0 0
M  V30 BEGIN ATOM
M  V30 1 O 0.186490 -2.229866 3.854668 0
M  V30 2 C 0.320432 -1.155878 3.179386 0
M  V30 3 N 1.361210 -1.111220 2.187933 0
M  V30 4 C 2.249914 -2.215198 1.925761 0
M  V30 5 C 3.263626 -1.910734 0.836074 0
M  V30 6 C 2.625782 -1.576524 -0.484091 0
M  V30 7 C 3.772745 -1.116242 -1.391713 0
M  V30 8 C 4.643358 -2.309120 -1.647634 0
M  V30 9 C 4.371882 -3.420107 -0.662465 0
M  V30 10 N 4.279245 -2.922013 0.699213 0
M  V30 11 C -0.413838 0.098135 3.221809 0
M  V30 12 C -0.383243 1.007666 4.289837 0
M  V30 13 C -1.032577 2.207564 4.402118 0
M  V30 14 C -1.816780 2.566099 3.328232 0
M  V30 15 O -2.500645 3.769796 3.377105 0
M  V30 16 C -1.932584 1.760857 2.218684 0
M  V30 17 N -2.608098 1.865416 1.060800 0
M  V30 18 C -2.346925 0.767682 0.334435 0
M  V30 19 C -2.873409 0.495908 -1.020666 0
M  V30 20 C -4.365471 0.153041 -0.793993 0
M  V30 21 C -4.233999 -1.168565 -0.069992 0
M  V30 22 C -3.199984 -1.884432 -0.916877 0
M  V30 23 C -2.358051 -0.794632 -1.574960 0
M  V30 24 N -1.498417 -0.049001 1.025496 0
M  V30 25 C -1.243448 0.570662 2.191900 0
M  V30 26 H 1.550483 -0.264021 1.580225 0
M  V30 27 H 1.635421 -3.062225 1.533098 0
M  V30 28 H 2.777752 -2.546491 2.837403 0
M  V30 29 H 3.786829 -0.977903 1.166118 0
M  V30 30 H 2.002185 -0.660682 -0.356870 0
M  V30 31 H 2.059480 -2.414753 -0.920917 0
M  V30 32 H 4.281463 -0.306975 -0.827391 0
M  V30 33 H 3.292188 -0.707121 -2.304398 0
M  V30 34 H 4.436417 -2.644284 -2.684608 0
M  V30 35 H 5.711626 -1.986526 -1.616228 0
M  V30 36 H 5.244566 -4.101187 -0.697694 0
M  V30 37 H 3.503749 -3.999284 -0.995067 0
M  V30 38 H 5.232755 -2.574125 0.952902 0
M  V30 39 H 0.236946 0.728728 5.148470 0
M  V30 40 H -0.927007 2.816991 5.275339 0
M  V30 41 H -2.061547 4.601418 2.962369 0
M  V30 42 H -3.214570 2.694329 0.839998 0
M  V30 43 H -2.812642 1.371491 -1.702869 0
M  V30 44 H -4.863333 0.941931 -0.195667 0
M  V30 45 H -4.821261 0.003704 -1.778728 0
M  V30 46 H -3.783055 -0.952248 0.937389 0
M  V30 47 H -5.194657 -1.720643 0.008156 0
M  V30 48 H -3.730553 -2.513465 -1.659236 0
M  V30 49 H -2.509039 -2.478478 -0.283534 0
M  V30 50 H -2.581591 -0.817668 -2.678235 0
M  V30 51 H -1.272121 -0.956515 -1.386427 0
M  V30 END ATOM
M  V30 BEGIN BOND
M  V30 1 2 1 2
M  V30 2 1 2 3
M  V30 3 1 3 4
M  V30 4 1 4 5
M  V30 5 1 5 6
M  V30 6 1 6 7
M  V30 7 1 7 8
M  V30 8 1 8 9
M  V30 9 1 9 10
M  V30 10 1 2 11
M  V30 11 2 11 12
M  V30 12 1 12 13
M  V30 13 2 13 14
M  V30 14 1 14 15
M  V30 15 1 14 16
M  V30 16 1 16 17
M  V30 17 1 17 18
M  V30 18 1 18 19
M  V30 19 1 19 20
M  V30 20 1 20 21
M  V30 21 1 21 22
M  V30 22 1 22 23
M  V30 23 2 18 24
M  V30 24 1 24 25
M  V30 25 1 10 5
M  V30 26 1 25 11
M  V30 27 2 25 16
M  V30 28 1 23 19
M  V30 29 1 3 26
M  V30 30 1 4 27
M  V30 31 1 4 28
M  V30 32 1 5 29
M  V30 33 1 6 30
M  V30 34 1 6 31
M  V30 35 1 7 32
M  V30 36 1 7 33
M  V30 37 1 8 34
M  V30 38 1 8 35
M  V30 39 1 9 36
M  V30 40 1 9 37
M  V30 41 1 10 38
M  V30 42 1 12 39
M  V30 43 1 13 40
M  V30 44 1 15 41
M  V30 45 1 17 42
M  V30 46 1 19 43
M  V30 47 1 20 44
M  V30 48 1 20 45
M  V30 49 1 21 46
M  V30 50 1 21 47
M  V30 51 1 22 48
M  V30 52 1 22 49
M  V30 53 1 23 50
M  V30 54 1 23 51
M  V30 END BOND
M  V30 END CTAB
M  END
>  <Dataset>  (490) 
ChEMBL_Kinases

>  <Ligand_Instance>  (490) 
nan

>  <PDB_ID>  (490) 
nan

>  <Standardized_SMILES>  (490) 
O=C(NCC1CCCCN1)c1ccc(O)c2[nH]c(C3CCCC3)nc12

>  <Name>  (490) 
nan

>  <Pocket>  (490) 
nan

>  <ATP_Site>  (490) 
nan

>  <Peripheral>  (490) 
nan

>  <Num_H_Atoms_ProtBoundConf>  (490) 
nan

>  <Num_Resolved_Atoms>  (490) 
nan

>  <Num_Not_Resolved_Atoms>  (490) 
nan

$$$$
CHEMBL3714883
     RDKit          3D

  0  0  0  0  0  0  0  0  0  0999 V3000
M  V30 BEGIN CTAB
M  V30 COUNTS 42 45 0 0 0
M  V30 BEGIN ATOM
M  V30 1 O -0.062781 -0.199382 -0.173664 0
M  V30 2 C -0.708227 0.103926 0.891729 0
M  V30 3 N -1.830176 -0.686637 1.285144 0
M  V30 4 C -2.079993 -1.772465 0.395895 0
M  V30 5 C -2.265265 -3.070370 1.139894 0
M  V30 6 C -1.878217 -4.160443 0.127084 0
M  V30 7 C -2.202753 -3.643348 -1.237075 0
M  V30 8 N -3.332130 -2.775473 -1.330621 0
M  V30 9 C -3.315691 -1.625355 -0.471495 0
M  V30 10 C -0.011228 1.299371 1.429592 0
M  V30 11 C -0.533948 2.524022 1.800783 0
M  V30 12 C 0.341831 3.482801 2.263668 0
M  V30 13 C 1.685195 3.271024 2.368587 0
M  V30 14 O 2.568113 4.230861 2.833835 0
M  V30 15 C 2.267039 2.092073 2.021291 0
M  V30 16 N 3.489024 1.547935 1.985007 0
M  V30 17 C 3.444586 0.297100 1.525648 0
M  V30 18 C 4.299139 -0.866598 1.180707 0
M  V30 19 C 4.377837 -1.098641 -0.317684 0
M  V30 20 C 5.569099 -0.784217 0.470934 0
M  V30 21 N 2.152593 0.041672 1.263060 0
M  V30 22 C 1.380102 1.120932 1.552117 0
M  V30 23 H -2.191756 -0.255436 2.151910 0
M  V30 24 H -1.249059 -1.914094 -0.353837 0
M  V30 25 H -3.364416 -3.272509 1.316982 0
M  V30 26 H -1.658290 -3.186333 2.036649 0
M  V30 27 H -2.308737 -5.134781 0.371117 0
M  V30 28 H -0.749059 -4.187154 0.195760 0
M  V30 29 H -2.490872 -4.566482 -1.838910 0
M  V30 30 H -1.301013 -3.272854 -1.806974 0
M  V30 31 H -3.408066 -2.491079 -2.335376 0
M  V30 32 H -4.222256 -1.655024 0.167348 0
M  V30 33 H -3.349372 -0.669656 -1.027514 0
M  V30 34 H -1.587540 2.570898 1.678931 0
M  V30 35 H -0.101255 4.412224 2.540722 0
M  V30 36 H 3.532254 4.298345 2.603424 0
M  V30 37 H 4.390403 1.954517 2.251635 0
M  V30 38 H 4.018325 -1.830914 1.722228 0
M  V30 39 H 4.238192 -2.127112 -0.698519 0
M  V30 40 H 3.940598 -0.335079 -0.990768 0
M  V30 41 H 6.082659 0.173535 0.386113 0
M  V30 42 H 6.290003 -1.632343 0.656355 0
M  V30 END ATOM
M  V30 BEGIN BOND
M  V30 1 2 1 2
M  V30 2 1 2 3
M  V30 3 1 3 4
M  V30 4 1 4 5
M  V30 5 1 5 6
M  V30 6 1 6 7
M  V30 7 1 7 8
M  V30 8 1 8 9
M  V30 9 1 2 10
M  V30 10 2 10 11
M  V30 11 1 11 12
M  V30 12 2 12 13
M  V30 13 1 13 14
M  V30 14 1 13 15
M  V30 15 1 15 16
M  V30 16 1 16 17
M  V30 17 1 17 18
M  V30 18 1 18 19
M  V30 19 1 19 20
M  V30 20 2 17 21
M  V30 21 1 21 22
M  V30 22 1 9 4
M  V30 23 1 22 10
M  V30 24 2 22 15
M  V30 25 1 20 18
M  V30 26 1 3 23
M  V30 27 1 4 24
M  V30 28 1 5 25
M  V30 29 1 5 26
M  V30 30 1 6 27
M  V30 31 1 6 28
M  V30 32 1 7 29
M  V30 33 1 7 30
M  V30 34 1 8 31
M  V30 35 1 9 32
M  V30 36 1 9 33
M  V30 37 1 11 34
M  V30 38 1 12 35
M  V30 39 1 14 36
M  V30 40 1 16 37
M  V30 41 1 18 38
M  V30 42 1 19 39
M  V30 43 1 19 40
M  V30 44 1 20 41
M  V30 45 1 20 42
M  V30 END BOND
M  V30 END CTAB
M  END
>  <Dataset>  (491) 
ChEMBL_Kinases

>  <Ligand_Instance>  (491) 
nan

>  <PDB_ID>  (491) 
nan

>  <Standardized_SMILES>  (491) 
O=C(NC1CCCNC1)c1ccc(O)c2[nH]c(C3CC3)nc12

>  <Name>  (491) 
nan

>  <Pocket>  (491) 
nan

>  <ATP_Site>  (491) 
nan

>  <Peripheral>  (491) 
nan

>  <Num_H_Atoms_ProtBoundConf>  (491) 
nan

>  <Num_Resolved_Atoms>  (491) 
nan

>  <Num_Not_Resolved_Atoms>  (491) 
nan

$$$$
CHEMBL3718730
     RDKit          3D

  0  0  0  0  0  0  0  0  0  0999 V3000
M  V30 BEGIN CTAB
M  V30 COUNTS 46 49 0 0 0
M  V30 BEGIN ATOM
M  V30 1 N -0.642312 -1.262491 5.606403 0
M  V30 2 C -1.207466 -0.308214 4.739634 0
M  V30 3 C -0.377232 0.982503 4.606058 0 CFG=1
M  V30 4 C 0.982407 0.641393 4.119092 0
M  V30 5 C 1.445526 1.321780 2.843865 0
M  V30 6 C 0.257537 1.242040 1.907614 0 CFG=2
M  V30 7 N 0.540633 1.366544 0.528001 0
M  V30 8 C 1.050272 0.338587 -0.292621 0
M  V30 9 O 1.303765 -0.784115 0.295629 0
M  V30 10 C 1.337561 0.342026 -1.715810 0
M  V30 11 C 1.953502 1.196100 -2.640800 0
M  V30 12 C 1.998559 0.885031 -3.974319 0
M  V30 13 N 1.468376 -0.235889 -4.494598 0
M  V30 14 C 0.851880 -1.128180 -3.725236 0
M  V30 15 N 0.253291 -2.312802 -3.876163 0
M  V30 16 C -0.179703 -2.793023 -2.719064 0
M  V30 17 C -0.844624 -3.933838 -2.034917 0
M  V30 18 C 0.160162 -4.624413 -1.042391 0
M  V30 19 C -0.471251 -5.330215 -2.190268 0
M  V30 20 N 0.179795 -1.843650 -1.845841 0
M  V30 21 C 0.817267 -0.801722 -2.403950 0
M  V30 22 C -0.680817 2.274293 2.414142 0
M  V30 23 C -1.184905 1.896243 3.768806 0
M  V30 24 H 0.183378 -1.036304 6.150540 0
M  V30 25 H -1.224277 -2.056160 5.859981 0
M  V30 26 H -2.212843 -0.033060 5.191138 0
M  V30 27 H -1.463480 -0.709930 3.748291 0
M  V30 28 H -0.304999 1.389524 5.631222 0
M  V30 29 H 1.779131 0.796349 4.866081 0
M  V30 30 H 1.026451 -0.460491 3.908766 0
M  V30 31 H 2.317270 0.764986 2.458452 0
M  V30 32 H 1.663795 2.370953 3.058531 0
M  V30 33 H -0.079618 0.165964 2.041351 0
M  V30 34 H 0.374888 2.284361 0.001717 0
M  V30 35 H 2.330429 2.072463 -2.088070 0
M  V30 36 H 2.501745 1.634845 -4.553064 0
M  V30 37 H 0.093489 -2.861102 -4.722881 0
M  V30 38 H -1.813593 -3.652603 -1.549569 0
M  V30 39 H -0.191544 -4.694478 0.002662 0
M  V30 40 H 1.228360 -4.374241 -1.166717 0
M  V30 41 H -1.275541 -6.065593 -1.881169 0
M  V30 42 H 0.155020 -5.715404 -3.005945 0
M  V30 43 H -0.093544 3.238490 2.441767 0
M  V30 44 H -1.511649 2.374700 1.689997 0
M  V30 45 H -1.368830 2.870854 4.310002 0
M  V30 46 H -2.237963 1.521421 3.621552 0
M  V30 END ATOM
M  V30 BEGIN BOND
M  V30 1 1 1 2
M  V30 2 1 2 3
M  V30 3 1 3 4
M  V30 4 1 4 5
M  V30 5 1 5 6
M  V30 6 1 6 7
M  V30 7 1 7 8
M  V30 8 2 8 9
M  V30 9 1 8 10
M  V30 10 2 10 11
M  V30 11 1 11 12
M  V30 12 2 12 13
M  V30 13 1 13 14
M  V30 14 1 14 15
M  V30 15 1 15 16
M  V30 16 1 16 17
M  V30 17 1 17 18
M  V30 18 1 18 19
M  V30 19 2 16 20
M  V30 20 1 20 21
M  V30 21 1 6 22
M  V30 22 1 22 23
M  V30 23 1 23 3
M  V30 24 1 21 10
M  V30 25 2 21 14
M  V30 26 1 19 17
M  V30 27 1 1 24
M  V30 28 1 1 25
M  V30 29 1 2 26
M  V30 30 1 2 27
M  V30 31 1 3 28 CFG=1
M  V30 32 1 4 29
M  V30 33 1 4 30
M  V30 34 1 5 31
M  V30 35 1 5 32
M  V30 36 1 6 33 CFG=3
M  V30 37 1 7 34
M  V30 38 1 11 35
M  V30 39 1 12 36
M  V30 40 1 15 37
M  V30 41 1 17 38
M  V30 42 1 18 39
M  V30 43 1 18 40
M  V30 44 1 19 41
M  V30 45 1 19 42
M  V30 46 1 22 43
M  V30 47 1 22 44
M  V30 48 1 23 45
M  V30 49 1 23 46
M  V30 END BOND
M  V30 END CTAB
M  END
>  <Dataset>  (492) 
ChEMBL_Kinases

>  <Ligand_Instance>  (492) 
nan

>  <PDB_ID>  (492) 
nan

>  <Standardized_SMILES>  (492) 
NC[C@H]1CC[C@H](NC(=O)c2ccnc3[nH]c(C4CC4)nc23)CC1

>  <Name>  (492) 
nan

>  <Pocket>  (492) 
nan

>  <ATP_Site>  (492) 
nan

>  <Peripheral>  (492) 
nan

>  <Num_H_Atoms_ProtBoundConf>  (492) 
nan

>  <Num_Resolved_Atoms>  (492) 
nan

>  <Num_Not_Resolved_Atoms>  (492) 
nan

$$$$
CHEMBL3714893
     RDKit          3D

  0  0  0  0  0  0  0  0  0  0999 V3000
M  V30 BEGIN CTAB
M  V30 COUNTS 44 47 0 0 0
M  V30 BEGIN ATOM
M  V30 1 O 2.517285 -1.279970 3.294942 0
M  V30 2 C 2.291725 -0.526617 2.297580 0
M  V30 3 N 2.384797 -1.139544 1.018435 0
M  V30 4 C 2.707665 -2.528058 0.762802 0 CFG=1
M  V30 5 C 1.568335 -3.216911 0.061477 0
M  V30 6 C 1.421463 -2.872918 -1.373597 0
M  V30 7 C 2.580967 -2.271810 -2.065269 0
M  V30 8 N 3.629031 -1.746648 -1.232461 0
M  V30 9 C 3.915079 -2.685370 -0.135947 0
M  V30 10 C 1.960709 0.874127 2.516086 0
M  V30 11 C 2.662086 1.802303 3.255311 0
M  V30 12 C 2.211512 3.110416 3.380407 0
M  V30 13 N 1.074434 3.457161 2.765624 0
M  V30 14 C 0.346082 2.598316 2.030997 0
M  V30 15 N -0.803123 2.694502 1.327530 0
M  V30 16 C -1.129245 1.528487 0.750861 0
M  V30 17 C -2.280516 1.128645 -0.100558 0
M  V30 18 O -2.578874 2.138106 -1.011373 0
M  V30 19 C -3.514309 0.851006 0.689355 0
M  V30 20 C -4.008263 -0.346682 1.019415 0
M  V30 21 C -5.129704 -0.544707 1.730562 0
M  V30 22 C -5.751669 0.651432 2.105040 0
M  V30 23 S -4.625498 2.004084 1.373600 0
M  V30 24 N -0.128041 0.684874 1.123321 0
M  V30 25 C 0.784249 1.279230 1.894209 0
M  V30 26 H 2.200682 -0.528950 0.169481 0
M  V30 27 H 2.860065 -3.018913 1.756664 0
M  V30 28 H 0.647846 -2.980275 0.636963 0
M  V30 29 H 1.733057 -4.305997 0.207873 0
M  V30 30 H 0.552633 -2.191263 -1.489788 0
M  V30 31 H 1.131524 -3.813051 -1.910309 0
M  V30 32 H 3.080295 -3.016212 -2.755528 0
M  V30 33 H 2.272573 -1.440502 -2.733055 0
M  V30 34 H 4.526053 -1.702062 -1.778786 0
M  V30 35 H 3.891293 -3.694057 -0.576987 0
M  V30 36 H 4.845315 -2.453917 0.384010 0
M  V30 37 H 3.553265 1.365953 3.684764 0
M  V30 38 H 2.829360 3.763549 3.978905 0
M  V30 39 H -2.001697 0.194059 -0.640756 0
M  V30 40 H -2.802986 1.780782 -1.907518 0
M  V30 41 H -3.496347 -1.278163 0.710693 0
M  V30 42 H -5.640348 -1.431846 2.066413 0
M  V30 43 H -6.798569 0.746881 2.765843 0
M  V30 44 H -0.092303 -0.310288 0.830351 0
M  V30 END ATOM
M  V30 BEGIN BOND
M  V30 1 2 1 2
M  V30 2 1 2 3
M  V30 3 1 3 4
M  V30 4 1 4 5
M  V30 5 1 5 6
M  V30 6 1 6 7
M  V30 7 1 7 8
M  V30 8 1 8 9
M  V30 9 1 2 10
M  V30 10 2 10 11
M  V30 11 1 11 12
M  V30 12 2 12 13
M  V30 13 1 13 14
M  V30 14 1 14 15
M  V30 15 2 15 16
M  V30 16 1 16 17
M  V30 17 1 17 18
M  V30 18 1 17 19
M  V30 19 2 19 20
M  V30 20 1 20 21
M  V30 21 2 21 22
M  V30 22 1 22 23
M  V30 23 1 16 24
M  V30 24 1 24 25
M  V30 25 1 9 4
M  V30 26 1 25 10
M  V30 27 2 25 14
M  V30 28 1 23 19
M  V30 29 1 3 26
M  V30 30 1 4 27 CFG=1
M  V30 31 1 5 28
M  V30 32 1 5 29
M  V30 33 1 6 30
M  V30 34 1 6 31
M  V30 35 1 7 32
M  V30 36 1 7 33
M  V30 37 1 8 34
M  V30 38 1 9 35
M  V30 39 1 9 36
M  V30 40 1 11 37
M  V30 41 1 12 38
M  V30 42 1 17 39
M  V30 43 1 18 40
M  V30 44 1 20 41
M  V30 45 1 21 42
M  V30 46 1 22 43
M  V30 47 1 24 44
M  V30 END BOND
M  V30 END CTAB
M  END
>  <Dataset>  (493) 
ChEMBL_Kinases

>  <Ligand_Instance>  (493) 
nan

>  <PDB_ID>  (493) 
nan

>  <Standardized_SMILES>  (493) 
O=C(N[C@H]1CCCNC1)c1ccnc2nc(C(O)c3cccs3)[nH]c12

>  <Name>  (493) 
nan

>  <Pocket>  (493) 
nan

>  <ATP_Site>  (493) 
nan

>  <Peripheral>  (493) 
nan

>  <Num_H_Atoms_ProtBoundConf>  (493) 
nan

>  <Num_Resolved_Atoms>  (493) 
nan

>  <Num_Not_Resolved_Atoms>  (493) 
nan

$$$$
CHEMBL3718725
     RDKit          3D

  0  0  0  0  0  0  0  0  0  0999 V3000
M  V30 BEGIN CTAB
M  V30 COUNTS 48 51 0 0 0
M  V30 BEGIN ATOM
M  V30 1 C 1.232384 -4.048768 0.780731 0
M  V30 2 N -0.081471 -3.490615 0.892389 0
M  V30 3 C -0.285236 -2.200378 0.562281 0
M  V30 4 N 0.750116 -1.325187 0.100341 0
M  V30 5 C 1.088314 -1.317508 -1.310049 0
M  V30 6 C 2.606835 -1.205888 -1.292452 0
M  V30 7 C 2.931437 -0.664718 0.081674 0
M  V30 8 C 1.639477 -0.338422 0.736301 0
M  V30 9 C 1.070443 1.003457 0.422460 0
M  V30 10 C 1.828632 2.151772 0.972814 0
M  V30 11 C 2.827473 2.642771 0.119288 0
M  V30 12 C 3.648642 3.712683 0.444328 0
M  V30 13 C 3.500677 4.347409 1.659910 0
M  V30 14 C 2.517900 3.864532 2.499820 0
M  V30 15 C 1.701180 2.803655 2.182766 0
M  V30 16 N -1.496190 -1.638682 0.649708 0
M  V30 17 C -2.605559 -2.296320 1.067779 0
M  V30 18 C -3.916409 -1.664396 1.156805 0
M  V30 19 C -5.050272 -2.340915 1.598392 0
M  V30 20 C -6.269082 -1.657127 1.652909 0
M  V30 21 N -6.331524 -0.361638 1.280212 0
M  V30 22 C -5.222618 0.257911 0.860851 0
M  V30 23 C -3.991510 -0.333184 0.776189 0
M  V30 24 F -2.942332 0.400806 0.335797 0
M  V30 25 C -2.358696 -3.610157 1.395812 0
M  V30 26 C -1.131834 -4.220991 1.319206 0
M  V30 27 O -0.930941 -5.419112 1.622915 0
M  V30 28 H 1.475727 -4.192837 -0.303640 0
M  V30 29 H 1.979329 -3.389464 1.249383 0
M  V30 30 H 1.322987 -5.039321 1.256044 0
M  V30 31 H 0.760845 -2.226194 -1.854357 0
M  V30 32 H 0.665247 -0.467609 -1.868632 0
M  V30 33 H 2.978304 -2.240630 -1.461356 0
M  V30 34 H 2.985361 -0.577574 -2.107398 0
M  V30 35 H 3.705854 0.106579 0.101664 0
M  V30 36 H 3.369045 -1.532249 0.641597 0
M  V30 37 H 1.690225 -0.475144 1.820910 0
M  V30 38 H 0.935553 1.139513 -0.669711 0
M  V30 39 H 0.017007 0.984710 0.834888 0
M  V30 40 H 3.020907 2.206297 -0.865541 0
M  V30 41 H 4.407941 4.061851 -0.240540 0
M  V30 42 H 4.132221 5.174137 1.913904 0
M  V30 43 H 2.356658 4.324033 3.467857 0
M  V30 44 H 0.919792 2.386330 2.799664 0
M  V30 45 H -4.988396 -3.361629 1.889124 0
M  V30 46 H -7.157904 -2.172013 1.994807 0
M  V30 47 H -5.396387 1.308461 0.584089 0
M  V30 48 H -3.166127 -4.235451 1.742791 0
M  V30 END ATOM
M  V30 BEGIN BOND
M  V30 1 1 1 2
M  V30 2 1 2 3
M  V30 3 1 3 4
M  V30 4 1 4 5
M  V30 5 1 5 6
M  V30 6 1 6 7
M  V30 7 1 7 8
M  V30 8 1 8 9
M  V30 9 1 9 10
M  V30 10 2 10 11
M  V30 11 1 11 12
M  V30 12 2 12 13
M  V30 13 1 13 14
M  V30 14 2 14 15
M  V30 15 2 3 16
M  V30 16 1 16 17
M  V30 17 1 17 18
M  V30 18 2 18 19
M  V30 19 1 19 20
M  V30 20 2 20 21
M  V30 21 1 21 22
M  V30 22 2 22 23
M  V30 23 1 23 24
M  V30 24 2 17 25
M  V30 25 1 25 26
M  V30 26 2 26 27
M  V30 27 1 26 2
M  V30 28 1 8 4
M  V30 29 1 15 10
M  V30 30 1 23 18
M  V30 31 1 1 28
M  V30 32 1 1 29
M  V30 33 1 1 30
M  V30 34 1 5 31
M  V30 35 1 5 32
M  V30 36 1 6 33
M  V30 37 1 6 34
M  V30 38 1 7 35
M  V30 39 1 7 36
M  V30 40 1 8 37
M  V30 41 1 9 38
M  V30 42 1 9 39
M  V30 43 1 11 40
M  V30 44 1 12 41
M  V30 45 1 13 42
M  V30 46 1 14 43
M  V30 47 1 15 44
M  V30 48 1 19 45
M  V30 49 1 20 46
M  V30 50 1 22 47
M  V30 51 1 25 48
M  V30 END BOND
M  V30 END CTAB
M  END
>  <Dataset>  (494) 
ChEMBL_Kinases

>  <Ligand_Instance>  (494) 
nan

>  <PDB_ID>  (494) 
nan

>  <Standardized_SMILES>  (494) 
Cn1c(N2CCCC2Cc2ccccc2)nc(-c2ccncc2F)cc1=O

>  <Name>  (494) 
nan

>  <Pocket>  (494) 
nan

>  <ATP_Site>  (494) 
nan

>  <Peripheral>  (494) 
nan

>  <Num_H_Atoms_ProtBoundConf>  (494) 
nan

>  <Num_Resolved_Atoms>  (494) 
nan

>  <Num_Not_Resolved_Atoms>  (494) 
nan

$$$$
CHEMBL3718679
     RDKit          3D

  0  0  0  0  0  0  0  0  0  0999 V3000
M  V30 BEGIN CTAB
M  V30 COUNTS 54 57 0 0 0
M  V30 BEGIN ATOM
M  V30 1 C 6.761719 1.042117 3.577700 0
M  V30 2 C 6.099505 -0.188501 2.988277 0
M  V30 3 C 5.754881 -1.099360 4.159185 0
M  V30 4 O 4.877600 0.093926 2.346026 0
M  V30 5 C 4.618202 -0.250966 1.021164 0
M  V30 6 O 5.512602 -0.846059 0.348223 0
M  V30 7 C 3.350614 0.041913 0.359847 0
M  V30 8 C 2.339319 0.678795 1.047937 0
M  V30 9 C 1.119245 0.965395 0.437960 0
M  V30 10 N 0.043818 1.626603 1.109198 0
M  V30 11 C -1.222792 1.924194 0.506687 0
M  V30 12 C -2.069868 2.677107 1.532564 0
M  V30 13 C -1.141812 2.788418 -0.724693 0
M  V30 14 C -2.034847 0.735698 0.142415 0
M  V30 15 O -3.123831 1.060826 -0.416704 0
M  V30 16 N -1.760217 -0.646029 0.331825 0
M  V30 17 C -2.691579 -1.628882 -0.102801 0
M  V30 18 N -2.840811 -2.222531 -1.119729 0
M  V30 19 C -3.758815 -3.122126 -1.396725 0
M  V30 20 C -3.957768 -3.827782 -2.564554 0
M  V30 21 C -4.988016 -4.735891 -2.654565 0
M  V30 22 C -5.888056 -5.031448 -1.653223 0
M  V30 23 N -6.951191 -5.815445 -1.412926 0
M  V30 24 N -7.411850 -5.631543 -0.172485 0
M  V30 25 C -6.655678 -4.698753 0.470899 0
M  V30 26 C -5.718769 -4.344701 -0.472302 0
M  V30 27 C -4.696128 -3.435018 -0.364622 0
M  V30 28 S -4.115839 -2.324356 0.987854 0
M  V30 29 C 1.024585 0.562937 -0.878756 0
M  V30 30 C 2.014269 -0.075230 -1.596298 0
M  V30 31 C 3.207547 -0.341135 -0.956429 0
M  V30 32 Cl 4.492860 -1.149415 -1.825361 0
M  V30 33 H 6.217467 1.448855 4.432376 0
M  V30 34 H 7.743930 0.683180 3.985655 0
M  V30 35 H 7.009827 1.814285 2.830682 0
M  V30 36 H 6.784470 -0.701584 2.303833 0
M  V30 37 H 5.581908 -2.128779 3.786941 0
M  V30 38 H 4.757469 -0.795763 4.589142 0
M  V30 39 H 6.506049 -1.049453 4.974857 0
M  V30 40 H 2.463867 0.974196 2.080489 0
M  V30 41 H 0.254447 1.891449 2.119758 0
M  V30 42 H -1.969598 2.261016 2.546667 0
M  V30 43 H -3.146852 2.669206 1.264987 0
M  V30 44 H -1.652189 3.724333 1.557334 0
M  V30 45 H -1.680665 3.740669 -0.554098 0
M  V30 46 H -0.100148 3.076998 -0.972377 0
M  V30 47 H -1.663248 2.333658 -1.606006 0
M  V30 48 H -0.859116 -0.825848 0.797098 0
M  V30 49 H -3.347739 -3.721151 -3.444428 0
M  V30 50 H -5.148654 -5.299772 -3.586189 0
M  V30 51 H -7.323548 -6.468658 -2.149772 0
M  V30 52 H -6.729603 -4.300339 1.471175 0
M  V30 53 H 0.117944 0.736909 -1.445207 0
M  V30 54 H 1.886042 -0.369619 -2.629807 0
M  V30 END ATOM
M  V30 BEGIN BOND
M  V30 1 1 1 2
M  V30 2 1 2 3
M  V30 3 1 2 4
M  V30 4 1 4 5
M  V30 5 2 5 6
M  V30 6 1 5 7
M  V30 7 2 7 8
M  V30 8 1 8 9
M  V30 9 1 9 10
M  V30 10 1 10 11
M  V30 11 1 11 12
M  V30 12 1 11 13
M  V30 13 1 11 14
M  V30 14 2 14 15
M  V30 15 1 14 16
M  V30 16 1 16 17
M  V30 17 2 17 18
M  V30 18 1 18 19
M  V30 19 2 19 20
M  V30 20 1 20 21
M  V30 21 2 21 22
M  V30 22 1 22 23
M  V30 23 1 23 24
M  V30 24 2 24 25
M  V30 25 1 25 26
M  V30 26 2 26 27
M  V30 27 1 27 28
M  V30 28 2 9 29
M  V30 29 1 29 30
M  V30 30 2 30 31
M  V30 31 1 31 32
M  V30 32 1 31 7
M  V30 33 1 28 17
M  V30 34 1 27 19
M  V30 35 1 26 22
M  V30 36 1 1 33
M  V30 37 1 1 34
M  V30 38 1 1 35
M  V30 39 1 2 36
M  V30 40 1 3 37
M  V30 41 1 3 38
M  V30 42 1 3 39
M  V30 43 1 8 40
M  V30 44 1 10 41
M  V30 45 1 12 42
M  V30 46 1 12 43
M  V30 47 1 12 44
M  V30 48 1 13 45
M  V30 49 1 13 46
M  V30 50 1 13 47
M  V30 51 1 16 48
M  V30 52 1 20 49
M  V30 53 1 21 50
M  V30 54 1 23 51
M  V30 55 1 25 52
M  V30 56 1 29 53
M  V30 57 1 30 54
M  V30 END BOND
M  V30 END CTAB
M  END
>  <Dataset>  (495) 
ChEMBL_Kinases

>  <Ligand_Instance>  (495) 
nan

>  <PDB_ID>  (495) 
nan

>  <Standardized_SMILES>  (495) 
CC(C)OC(=O)c1cc(NC(C)(C)C(=O)Nc2nc3ccc4[nH]ncc4c3s2)ccc1Cl

>  <Name>  (495) 
nan

>  <Pocket>  (495) 
nan

>  <ATP_Site>  (495) 
nan

>  <Peripheral>  (495) 
nan

>  <Num_H_Atoms_ProtBoundConf>  (495) 
nan

>  <Num_Resolved_Atoms>  (495) 
nan

>  <Num_Not_Resolved_Atoms>  (495) 
nan

$$$$
CHEMBL3718662
     RDKit          3D

  0  0  0  0  0  0  0  0  0  0999 V3000
M  V30 BEGIN CTAB
M  V30 COUNTS 42 45 0 0 0
M  V30 BEGIN ATOM
M  V30 1 O 4.123104 -1.343229 0.232679 0
M  V30 2 C 2.992809 -0.825578 0.423717 0
M  V30 3 N 1.917719 -1.142062 -0.450388 0
M  V30 4 C 1.857709 -2.001932 -1.598751 0
M  V30 5 C 0.883495 -3.123848 -1.288950 0
M  V30 6 C -0.540225 -2.654951 -1.267546 0
M  V30 7 C -0.834489 -2.030010 -2.632462 0
M  V30 8 N 0.010601 -0.849821 -2.728857 0
M  V30 9 C 1.415609 -1.200559 -2.800042 0
M  V30 10 C 2.805758 0.091263 1.540331 0
M  V30 11 C 3.880288 0.805826 2.045974 0
M  V30 12 C 3.797509 1.690946 3.093631 0
M  V30 13 C 2.561671 1.879401 3.679375 0
M  V30 14 O 2.348150 2.758569 4.759223 0
M  V30 15 C 1.459931 1.192432 3.213396 0
M  V30 16 N 0.165472 1.178856 3.583183 0
M  V30 17 C -0.497580 0.321644 2.789860 0
M  V30 18 C -1.929159 0.000598 2.842728 0
M  V30 19 C -2.658076 -0.833187 2.103967 0
M  V30 20 C -3.997425 -0.945856 2.363739 0
M  V30 21 C -4.509356 -0.160022 3.408164 0
M  V30 22 S -3.020480 0.736501 3.998303 0
M  V30 23 N 0.374627 -0.210486 1.915369 0
M  V30 24 C 1.599189 0.316346 2.159679 0
M  V30 25 H 0.964864 -0.734172 -0.328657 0
M  V30 26 H 2.842273 -2.454263 -1.788056 0
M  V30 27 H 0.957760 -3.938428 -2.037428 0
M  V30 28 H 1.144929 -3.505086 -0.274879 0
M  V30 29 H -0.725579 -1.847341 -0.536834 0
M  V30 30 H -1.182561 -3.528877 -1.054643 0
M  V30 31 H -1.879139 -1.659150 -2.658190 0
M  V30 32 H -0.698224 -2.748840 -3.436881 0
M  V30 33 H -0.223366 -0.312405 -3.581058 0
M  V30 34 H 1.981586 -0.240048 -2.763331 0
M  V30 35 H 1.617273 -1.665843 -3.764314 0
M  V30 36 H 4.845706 0.642473 1.570178 0
M  V30 37 H 4.648046 2.238286 3.472238 0
M  V30 38 H 2.009884 3.708755 4.606976 0
M  V30 39 H -0.230346 1.752557 4.363792 0
M  V30 40 H -2.174252 -1.398337 1.319987 0
M  V30 41 H -4.682256 -1.608529 1.806875 0
M  V30 42 H -5.558557 -0.144137 3.729615 0
M  V30 END ATOM
M  V30 BEGIN BOND
M  V30 1 2 1 2
M  V30 2 1 2 3
M  V30 3 1 3 4
M  V30 4 1 4 5
M  V30 5 1 5 6
M  V30 6 1 6 7
M  V30 7 1 7 8
M  V30 8 1 8 9
M  V30 9 1 2 10
M  V30 10 2 10 11
M  V30 11 1 11 12
M  V30 12 2 12 13
M  V30 13 1 13 14
M  V30 14 1 13 15
M  V30 15 1 15 16
M  V30 16 1 16 17
M  V30 17 1 17 18
M  V30 18 2 18 19
M  V30 19 1 19 20
M  V30 20 2 20 21
M  V30 21 1 21 22
M  V30 22 2 17 23
M  V30 23 1 23 24
M  V30 24 1 9 4
M  V30 25 1 24 10
M  V30 26 2 24 15
M  V30 27 1 22 18
M  V30 28 1 3 25
M  V30 29 1 4 26
M  V30 30 1 5 27
M  V30 31 1 5 28
M  V30 32 1 6 29
M  V30 33 1 6 30
M  V30 34 1 7 31
M  V30 35 1 7 32
M  V30 36 1 8 33
M  V30 37 1 9 34
M  V30 38 1 9 35
M  V30 39 1 11 36
M  V30 40 1 12 37
M  V30 41 1 14 38
M  V30 42 1 16 39
M  V30 43 1 19 40
M  V30 44 1 20 41
M  V30 45 1 21 42
M  V30 END BOND
M  V30 END CTAB
M  END
>  <Dataset>  (496) 
ChEMBL_Kinases

>  <Ligand_Instance>  (496) 
nan

>  <PDB_ID>  (496) 
nan

>  <Standardized_SMILES>  (496) 
O=C(NC1CCCNC1)c1ccc(O)c2[nH]c(-c3cccs3)nc12

>  <Name>  (496) 
nan

>  <Pocket>  (496) 
nan

>  <ATP_Site>  (496) 
nan

>  <Peripheral>  (496) 
nan

>  <Num_H_Atoms_ProtBoundConf>  (496) 
nan

>  <Num_Resolved_Atoms>  (496) 
nan

>  <Num_Not_Resolved_Atoms>  (496) 
nan

$$$$
CHEMBL3718661
     RDKit          3D

  0  0  0  0  0  0  0  0  0  0999 V3000
M  V30 BEGIN CTAB
M  V30 COUNTS 37 40 0 0 0
M  V30 BEGIN ATOM
M  V30 1 O -3.040788 -1.355980 2.115611 0
M  V30 2 C -2.150184 -1.134813 1.239422 0
M  V30 3 N -1.195292 -2.136689 0.852587 0
M  V30 4 C -1.196809 -3.435997 1.433111 0
M  V30 5 C -0.128583 -4.348990 0.906049 0
M  V30 6 C 1.257123 -3.756673 1.169390 0
M  V30 7 N 1.662457 -4.214726 -0.134854 0
M  V30 8 C 0.246151 -4.256670 -0.526536 0
M  V30 9 C -2.124704 0.188417 0.627144 0
M  V30 10 C -3.329133 0.664029 0.157123 0
M  V30 11 C -3.408158 1.905205 -0.439277 0
M  V30 12 N -2.305405 2.673420 -0.571574 0
M  V30 13 C -1.095206 2.240366 -0.120166 0
M  V30 14 N 0.166710 2.698102 -0.074734 0
M  V30 15 C 0.964432 1.784084 0.516393 0
M  V30 16 C 2.417185 2.019882 0.705122 0
M  V30 17 C 3.239327 3.011357 0.410492 0
M  V30 18 C 4.552541 2.946988 0.710025 0
M  V30 19 C 4.967768 1.792723 1.334594 0
M  V30 20 S 3.418530 0.801961 1.479840 0
M  V30 21 N 0.247275 0.716012 0.868051 0
M  V30 22 C -1.022469 1.005241 0.472055 0
M  V30 23 H -0.525840 -1.844548 0.138073 0
M  V30 24 H -1.132486 -3.362583 2.537045 0
M  V30 25 H -2.181366 -3.943046 1.221585 0
M  V30 26 H -0.161671 -5.381235 1.250633 0
M  V30 27 H 1.761582 -4.231626 2.044213 0
M  V30 28 H 1.206039 -2.665949 1.327282 0
M  V30 29 H 2.236200 -3.534737 -0.687949 0
M  V30 30 H 0.061455 -5.188257 -1.102464 0
M  V30 31 H -0.001906 -3.369504 -1.102356 0
M  V30 32 H -4.298718 0.179636 0.184851 0
M  V30 33 H -4.308831 2.360925 -0.837421 0
M  V30 34 H 2.753425 3.863751 -0.088294 0
M  V30 35 H 5.240409 3.776990 0.463429 0
M  V30 36 H 6.166814 1.703225 1.622599 0
M  V30 37 H 0.639772 -0.126717 1.341877 0
M  V30 END ATOM
M  V30 BEGIN BOND
M  V30 1 2 1 2
M  V30 2 1 2 3
M  V30 3 1 3 4
M  V30 4 1 4 5
M  V30 5 1 5 6
M  V30 6 1 6 7
M  V30 7 1 7 8
M  V30 8 1 2 9
M  V30 9 2 9 10
M  V30 10 1 10 11
M  V30 11 2 11 12
M  V30 12 1 12 13
M  V30 13 1 13 14
M  V30 14 2 14 15
M  V30 15 1 15 16
M  V30 16 2 16 17
M  V30 17 1 17 18
M  V30 18 2 18 19
M  V30 19 1 19 20
M  V30 20 1 15 21
M  V30 21 1 21 22
M  V30 22 1 8 5
M  V30 23 1 22 9
M  V30 24 2 22 13
M  V30 25 1 20 16
M  V30 26 1 3 23
M  V30 27 1 4 24
M  V30 28 1 4 25
M  V30 29 1 5 26
M  V30 30 1 6 27
M  V30 31 1 6 28
M  V30 32 1 7 29
M  V30 33 1 8 30
M  V30 34 1 8 31
M  V30 35 1 10 32
M  V30 36 1 11 33
M  V30 37 1 17 34
M  V30 38 1 18 35
M  V30 39 1 19 36
M  V30 40 1 21 37
M  V30 END BOND
M  V30 END CTAB
M  END
>  <Dataset>  (497) 
ChEMBL_Kinases

>  <Ligand_Instance>  (497) 
nan

>  <PDB_ID>  (497) 
nan

>  <Standardized_SMILES>  (497) 
O=C(NCC1CNC1)c1ccnc2nc(-c3cccs3)[nH]c12

>  <Name>  (497) 
nan

>  <Pocket>  (497) 
nan

>  <ATP_Site>  (497) 
nan

>  <Peripheral>  (497) 
nan

>  <Num_H_Atoms_ProtBoundConf>  (497) 
nan

>  <Num_Resolved_Atoms>  (497) 
nan

>  <Num_Not_Resolved_Atoms>  (497) 
nan

$$$$
CHEMBL566636
     RDKit          3D

  0  0  0  0  0  0  0  0  0  0999 V3000
M  V30 BEGIN CTAB
M  V30 COUNTS 43 46 0 0 0
M  V30 BEGIN ATOM
M  V30 1 C 1.661474 0.991966 3.789627 0
M  V30 2 N 1.541221 1.076469 2.343508 0
M  V30 3 C 2.081845 2.124417 1.678000 0
M  V30 4 O 2.691395 3.029177 2.317047 0
M  V30 5 C 1.982942 2.233786 0.288446 0
M  V30 6 C 2.554060 3.349981 -0.460307 0
M  V30 7 C 1.698794 4.426322 -0.627580 0
M  V30 8 Cl 0.062940 4.444315 0.009378 0
M  V30 9 C 2.151409 5.540039 -1.328375 0
M  V30 10 C 3.441706 5.593260 -1.862390 0
M  V30 11 C 4.265182 4.499886 -1.674588 0
M  V30 12 C 3.848341 3.373817 -0.982116 0
M  V30 13 Cl 4.849220 1.972238 -0.719781 0
M  V30 14 C 1.319694 1.257930 -0.450074 0
M  V30 15 C 0.788413 0.213328 0.278086 0
M  V30 16 C 0.123479 -0.774558 -0.414226 0
M  V30 17 N -0.392252 -1.788716 0.293424 0
M  V30 18 C -0.313553 -1.920356 1.623088 0
M  V30 19 N -0.850304 -2.982471 2.392934 0
M  V30 20 C -1.568073 -4.110141 1.953424 0
M  V30 21 C -2.030180 -5.069220 2.841082 0
M  V30 22 C -2.728553 -6.177394 2.468528 0
M  V30 23 C -3.021582 -6.409491 1.142551 0
M  V30 24 N -3.750710 -7.567055 0.756545 0
M  V30 25 C -2.593987 -5.498340 0.202175 0
M  V30 26 C -1.892648 -4.399577 0.647198 0
M  V30 27 N 0.343279 -0.934062 2.254509 0
M  V30 28 C 0.897200 0.124469 1.648679 0
M  V30 29 H 1.609357 2.023722 4.223066 0
M  V30 30 H 2.655447 0.590310 4.090478 0
M  V30 31 H 0.828415 0.433840 4.253170 0
M  V30 32 H 1.529771 6.416379 -1.494041 0
M  V30 33 H 3.789310 6.462185 -2.406977 0
M  V30 34 H 5.287784 4.506587 -2.081167 0
M  V30 35 H 1.225453 1.312778 -1.526331 0
M  V30 36 H 0.014489 -0.743951 -1.494080 0
M  V30 37 H -0.700325 -2.938000 3.444340 0
M  V30 38 H -1.828165 -4.940876 3.914291 0
M  V30 39 H -3.057678 -6.886435 3.231156 0
M  V30 40 H -3.371836 -8.451867 0.317190 0
M  V30 41 H -4.761108 -7.385987 0.990242 0
M  V30 42 H -2.816633 -5.667348 -0.842117 0
M  V30 43 H -1.590066 -3.730738 -0.139217 0
M  V30 END ATOM
M  V30 BEGIN BOND
M  V30 1 1 1 2
M  V30 2 1 2 3
M  V30 3 2 3 4
M  V30 4 1 3 5
M  V30 5 1 5 6
M  V30 6 2 6 7
M  V30 7 1 7 8
M  V30 8 1 7 9
M  V30 9 2 9 10
M  V30 10 1 10 11
M  V30 11 2 11 12
M  V30 12 1 12 13
M  V30 13 2 5 14
M  V30 14 1 14 15
M  V30 15 2 15 16
M  V30 16 1 16 17
M  V30 17 2 17 18
M  V30 18 1 18 19
M  V30 19 1 19 20
M  V30 20 2 20 21
M  V30 21 1 21 22
M  V30 22 2 22 23
M  V30 23 1 23 24
M  V30 24 1 23 25
M  V30 25 2 25 26
M  V30 26 1 18 27
M  V30 27 2 27 28
M  V30 28 1 28 2
M  V30 29 1 12 6
M  V30 30 1 28 15
M  V30 31 1 26 20
M  V30 32 1 1 29
M  V30 33 1 1 30
M  V30 34 1 1 31
M  V30 35 1 9 32
M  V30 36 1 10 33
M  V30 37 1 11 34
M  V30 38 1 14 35
M  V30 39 1 16 36
M  V30 40 1 19 37
M  V30 41 1 21 38
M  V30 42 1 22 39
M  V30 43 1 24 40
M  V30 44 1 24 41
M  V30 45 1 25 42
M  V30 46 1 26 43
M  V30 END BOND
M  V30 END CTAB
M  END
>  <Dataset>  (498) 
ChEMBL_Kinases

>  <Ligand_Instance>  (498) 
nan

>  <PDB_ID>  (498) 
nan

>  <Standardized_SMILES>  (498) 
Cn1c(=O)c(-c2c(Cl)cccc2Cl)cc2cnc(Nc3ccc(N)cc3)nc21

>  <Name>  (498) 
nan

>  <Pocket>  (498) 
nan

>  <ATP_Site>  (498) 
nan

>  <Peripheral>  (498) 
nan

>  <Num_H_Atoms_ProtBoundConf>  (498) 
nan

>  <Num_Resolved_Atoms>  (498) 
nan

>  <Num_Not_Resolved_Atoms>  (498) 
nan

$$$$
CHEMBL3718636
     RDKit          3D

  0  0  0  0  0  0  0  0  0  0999 V3000
M  V30 BEGIN CTAB
M  V30 COUNTS 37 40 0 0 0
M  V30 BEGIN ATOM
M  V30 1 O -2.977537 -1.718338 1.206708 0
M  V30 2 C -2.075135 -1.203781 0.527979 0
M  V30 3 N -0.895331 -1.895258 0.089808 0
M  V30 4 C -0.734297 -3.306601 0.452074 0
M  V30 5 C 0.180872 -3.434052 1.661279 0
M  V30 6 C 0.898269 -4.738296 1.387553 0
M  V30 7 N 1.094005 -4.762978 -0.054791 0
M  V30 8 C -0.061386 -4.082818 -0.614103 0
M  V30 9 C -2.088620 0.196441 0.074454 0
M  V30 10 C -3.248901 0.647103 -0.536783 0
M  V30 11 C -3.252494 1.968757 -0.977994 0
M  V30 12 N -2.201073 2.770784 -0.826618 0
M  V30 13 C -1.042741 2.380062 -0.236543 0
M  V30 14 N 0.159843 2.898449 0.061885 0
M  V30 15 C 0.900463 1.948525 0.669907 0
M  V30 16 C 2.245016 2.080344 1.150765 0
M  V30 17 C 3.030245 3.148667 1.089624 0
M  V30 18 C 4.277538 3.324981 1.516457 0
M  V30 19 C 4.757597 2.101442 2.126594 0
M  V30 20 S 3.264173 0.898261 1.958052 0
M  V30 21 N 0.209107 0.809472 0.779250 0
M  V30 22 C -1.002908 1.068805 0.216226 0
M  V30 23 H -0.088561 -1.561218 -0.479852 0
M  V30 24 H -1.746178 -3.666273 0.761603 0
M  V30 25 H 0.928890 -2.637295 1.706177 0
M  V30 26 H -0.399327 -3.550003 2.605203 0
M  V30 27 H 0.276481 -5.588772 1.729681 0
M  V30 28 H 1.862068 -4.760721 1.933813 0
M  V30 29 H 1.971111 -4.220490 -0.317672 0
M  V30 30 H 0.257977 -3.478208 -1.506485 0
M  V30 31 H -0.762064 -4.891943 -0.967547 0
M  V30 32 H -4.082617 -0.030392 -0.641274 0
M  V30 33 H -4.174052 2.262905 -1.438896 0
M  V30 34 H 2.782118 4.107322 0.658266 0
M  V30 35 H 5.238873 3.713304 1.758792 0
M  V30 36 H 5.535566 1.323330 2.698751 0
M  V30 37 H 0.560658 -0.077942 1.220626 0
M  V30 END ATOM
M  V30 BEGIN BOND
M  V30 1 2 1 2
M  V30 2 1 2 3
M  V30 3 1 3 4
M  V30 4 1 4 5
M  V30 5 1 5 6
M  V30 6 1 6 7
M  V30 7 1 7 8
M  V30 8 1 2 9
M  V30 9 2 9 10
M  V30 10 1 10 11
M  V30 11 2 11 12
M  V30 12 1 12 13
M  V30 13 1 13 14
M  V30 14 2 14 15
M  V30 15 1 15 16
M  V30 16 2 16 17
M  V30 17 1 17 18
M  V30 18 2 18 19
M  V30 19 1 19 20
M  V30 20 1 15 21
M  V30 21 1 21 22
M  V30 22 1 8 4
M  V30 23 1 22 9
M  V30 24 2 22 13
M  V30 25 1 20 16
M  V30 26 1 3 23
M  V30 27 1 4 24
M  V30 28 1 5 25
M  V30 29 1 5 26
M  V30 30 1 6 27
M  V30 31 1 6 28
M  V30 32 1 7 29
M  V30 33 1 8 30
M  V30 34 1 8 31
M  V30 35 1 10 32
M  V30 36 1 11 33
M  V30 37 1 17 34
M  V30 38 1 18 35
M  V30 39 1 19 36
M  V30 40 1 21 37
M  V30 END BOND
M  V30 END CTAB
M  END
>  <Dataset>  (499) 
ChEMBL_Kinases

>  <Ligand_Instance>  (499) 
nan

>  <PDB_ID>  (499) 
nan

>  <Standardized_SMILES>  (499) 
O=C(NC1CCNC1)c1ccnc2nc(-c3cccs3)[nH]c12

>  <Name>  (499) 
nan

>  <Pocket>  (499) 
nan

>  <ATP_Site>  (499) 
nan

>  <Peripheral>  (499) 
nan

>  <Num_H_Atoms_ProtBoundConf>  (499) 
nan

>  <Num_Resolved_Atoms>  (499) 
nan

>  <Num_Not_Resolved_Atoms>  (499) 
nan

$$$$
CHEMBL3718605
     RDKit          3D

  0  0  0  0  0  0  0  0  0  0999 V3000
M  V30 BEGIN CTAB
M  V30 COUNTS 38 40 0 0 0
M  V30 BEGIN ATOM
M  V30 1 C -1.924849 -1.384448 2.361194 0
M  V30 2 C -1.052851 -2.413664 1.738889 0
M  V30 3 N -0.396602 -1.989136 0.509193 0
M  V30 4 C 0.436864 -3.054896 -0.022783 0
M  V30 5 C 1.645011 -3.346127 0.836287 0
M  V30 6 C -0.411265 -0.782284 -0.239124 0
M  V30 7 N -1.153654 -0.894861 -1.373635 0
M  V30 8 C -1.325292 0.171760 -2.207103 0
M  V30 9 C -2.161467 -0.040645 -3.440293 0
M  V30 10 N -0.750635 1.350058 -1.900637 0
M  V30 11 C -0.004819 1.524043 -0.794452 0
M  V30 12 N 0.675832 2.553090 -0.250557 0
M  V30 13 C 1.253799 2.111224 0.899321 0
M  V30 14 C 2.059405 2.742936 1.840622 0
M  V30 15 C 2.548233 2.079764 2.954590 0
M  V30 16 C 2.212304 0.734516 3.122102 0
M  V30 17 O 2.731107 0.103412 4.263932 0
M  V30 18 C 1.415683 0.117422 2.187409 0
M  V30 19 C 0.938069 0.783431 1.091866 0
M  V30 20 C 0.152515 0.434704 0.028037 0
M  V30 21 H -2.529258 -1.934169 3.142718 0
M  V30 22 H -2.675218 -0.964840 1.681916 0
M  V30 23 H -1.334219 -0.659207 2.937658 0
M  V30 24 H -0.268072 -2.725226 2.443350 0
M  V30 25 H -1.639814 -3.358975 1.540668 0
M  V30 26 H 0.752961 -2.862468 -1.062744 0
M  V30 27 H -0.114896 -4.032888 -0.075419 0
M  V30 28 H 1.363619 -3.755213 1.823794 0
M  V30 29 H 2.373911 -2.514138 0.881803 0
M  V30 30 H 2.180716 -4.178862 0.293763 0
M  V30 31 H -3.197803 -0.303683 -3.133857 0
M  V30 32 H -2.183910 0.872613 -4.035391 0
M  V30 33 H -1.703019 -0.842865 -4.032623 0
M  V30 34 H 0.731950 3.509551 -0.663936 0
M  V30 35 H 2.325229 3.785885 1.719595 0
M  V30 36 H 3.175366 2.578269 3.687571 0
M  V30 37 H 2.086858 -0.325534 4.898658 0
M  V30 38 H 1.242928 -0.909683 2.429799 0
M  V30 END ATOM
M  V30 BEGIN BOND
M  V30 1 1 1 2
M  V30 2 1 2 3
M  V30 3 1 3 4
M  V30 4 1 4 5
M  V30 5 1 3 6
M  V30 6 2 6 7
M  V30 7 1 7 8
M  V30 8 1 8 9
M  V30 9 2 8 10
M  V30 10 1 10 11
M  V30 11 1 11 12
M  V30 12 1 12 13
M  V30 13 2 13 14
M  V30 14 1 14 15
M  V30 15 2 15 16
M  V30 16 1 16 17
M  V30 17 1 16 18
M  V30 18 2 18 19
M  V30 19 1 19 20
M  V30 20 1 20 6
M  V30 21 2 20 11
M  V30 22 1 19 13
M  V30 23 1 1 21
M  V30 24 1 1 22
M  V30 25 1 1 23
M  V30 26 1 2 24
M  V30 27 1 2 25
M  V30 28 1 4 26
M  V30 29 1 4 27
M  V30 30 1 5 28
M  V30 31 1 5 29
M  V30 32 1 5 30
M  V30 33 1 9 31
M  V30 34 1 9 32
M  V30 35 1 9 33
M  V30 36 1 12 34
M  V30 37 1 14 35
M  V30 38 1 15 36
M  V30 39 1 17 37
M  V30 40 1 18 38
M  V30 END BOND
M  V30 END CTAB
M  END
>  <Dataset>  (500) 
ChEMBL_Kinases

>  <Ligand_Instance>  (500) 
nan

>  <PDB_ID>  (500) 
nan

>  <Standardized_SMILES>  (500) 
CCN(CC)c1nc(C)nc2[nH]c3ccc(O)cc3c12

>  <Name>  (500) 
nan

>  <Pocket>  (500) 
nan

>  <ATP_Site>  (500) 
nan

>  <Peripheral>  (500) 
nan

>  <Num_H_Atoms_ProtBoundConf>  (500) 
nan

>  <Num_Resolved_Atoms>  (500) 
nan

>  <Num_Not_Resolved_Atoms>  (500) 
nan

$$$$
CHEMBL371491
     RDKit          3D

  0  0  0  0  0  0  0  0  0  0999 V3000
M  V30 BEGIN CTAB
M  V30 COUNTS 49 52 0 0 0
M  V30 BEGIN ATOM
M  V30 1 C -1.825291 -2.673531 3.465095 0
M  V30 2 C -0.387315 -3.099250 3.540617 0
M  V30 3 O 0.475483 -2.179781 2.955792 0
M  V30 4 C 0.432166 -0.917425 3.541210 0
M  V30 5 N 1.408820 -0.120140 2.777754 0
M  V30 6 O 2.677256 0.013883 3.026850 0
M  V30 7 C 3.227417 0.801981 2.113810 0
M  V30 8 O 4.473766 1.036459 2.215602 0
M  V30 9 C 2.244390 1.209804 1.205135 0
M  V30 10 C 2.594283 2.087117 0.102038 0
M  V30 11 C 2.280831 3.393379 -0.189699 0
M  V30 12 C 2.739785 4.017339 -1.323452 0
M  V30 13 C 3.547525 3.320688 -2.215503 0
M  V30 14 F 3.981530 3.955152 -3.316942 0
M  V30 15 C 3.893196 1.994090 -1.964048 0
M  V30 16 C 3.410248 1.403277 -0.810693 0
M  V30 17 C 1.096511 0.601722 1.661226 0
M  V30 18 C -0.189496 0.755449 0.998001 0
M  V30 19 C -0.854505 1.946982 0.814379 0
M  V30 20 C -2.075208 2.074474 0.190819 0
M  V30 21 N -2.636785 0.917135 -0.264852 0
M  V30 22 C -1.986089 -0.271160 -0.087650 0
M  V30 23 O -2.786261 -1.256868 -0.642675 0
M  V30 24 C -2.527853 -2.594199 -0.687197 0
M  V30 25 C -3.529266 -3.296746 -0.006961 0
M  V30 26 C -3.516378 -4.688350 0.104404 0
M  V30 27 C -2.483543 -5.393934 -0.474356 0
M  V30 28 C -1.511003 -4.708563 -1.135025 0
M  V30 29 C -1.496180 -3.337736 -1.261760 0
M  V30 30 O -0.577330 -2.517555 -1.900939 0
M  V30 31 N -0.788462 -0.368721 0.527367 0
M  V30 32 H -1.990550 -1.830613 2.764905 0
M  V30 33 H -2.192488 -2.463233 4.478346 0
M  V30 34 H -2.427953 -3.510348 3.060584 0
M  V30 35 H -0.258215 -4.039084 2.960940 0
M  V30 36 H -0.107411 -3.326885 4.575318 0
M  V30 37 H 0.759841 -0.914911 4.590605 0
M  V30 38 H -0.531717 -0.409429 3.459280 0
M  V30 39 H 1.659571 3.829912 0.565919 0
M  V30 40 H 2.446421 5.034284 -1.471471 0
M  V30 41 H 4.514127 1.522855 -2.689912 0
M  V30 42 H 3.756212 0.364535 -0.736242 0
M  V30 43 H -0.406536 2.849596 1.179168 0
M  V30 44 H -2.548144 3.059143 0.078767 0
M  V30 45 H -4.408283 -2.871726 0.501096 0
M  V30 46 H -4.266095 -5.259172 0.617281 0
M  V30 47 H -2.445295 -6.455672 -0.406721 0
M  V30 48 H -0.663944 -5.187440 -1.618485 0
M  V30 49 H 0.391116 -2.604233 -1.622126 0
M  V30 END ATOM
M  V30 BEGIN BOND
M  V30 1 1 1 2
M  V30 2 1 2 3
M  V30 3 1 3 4
M  V30 4 1 4 5
M  V30 5 1 5 6
M  V30 6 1 6 7
M  V30 7 2 7 8
M  V30 8 1 7 9
M  V30 9 1 9 10
M  V30 10 2 10 11
M  V30 11 1 11 12
M  V30 12 2 12 13
M  V30 13 1 13 14
M  V30 14 1 13 15
M  V30 15 2 15 16
M  V30 16 2 9 17
M  V30 17 1 17 18
M  V30 18 2 18 19
M  V30 19 1 19 20
M  V30 20 2 20 21
M  V30 21 1 21 22
M  V30 22 1 22 23
M  V30 23 1 23 24
M  V30 24 2 24 25
M  V30 25 1 25 26
M  V30 26 2 26 27
M  V30 27 1 27 28
M  V30 28 2 28 29
M  V30 29 1 29 30
M  V30 30 2 22 31
M  V30 31 1 17 5
M  V30 32 1 31 18
M  V30 33 1 16 10
M  V30 34 1 29 24
M  V30 35 1 1 32
M  V30 36 1 1 33
M  V30 37 1 1 34
M  V30 38 1 2 35
M  V30 39 1 2 36
M  V30 40 1 4 37
M  V30 41 1 4 38
M  V30 42 1 11 39
M  V30 43 1 12 40
M  V30 44 1 15 41
M  V30 45 1 16 42
M  V30 46 1 19 43
M  V30 47 1 20 44
M  V30 48 1 25 45
M  V30 49 1 26 46
M  V30 50 1 27 47
M  V30 51 1 28 48
M  V30 52 1 30 49
M  V30 END BOND
M  V30 END CTAB
M  END
>  <Dataset>  (501) 
ChEMBL_Kinases

>  <Ligand_Instance>  (501) 
nan

>  <PDB_ID>  (501) 
nan

>  <Standardized_SMILES>  (501) 
CCOCn1oc(=O)c(-c2ccc(F)cc2)c1-c1ccnc(Oc2ccccc2O)n1

>  <Name>  (501) 
nan

>  <Pocket>  (501) 
nan

>  <ATP_Site>  (501) 
nan

>  <Peripheral>  (501) 
nan

>  <Num_H_Atoms_ProtBoundConf>  (501) 
nan

>  <Num_Resolved_Atoms>  (501) 
nan

>  <Num_Not_Resolved_Atoms>  (501) 
nan

$$$$
CHEMBL3718596
     RDKit          3D

  0  0  0  0  0  0  0  0  0  0999 V3000
M  V30 BEGIN CTAB
M  V30 COUNTS 53 57 0 0 0
M  V30 BEGIN ATOM
M  V30 1 C 5.527443 -4.066682 5.182235 0
M  V30 2 C 4.213952 -3.392772 5.064997 0
M  V30 3 O 3.184686 -4.120751 5.048417 0
M  V30 4 N 4.015923 -1.978820 4.968659 0
M  V30 5 C 2.680180 -1.504326 4.862057 0
M  V30 6 C 2.050266 -1.324962 3.667713 0
M  V30 7 C 0.776245 -0.877034 3.450098 0
M  V30 8 N 0.140503 -0.701244 2.194279 0
M  V30 9 C 0.471356 -0.924908 0.812444 0
M  V30 10 C -0.300728 -0.110032 -0.147674 0
M  V30 11 O 0.175581 -0.355183 -1.310757 0
M  V30 12 N -1.362521 0.796882 -0.009947 0
M  V30 13 C -1.934809 1.461963 -1.143985 0
M  V30 14 N -2.816388 2.262698 -1.354042 0
M  V30 15 C -3.144553 2.722379 -2.542811 0
M  V30 16 C -4.139626 3.633547 -2.830143 0
M  V30 17 C -4.355566 4.011881 -4.133365 0
M  V30 18 C -3.661894 3.566192 -5.235103 0
M  V30 19 N -3.602234 3.708025 -6.568022 0
M  V30 20 N -2.651268 2.949855 -7.067331 0
M  V30 21 C -2.016826 2.252716 -6.085627 0
M  V30 22 C -2.665546 2.655213 -4.956724 0
M  V30 23 C -2.433774 2.260772 -3.637776 0
M  V30 24 S -1.297259 1.148805 -2.819452 0
M  V30 25 C 0.083536 -2.364042 0.545015 0
M  V30 26 C -0.872002 -2.674508 -0.429543 0
M  V30 27 C -1.272994 -3.949259 -0.755468 0
M  V30 28 C -0.708992 -5.014134 -0.088950 0
M  V30 29 C 0.238074 -4.787022 0.883321 0
M  V30 30 C 0.585350 -3.487500 1.150825 0
M  V30 31 C 0.081027 -0.583711 4.589141 0
M  V30 32 C 0.639667 -0.735623 5.831216 0
M  V30 33 C 1.924388 -1.191165 5.953471 0
M  V30 34 Cl 2.570293 -1.359452 7.570730 0
M  V30 35 H 5.439343 -4.973543 5.805885 0
M  V30 36 H 5.937242 -4.361857 4.175545 0
M  V30 37 H 6.203643 -3.358158 5.687787 0
M  V30 38 H 4.905687 -1.426738 4.987627 0
M  V30 39 H 2.643801 -1.569136 2.769654 0
M  V30 40 H -0.845161 -0.311966 2.225753 0
M  V30 41 H 1.567935 -0.805590 0.692476 0
M  V30 42 H -1.682741 0.939886 0.937870 0
M  V30 43 H -4.795106 4.096541 -2.076627 0
M  V30 44 H -5.151243 4.740523 -4.363334 0
M  V30 45 H -4.266783 4.360462 -7.061783 0
M  V30 46 H -1.202004 1.549095 -6.142548 0
M  V30 47 H -1.392569 -1.934600 -1.010946 0
M  V30 48 H -2.009991 -4.184328 -1.507992 0
M  V30 49 H -0.992375 -6.031856 -0.310651 0
M  V30 50 H 0.687334 -5.605344 1.412309 0
M  V30 51 H 1.329558 -3.364116 1.909026 0
M  V30 52 H -0.951266 -0.215037 4.559596 0
M  V30 53 H 0.039270 -0.486019 6.720058 0
M  V30 END ATOM
M  V30 BEGIN BOND
M  V30 1 1 1 2
M  V30 2 2 2 3
M  V30 3 1 2 4
M  V30 4 1 4 5
M  V30 5 2 5 6
M  V30 6 1 6 7
M  V30 7 1 7 8
M  V30 8 1 8 9
M  V30 9 1 9 10
M  V30 10 2 10 11
M  V30 11 1 10 12
M  V30 12 1 12 13
M  V30 13 2 13 14
M  V30 14 1 14 15
M  V30 15 2 15 16
M  V30 16 1 16 17
M  V30 17 2 17 18
M  V30 18 1 18 19
M  V30 19 1 19 20
M  V30 20 2 20 21
M  V30 21 1 21 22
M  V30 22 2 22 23
M  V30 23 1 23 24
M  V30 24 1 9 25
M  V30 25 2 25 26
M  V30 26 1 26 27
M  V30 27 2 27 28
M  V30 28 1 28 29
M  V30 29 2 29 30
M  V30 30 2 7 31
M  V30 31 1 31 32
M  V30 32 2 32 33
M  V30 33 1 33 34
M  V30 34 1 33 5
M  V30 35 1 24 13
M  V30 36 1 30 25
M  V30 37 1 23 15
M  V30 38 1 22 18
M  V30 39 1 1 35
M  V30 40 1 1 36
M  V30 41 1 1 37
M  V30 42 1 4 38
M  V30 43 1 6 39
M  V30 44 1 8 40
M  V30 45 1 9 41
M  V30 46 1 12 42
M  V30 47 1 16 43
M  V30 48 1 17 44
M  V30 49 1 19 45
M  V30 50 1 21 46
M  V30 51 1 26 47
M  V30 52 1 27 48
M  V30 53 1 28 49
M  V30 54 1 29 50
M  V30 55 1 30 51
M  V30 56 1 31 52
M  V30 57 1 32 53
M  V30 END BOND
M  V30 END CTAB
M  END
>  <Dataset>  (502) 
ChEMBL_Kinases

>  <Ligand_Instance>  (502) 
nan

>  <PDB_ID>  (502) 
nan

>  <Standardized_SMILES>  (502) 
CC(=O)Nc1cc(NC(C(=O)Nc2nc3ccc4[nH]ncc4c3s2)c2ccccc2)ccc1Cl

>  <Name>  (502) 
nan

>  <Pocket>  (502) 
nan

>  <ATP_Site>  (502) 
nan

>  <Peripheral>  (502) 
nan

>  <Num_H_Atoms_ProtBoundConf>  (502) 
nan

>  <Num_Resolved_Atoms>  (502) 
nan

>  <Num_Not_Resolved_Atoms>  (502) 
nan

$$$$
CHEMBL3718588
     RDKit          3D

  0  0  0  0  0  0  0  0  0  0999 V3000
M  V30 BEGIN CTAB
M  V30 COUNTS 55 59 0 0 0
M  V30 BEGIN ATOM
M  V30 1 N 2.176320 -2.620583 2.981117 0
M  V30 2 C 2.510605 -3.264540 1.692414 0
M  V30 3 C 1.302130 -3.194419 0.838883 0
M  V30 4 C 1.469463 -2.868177 -0.594140 0
M  V30 5 C 2.854864 -2.559485 -1.025410 0
M  V30 6 C 3.531874 -1.688062 0.040031 0
M  V30 7 N 2.722348 -0.541599 0.348918 0
M  V30 8 C 2.718919 0.839569 -0.095001 0
M  V30 9 O 3.642481 0.979835 -0.959812 0
M  V30 10 C 1.727513 1.718339 0.503656 0
M  V30 11 C 2.391980 2.801132 1.084122 0
M  V30 12 C 1.633607 3.767504 1.760015 0
M  V30 13 C 0.270472 3.587070 1.810357 0
M  V30 14 O -0.514135 4.538574 2.481954 0
M  V30 15 C -0.374136 2.512347 1.233287 0
M  V30 16 N -1.658132 2.063709 1.123685 0
M  V30 17 C -1.676576 0.888453 0.416126 0
M  V30 18 C -2.982005 0.244141 0.228917 0
M  V30 19 C -3.491808 0.189249 -1.188035 0
M  V30 20 C -3.672084 -1.287446 -1.516502 0
M  V30 21 C -4.835912 -1.864474 -0.777979 0
M  V30 22 C -4.421656 -1.660251 0.672274 0
M  V30 23 C -2.994320 -1.214607 0.631366 0
M  V30 24 C -2.533369 -1.868608 -0.657845 0
M  V30 25 N -0.393060 0.593340 0.075816 0
M  V30 26 C 0.379901 1.575577 0.574088 0
M  V30 27 C 3.751659 -2.593717 1.208023 0
M  V30 28 H 2.712761 -2.998556 3.767139 0
M  V30 29 H 1.150229 -2.558901 3.122655 0
M  V30 30 H 2.736249 -4.336532 2.001490 0
M  V30 31 H 0.840994 -4.239341 0.856942 0
M  V30 32 H 0.481614 -2.591197 1.344279 0
M  V30 33 H 1.011187 -3.627009 -1.296324 0
M  V30 34 H 0.860468 -1.938753 -0.809384 0
M  V30 35 H 2.938871 -2.120193 -2.017144 0
M  V30 36 H 3.434769 -3.528525 -1.016483 0
M  V30 37 H 4.520390 -1.377909 -0.380612 0
M  V30 38 H 1.990377 -0.815707 1.063802 0
M  V30 39 H 3.464173 3.024178 1.100151 0
M  V30 40 H 2.044228 4.640833 2.240469 0
M  V30 41 H -0.528120 4.412011 3.491771 0
M  V30 42 H -2.392033 2.645386 1.574431 0
M  V30 43 H -3.742703 0.745607 0.861439 0
M  V30 44 H -2.821099 0.636289 -1.923267 0
M  V30 45 H -4.494291 0.673048 -1.243457 0
M  V30 46 H -3.605601 -1.542832 -2.560129 0
M  V30 47 H -4.808682 -2.959568 -0.937819 0
M  V30 48 H -5.816731 -1.424347 -1.014377 0
M  V30 49 H -5.072276 -0.822688 1.059712 0
M  V30 50 H -4.603021 -2.581568 1.268905 0
M  V30 51 H -2.391901 -1.436359 1.507822 0
M  V30 52 H -1.558279 -1.500943 -1.021691 0
M  V30 53 H -2.651760 -2.947746 -0.679983 0
M  V30 54 H 4.275495 -2.025364 2.012128 0
M  V30 55 H 4.432833 -3.417123 0.844458 0
M  V30 END ATOM
M  V30 BEGIN BOND
M  V30 1 1 1 2
M  V30 2 1 2 3
M  V30 3 1 3 4
M  V30 4 1 4 5
M  V30 5 1 5 6
M  V30 6 1 6 7
M  V30 7 1 7 8
M  V30 8 2 8 9
M  V30 9 1 8 10
M  V30 10 1 10 11
M  V30 11 2 11 12
M  V30 12 1 12 13
M  V30 13 1 13 14
M  V30 14 2 13 15
M  V30 15 1 15 16
M  V30 16 1 16 17
M  V30 17 1 17 18
M  V30 18 1 18 19
M  V30 19 1 19 20
M  V30 20 1 20 21
M  V30 21 1 21 22
M  V30 22 1 22 23
M  V30 23 1 23 24
M  V30 24 2 17 25
M  V30 25 1 25 26
M  V30 26 1 6 27
M  V30 27 1 27 2
M  V30 28 2 26 10
M  V30 29 1 26 15
M  V30 30 1 23 18
M  V30 31 1 24 20
M  V30 32 1 1 28
M  V30 33 1 1 29
M  V30 34 1 2 30
M  V30 35 1 3 31
M  V30 36 1 3 32
M  V30 37 1 4 33
M  V30 38 1 4 34
M  V30 39 1 5 35
M  V30 40 1 5 36
M  V30 41 1 6 37
M  V30 42 1 7 38
M  V30 43 1 11 39
M  V30 44 1 12 40
M  V30 45 1 14 41
M  V30 46 1 16 42
M  V30 47 1 18 43
M  V30 48 1 19 44
M  V30 49 1 19 45
M  V30 50 1 20 46
M  V30 51 1 21 47
M  V30 52 1 21 48
M  V30 53 1 22 49
M  V30 54 1 22 50
M  V30 55 1 23 51
M  V30 56 1 24 52
M  V30 57 1 24 53
M  V30 58 1 27 54
M  V30 59 1 27 55
M  V30 END BOND
M  V30 END CTAB
M  END
>  <Dataset>  (503) 
ChEMBL_Kinases

>  <Ligand_Instance>  (503) 
nan

>  <PDB_ID>  (503) 
nan

>  <Standardized_SMILES>  (503) 
NC1CCCC(NC(=O)c2ccc(O)c3[nH]c(C4CC5CCC4C5)nc23)C1

>  <Name>  (503) 
nan

>  <Pocket>  (503) 
nan

>  <ATP_Site>  (503) 
nan

>  <Peripheral>  (503) 
nan

>  <Num_H_Atoms_ProtBoundConf>  (503) 
nan

>  <Num_Resolved_Atoms>  (503) 
nan

>  <Num_Not_Resolved_Atoms>  (503) 
nan

$$$$
CHEMBL3718575
     RDKit          3D

  0  0  0  0  0  0  0  0  0  0999 V3000
M  V30 BEGIN CTAB
M  V30 COUNTS 59 63 0 0 0
M  V30 BEGIN ATOM
M  V30 1 N -0.428605 -4.328969 3.347465 0
M  V30 2 C 1.009534 -4.472632 3.541372 0
M  V30 3 C 1.680308 -3.474123 2.596068 0 CFG=1
M  V30 4 C 1.231910 -2.076528 2.925300 0
M  V30 5 C 2.384999 -1.237596 3.403356 0
M  V30 6 C 3.414091 -1.070700 2.325335 0 CFG=2
M  V30 7 C 2.883970 -0.457025 1.061763 0
M  V30 8 N 2.318021 0.866776 1.301525 0
M  V30 9 C 1.856017 1.323599 0.038346 0
M  V30 10 O 2.034417 0.523777 -0.947697 0
M  V30 11 C 1.199144 2.541763 -0.401768 0
M  V30 12 C 1.679485 3.838186 -0.428048 0
M  V30 13 C 0.850337 4.829427 -0.899546 0
M  V30 14 N -0.403543 4.642869 -1.342590 0
M  V30 15 C -0.918532 3.388473 -1.335887 0
M  V30 16 N -2.108377 2.873852 -1.701439 0
M  V30 17 C -2.116584 1.524120 -1.487907 0
M  V30 18 C -3.197212 0.578694 -1.739090 0
M  V30 19 C -3.744480 -0.136186 -0.542651 0
M  V30 20 C -4.223046 -1.441066 -1.153272 0
M  V30 21 C -3.004496 -2.326235 -1.202193 0
M  V30 22 C -2.201251 -1.681636 -2.321422 0
M  V30 23 C -2.967527 -0.481523 -2.755609 0
M  V30 24 C -4.376241 -1.114930 -2.646688 0
M  V30 25 N -0.899259 1.264650 -0.987990 0
M  V30 26 C -0.109892 2.357415 -0.865842 0
M  V30 27 C 3.919618 -2.479478 2.004250 0
M  V30 28 C 3.177804 -3.554044 2.717299 0
M  V30 29 H -0.894568 -3.867025 4.160492 0
M  V30 30 H -0.650884 -3.718624 2.504370 0
M  V30 31 H 1.247726 -4.108746 4.563355 0
M  V30 32 H 1.313762 -5.505776 3.342411 0
M  V30 33 H 1.351173 -3.710573 1.561873 0
M  V30 34 H 0.405281 -2.083119 3.689021 0
M  V30 35 H 0.849162 -1.608606 1.977997 0
M  V30 36 H 2.877038 -1.788444 4.237068 0
M  V30 37 H 2.040426 -0.258929 3.813965 0
M  V30 38 H 4.257379 -0.462732 2.746542 0
M  V30 39 H 2.149980 -1.116216 0.569358 0
M  V30 40 H 3.717948 -0.374562 0.294360 0
M  V30 41 H 2.129859 1.584222 2.032502 0
M  V30 42 H 2.675530 3.938810 -0.066972 0
M  V30 43 H 1.257813 5.853214 -0.912069 0
M  V30 44 H -4.069051 1.173755 -2.133753 0
M  V30 45 H -4.614783 0.351807 -0.065255 0
M  V30 46 H -2.936874 -0.362192 0.208130 0
M  V30 47 H -5.107897 -1.873930 -0.701340 0
M  V30 48 H -3.269605 -3.378596 -1.402921 0
M  V30 49 H -2.468933 -2.318587 -0.235747 0
M  V30 50 H -1.148149 -1.574672 -2.128630 0
M  V30 51 H -2.278398 -2.413091 -3.180066 0
M  V30 52 H -2.769248 -0.146133 -3.771128 0
M  V30 53 H -5.161404 -0.379022 -2.822651 0
M  V30 54 H -4.417471 -2.017122 -3.267231 0
M  V30 55 H -0.624687 0.294874 -0.729014 0
M  V30 56 H 4.981895 -2.542156 2.324934 0
M  V30 57 H 3.891872 -2.664633 0.908090 0
M  V30 58 H 3.467198 -4.517084 2.220838 0
M  V30 59 H 3.526165 -3.641980 3.768577 0
M  V30 END ATOM
M  V30 BEGIN BOND
M  V30 1 1 1 2
M  V30 2 1 2 3
M  V30 3 1 3 4
M  V30 4 1 4 5
M  V30 5 1 5 6
M  V30 6 1 6 7
M  V30 7 1 7 8
M  V30 8 1 8 9
M  V30 9 2 9 10
M  V30 10 1 9 11
M  V30 11 1 11 12
M  V30 12 2 12 13
M  V30 13 1 13 14
M  V30 14 2 14 15
M  V30 15 1 15 16
M  V30 16 2 16 17
M  V30 17 1 17 18
M  V30 18 1 18 19
M  V30 19 1 19 20
M  V30 20 1 20 21
M  V30 21 1 21 22
M  V30 22 1 22 23
M  V30 23 1 23 24
M  V30 24 1 17 25
M  V30 25 1 25 26
M  V30 26 1 6 27
M  V30 27 1 27 28
M  V30 28 1 28 3
M  V30 29 2 26 11
M  V30 30 1 26 15
M  V30 31 1 23 18
M  V30 32 1 24 20
M  V30 33 1 1 29
M  V30 34 1 1 30
M  V30 35 1 2 31
M  V30 36 1 2 32
M  V30 37 1 3 33 CFG=3
M  V30 38 1 4 34
M  V30 39 1 4 35
M  V30 40 1 5 36
M  V30 41 1 5 37
M  V30 42 1 6 38 CFG=1
M  V30 43 1 7 39
M  V30 44 1 7 40
M  V30 45 1 8 41
M  V30 46 1 12 42
M  V30 47 1 13 43
M  V30 48 1 18 44
M  V30 49 1 19 45
M  V30 50 1 19 46
M  V30 51 1 20 47
M  V30 52 1 21 48
M  V30 53 1 21 49
M  V30 54 1 22 50
M  V30 55 1 22 51
M  V30 56 1 23 52
M  V30 57 1 24 53
M  V30 58 1 24 54
M  V30 59 1 25 55
M  V30 60 1 27 56
M  V30 61 1 27 57
M  V30 62 1 28 58
M  V30 63 1 28 59
M  V30 END BOND
M  V30 END CTAB
M  END
>  <Dataset>  (504) 
ChEMBL_Kinases

>  <Ligand_Instance>  (504) 
nan

>  <PDB_ID>  (504) 
nan

>  <Standardized_SMILES>  (504) 
NC[C@H]1CC[C@H](CNC(=O)c2ccnc3nc(C4CC5CCC4C5)[nH]c23)CC1

>  <Name>  (504) 
nan

>  <Pocket>  (504) 
nan

>  <ATP_Site>  (504) 
nan

>  <Peripheral>  (504) 
nan

>  <Num_H_Atoms_ProtBoundConf>  (504) 
nan

>  <Num_Resolved_Atoms>  (504) 
nan

>  <Num_Not_Resolved_Atoms>  (504) 
nan

$$$$
CHEMBL3718523
     RDKit          3D

  0  0  0  0  0  0  0  0  0  0999 V3000
M  V30 BEGIN CTAB
M  V30 COUNTS 49 52 0 0 0
M  V30 BEGIN ATOM
M  V30 1 O -0.624087 -0.596435 0.092180 0
M  V30 2 C -0.459784 -1.477993 1.000877 0
M  V30 3 C 0.706526 -2.083911 1.738717 0
M  V30 4 N 1.884247 -1.425070 1.200124 0
M  V30 5 C 1.942964 -0.008909 1.353624 0
M  V30 6 O 0.913278 0.445851 1.959211 0
M  V30 7 C 3.065508 0.812376 0.865135 0
M  V30 8 C 4.185790 0.345077 0.208572 0
M  V30 9 C 5.155751 1.244510 -0.188590 0
M  V30 10 C 5.008895 2.595162 0.066857 0
M  V30 11 C 6.033666 3.550319 -0.352267 0
M  V30 12 C 7.211784 3.278429 -1.013703 0
M  V30 13 N 7.877130 4.446305 -1.214055 0
M  V30 14 C 7.102411 5.416096 -0.675457 0
M  V30 15 O 6.022807 4.861955 -0.174582 0
M  V30 16 C 3.889890 3.081874 0.725313 0
M  V30 17 C 2.916540 2.178200 1.123698 0
M  V30 18 N -1.759927 -1.962252 1.350555 0
M  V30 19 C -3.059960 -1.590025 0.834496 0
M  V30 20 C -3.899313 -0.951518 1.943619 0
M  V30 21 C -4.382419 -1.975846 2.926054 0
M  V30 22 C -5.333117 -2.972831 2.305228 0
M  V30 23 C -4.842193 -3.391452 0.946702 0
M  V30 24 C -5.506736 -4.472780 0.394055 0
M  V30 25 C -5.143209 -4.949187 -0.853458 0
M  V30 26 C -4.119465 -4.346083 -1.544369 0
M  V30 27 C -3.474864 -3.270019 -0.968831 0
M  V30 28 C -3.795131 -2.752456 0.272249 0
M  V30 29 H 0.551067 -1.883445 2.800588 0
M  V30 30 H 0.743593 -3.179803 1.573237 0
M  V30 31 H 2.682068 -1.909250 0.714067 0
M  V30 32 H 4.225877 -0.718300 0.047594 0
M  V30 33 H 6.020009 0.845380 -0.700304 0
M  V30 34 H 7.555081 2.292441 -1.325376 0
M  V30 35 H 7.081524 6.503974 -0.521850 0
M  V30 36 H 3.763432 4.137054 0.931149 0
M  V30 37 H 2.042355 2.590775 1.642190 0
M  V30 38 H -1.959811 -2.707643 2.082293 0
M  V30 39 H -3.006024 -0.799504 0.038024 0
M  V30 40 H -4.736409 -0.388264 1.495173 0
M  V30 41 H -3.265481 -0.232996 2.484539 0
M  V30 42 H -4.951262 -1.428043 3.702398 0
M  V30 43 H -3.528169 -2.489957 3.370413 0
M  V30 44 H -5.355148 -3.884285 2.917630 0
M  V30 45 H -6.349165 -2.581747 2.184413 0
M  V30 46 H -6.316131 -4.971538 0.908696 0
M  V30 47 H -5.628689 -5.787627 -1.327490 0
M  V30 48 H -3.818567 -4.711822 -2.535476 0
M  V30 49 H -2.674233 -2.832239 -1.558262 0
M  V30 END ATOM
M  V30 BEGIN BOND
M  V30 1 2 1 2
M  V30 2 1 2 3
M  V30 3 1 3 4
M  V30 4 1 4 5
M  V30 5 2 5 6
M  V30 6 1 5 7
M  V30 7 2 7 8
M  V30 8 1 8 9
M  V30 9 2 9 10
M  V30 10 1 10 11
M  V30 11 2 11 12
M  V30 12 1 12 13
M  V30 13 2 13 14
M  V30 14 1 14 15
M  V30 15 1 10 16
M  V30 16 2 16 17
M  V30 17 1 2 18
M  V30 18 1 18 19
M  V30 19 1 19 20
M  V30 20 1 20 21
M  V30 21 1 21 22
M  V30 22 1 22 23
M  V30 23 2 23 24
M  V30 24 1 24 25
M  V30 25 2 25 26
M  V30 26 1 26 27
M  V30 27 2 27 28
M  V30 28 1 17 7
M  V30 29 1 28 19
M  V30 30 1 15 11
M  V30 31 1 28 23
M  V30 32 1 3 29
M  V30 33 1 3 30
M  V30 34 1 4 31
M  V30 35 1 8 32
M  V30 36 1 9 33
M  V30 37 1 12 34
M  V30 38 1 14 35
M  V30 39 1 16 36
M  V30 40 1 17 37
M  V30 41 1 18 38
M  V30 42 1 19 39
M  V30 43 1 20 40
M  V30 44 1 20 41
M  V30 45 1 21 42
M  V30 46 1 21 43
M  V30 47 1 22 44
M  V30 48 1 22 45
M  V30 49 1 24 46
M  V30 50 1 25 47
M  V30 51 1 26 48
M  V30 52 1 27 49
M  V30 END BOND
M  V30 END CTAB
M  END
>  <Dataset>  (505) 
ChEMBL_Kinases

>  <Ligand_Instance>  (505) 
nan

>  <PDB_ID>  (505) 
nan

>  <Standardized_SMILES>  (505) 
O=C(CNC(=O)c1ccc(-c2cnco2)cc1)NC1CCCc2ccccc21

>  <Name>  (505) 
nan

>  <Pocket>  (505) 
nan

>  <ATP_Site>  (505) 
nan

>  <Peripheral>  (505) 
nan

>  <Num_H_Atoms_ProtBoundConf>  (505) 
nan

>  <Num_Resolved_Atoms>  (505) 
nan

>  <Num_Not_Resolved_Atoms>  (505) 
nan

$$$$
CHEMBL3718518
     RDKit          3D

  0  0  0  0  0  0  0  0  0  0999 V3000
M  V30 BEGIN CTAB
M  V30 COUNTS 41 44 0 0 0
M  V30 BEGIN ATOM
M  V30 1 O 6.280340 -2.358784 2.280209 0
M  V30 2 C 5.599135 -2.760149 1.276363 0
M  V30 3 O 4.367686 -2.333001 1.789648 0
M  V30 4 C 6.093392 -3.438126 0.046733 0
M  V30 5 S 4.784482 -3.834789 -1.107577 0
M  V30 6 C 4.009684 -2.387389 -1.807533 0
M  V30 7 N 4.242011 -1.634389 -2.896446 0
M  V30 8 N 3.329314 -0.676513 -2.905384 0
M  V30 9 C 2.515499 -0.799985 -1.843213 0
M  V30 10 C 1.407531 0.115684 -1.586454 0
M  V30 11 C 1.065301 1.195471 -2.376894 0
M  V30 12 C -0.014061 2.009786 -2.045035 0
M  V30 13 C -0.768657 1.753027 -0.912581 0
M  V30 14 C -0.417533 0.668605 -0.126931 0
M  V30 15 C -1.213822 0.396422 1.069295 0
M  V30 16 C -0.628985 -0.176572 2.180379 0
M  V30 17 C -1.305666 -0.467313 3.348107 0
M  V30 18 C -2.653017 -0.130859 3.318636 0
M  V30 19 C -3.372499 -0.409564 4.482656 0
M  V30 20 C -4.722354 -0.130296 4.602194 0
M  V30 21 C -5.360212 0.451014 3.502341 0
M  V30 22 C -4.659886 0.736038 2.334078 0
M  V30 23 C -3.306184 0.441621 2.251305 0
M  V30 24 C -2.559984 0.709277 1.099792 0
M  V30 25 C 0.643071 -0.126634 -0.458390 0
M  V30 26 N 2.943421 -1.877001 -1.151643 0
M  V30 27 H 3.873311 -2.874580 2.486658 0
M  V30 28 H 6.548857 -4.393227 0.379000 0
M  V30 29 H 6.868080 -2.766020 -0.394997 0
M  V30 30 H 1.694876 1.349836 -3.256374 0
M  V30 31 H -0.207625 2.836177 -2.726746 0
M  V30 32 H -1.605436 2.423487 -0.697943 0
M  V30 33 H 0.441373 -0.412044 2.121935 0
M  V30 34 H -0.842902 -0.916388 4.215533 0
M  V30 35 H -2.884622 -0.857920 5.333889 0
M  V30 36 H -5.269547 -0.351311 5.511041 0
M  V30 37 H -6.431774 0.693283 3.543728 0
M  V30 38 H -5.164438 1.189157 1.480900 0
M  V30 39 H -3.053282 1.155658 0.257710 0
M  V30 40 H 0.854176 -0.948054 0.198759 0
M  V30 41 H 2.433779 -2.159684 -0.261665 0
M  V30 END ATOM
M  V30 BEGIN BOND
M  V30 1 2 1 2
M  V30 2 1 2 3
M  V30 3 1 2 4
M  V30 4 1 4 5
M  V30 5 1 5 6
M  V30 6 2 6 7
M  V30 7 1 7 8
M  V30 8 2 8 9
M  V30 9 1 9 10
M  V30 10 2 10 11
M  V30 11 1 11 12
M  V30 12 2 12 13
M  V30 13 1 13 14
M  V30 14 1 14 15
M  V30 15 2 15 16
M  V30 16 1 16 17
M  V30 17 2 17 18
M  V30 18 1 18 19
M  V30 19 2 19 20
M  V30 20 1 20 21
M  V30 21 2 21 22
M  V30 22 1 22 23
M  V30 23 2 23 24
M  V30 24 2 14 25
M  V30 25 1 9 26
M  V30 26 1 26 6
M  V30 27 1 25 10
M  V30 28 1 24 15
M  V30 29 1 23 18
M  V30 30 1 3 27
M  V30 31 1 4 28
M  V30 32 1 4 29
M  V30 33 1 11 30
M  V30 34 1 12 31
M  V30 35 1 13 32
M  V30 36 1 16 33
M  V30 37 1 17 34
M  V30 38 1 19 35
M  V30 39 1 20 36
M  V30 40 1 21 37
M  V30 41 1 22 38
M  V30 42 1 24 39
M  V30 43 1 25 40
M  V30 44 1 26 41
M  V30 END BOND
M  V30 END CTAB
M  END
>  <Dataset>  (506) 
ChEMBL_Kinases

>  <Ligand_Instance>  (506) 
nan

>  <PDB_ID>  (506) 
nan

>  <Standardized_SMILES>  (506) 
O=C(O)CSc1nnc(-c2cccc(-c3ccc4ccccc4c3)c2)[nH]1

>  <Name>  (506) 
nan

>  <Pocket>  (506) 
nan

>  <ATP_Site>  (506) 
nan

>  <Peripheral>  (506) 
nan

>  <Num_H_Atoms_ProtBoundConf>  (506) 
nan

>  <Num_Resolved_Atoms>  (506) 
nan

>  <Num_Not_Resolved_Atoms>  (506) 
nan

$$$$
CHEMBL3718499
     RDKit          3D

  0  0  0  0  0  0  0  0  0  0999 V3000
M  V30 BEGIN CTAB
M  V30 COUNTS 56 59 0 0 0
M  V30 BEGIN ATOM
M  V30 1 O -2.171860 -5.371235 1.638469 0
M  V30 2 C -1.767533 -4.158351 1.581753 0
M  V30 3 C -0.847841 -3.926564 2.712742 0
M  V30 4 N -0.290374 -2.614188 2.766712 0
M  V30 5 C 0.532959 -2.082473 1.736961 0
M  V30 6 O 0.798396 -2.791479 0.723619 0
M  V30 7 C 1.116979 -0.746217 1.748862 0
M  V30 8 C 1.902159 -0.351968 0.686187 0
M  V30 9 C 2.493618 0.893332 0.614280 0
M  V30 10 C 2.326129 1.822012 1.619157 0
M  V30 11 N 2.892707 3.126277 1.640389 0
M  V30 12 C 2.721724 4.151987 2.649562 0
M  V30 13 C 4.029940 4.651888 3.213941 0
M  V30 14 O 4.897649 4.981857 2.207325 0
M  V30 15 C 5.120579 3.894388 1.350918 0
M  V30 16 C 3.772718 3.697127 0.638644 0
M  V30 17 C 1.544024 1.444406 2.689268 0
M  V30 18 C 0.957978 0.192921 2.746971 0
M  V30 19 N -2.253353 -3.348299 0.521300 0
M  V30 20 C -3.170574 -3.887906 -0.459802 0
M  V30 21 C -4.500622 -3.166632 -0.272156 0
M  V30 22 C -4.384790 -1.746522 -0.790115 0
M  V30 23 C -4.363365 -1.844445 -2.303327 0
M  V30 24 C -3.236596 -2.745804 -2.676816 0
M  V30 25 C -2.771999 -2.557770 -3.980484 0
M  V30 26 C -1.729056 -3.352928 -4.406391 0
M  V30 27 C -1.155697 -4.305720 -3.581208 0
M  V30 28 C -1.621967 -4.491265 -2.279389 0
M  V30 29 C -2.664621 -3.703396 -1.839012 0
M  V30 30 H -0.043535 -4.720614 2.737534 0
M  V30 31 H -1.445683 -4.116261 3.651178 0
M  V30 32 H -0.479976 -1.996787 3.587625 0
M  V30 33 H 2.096696 -1.008518 -0.156524 0
M  V30 34 H 3.098620 1.157193 -0.235649 0
M  V30 35 H 2.246501 5.037278 2.130808 0
M  V30 36 H 2.000332 3.894229 3.442812 0
M  V30 37 H 3.779307 5.593287 3.760691 0
M  V30 38 H 4.493384 3.976495 3.937807 0
M  V30 39 H 5.938970 4.077277 0.656876 0
M  V30 40 H 5.253379 2.984381 1.980226 0
M  V30 41 H 3.935842 2.970901 -0.158449 0
M  V30 42 H 3.433501 4.686348 0.263553 0
M  V30 43 H 1.305802 2.019960 3.546896 0
M  V30 44 H 0.331062 -0.143472 3.578687 0
M  V30 45 H -1.864618 -2.385163 0.587206 0
M  V30 46 H -3.345537 -4.945769 -0.181181 0
M  V30 47 H -5.328893 -3.655148 -0.812988 0
M  V30 48 H -4.702325 -3.124687 0.818823 0
M  V30 49 H -3.415423 -1.283597 -0.484936 0
M  V30 50 H -5.255903 -1.157806 -0.431005 0
M  V30 51 H -5.339013 -2.264828 -2.653243 0
M  V30 52 H -4.193385 -0.827411 -2.760373 0
M  V30 53 H -3.191686 -1.824096 -4.658586 0
M  V30 54 H -1.315346 -3.260630 -5.412804 0
M  V30 55 H -0.335511 -4.926877 -3.924730 0
M  V30 56 H -1.210367 -5.224581 -1.585766 0
M  V30 END ATOM
M  V30 BEGIN BOND
M  V30 1 2 1 2
M  V30 2 1 2 3
M  V30 3 1 3 4
M  V30 4 1 4 5
M  V30 5 2 5 6
M  V30 6 1 5 7
M  V30 7 2 7 8
M  V30 8 1 8 9
M  V30 9 2 9 10
M  V30 10 1 10 11
M  V30 11 1 11 12
M  V30 12 1 12 13
M  V30 13 1 13 14
M  V30 14 1 14 15
M  V30 15 1 15 16
M  V30 16 1 10 17
M  V30 17 2 17 18
M  V30 18 1 2 19
M  V30 19 1 19 20
M  V30 20 1 20 21
M  V30 21 1 21 22
M  V30 22 1 22 23
M  V30 23 1 23 24
M  V30 24 2 24 25
M  V30 25 1 25 26
M  V30 26 2 26 27
M  V30 27 1 27 28
M  V30 28 2 28 29
M  V30 29 1 18 7
M  V30 30 1 29 20
M  V30 31 1 16 11
M  V30 32 1 29 24
M  V30 33 1 3 30
M  V30 34 1 3 31
M  V30 35 1 4 32
M  V30 36 1 8 33
M  V30 37 1 9 34
M  V30 38 1 12 35
M  V30 39 1 12 36
M  V30 40 1 13 37
M  V30 41 1 13 38
M  V30 42 1 15 39
M  V30 43 1 15 40
M  V30 44 1 16 41
M  V30 45 1 16 42
M  V30 46 1 17 43
M  V30 47 1 18 44
M  V30 48 1 19 45
M  V30 49 1 20 46
M  V30 50 1 21 47
M  V30 51 1 21 48
M  V30 52 1 22 49
M  V30 53 1 22 50
M  V30 54 1 23 51
M  V30 55 1 23 52
M  V30 56 1 25 53
M  V30 57 1 26 54
M  V30 58 1 27 55
M  V30 59 1 28 56
M  V30 END BOND
M  V30 END CTAB
M  END
>  <Dataset>  (507) 
ChEMBL_Kinases

>  <Ligand_Instance>  (507) 
nan

>  <PDB_ID>  (507) 
nan

>  <Standardized_SMILES>  (507) 
O=C(CNC(=O)c1ccc(N2CCOCC2)cc1)NC1CCCc2ccccc21

>  <Name>  (507) 
nan

>  <Pocket>  (507) 
nan

>  <ATP_Site>  (507) 
nan

>  <Peripheral>  (507) 
nan

>  <Num_H_Atoms_ProtBoundConf>  (507) 
nan

>  <Num_Resolved_Atoms>  (507) 
nan

>  <Num_Not_Resolved_Atoms>  (507) 
nan

$$$$
CHEMBL566933
     RDKit          3D

  0  0  0  0  0  0  0  0  0  0999 V3000
M  V30 BEGIN CTAB
M  V30 COUNTS 27 27 0 0 0
M  V30 BEGIN ATOM
M  V30 1 C -1.841966 -0.925470 4.489348 0
M  V30 2 C -0.773545 -0.649023 3.485491 0
M  V30 3 C -0.676965 0.571767 2.848858 0
M  V30 4 C 0.338153 0.754997 1.931278 0
M  V30 5 C 1.204446 -0.304207 1.703287 0
M  V30 6 N 2.244960 -0.096114 0.753612 0
M  V30 7 C 1.898502 -0.434019 -0.565106 0
M  V30 8 O 0.846150 -0.894330 -1.126648 0
M  V30 9 C 2.448459 -0.464441 -1.919286 0
M  V30 10 S 1.131237 -1.110025 -3.019440 0
M  V30 11 C -0.223314 0.078924 -3.072047 0
M  V30 12 N -1.223583 -0.487419 -3.944025 0
M  V30 13 O -0.751477 1.173944 -2.728414 0
M  V30 14 C 1.113077 -1.528092 2.337232 0
M  V30 15 C 0.099316 -1.719287 3.257071 0
M  V30 16 Cl -0.047904 -3.245162 4.075382 0
M  V30 17 H -2.418534 -0.022357 4.759432 0
M  V30 18 H -2.587572 -1.658777 4.063752 0
M  V30 19 H -1.375868 -1.427810 5.353075 0
M  V30 20 H -1.404338 1.359203 3.085971 0
M  V30 21 H 0.436119 1.705898 1.417223 0
M  V30 22 H 3.248701 0.235430 0.644817 0
M  V30 23 H 3.313696 -1.141524 -2.039391 0
M  V30 24 H 2.728160 0.525619 -2.337188 0
M  V30 25 H -1.776362 -1.258835 -3.473480 0
M  V30 26 H -1.926657 -0.853843 -4.622641 0
M  V30 27 H 1.822768 -2.329409 2.120073 0
M  V30 END ATOM
M  V30 BEGIN BOND
M  V30 1 1 1 2
M  V30 2 2 2 3
M  V30 3 1 3 4
M  V30 4 2 4 5
M  V30 5 1 5 6
M  V30 6 1 6 7
M  V30 7 2 7 8
M  V30 8 1 7 9
M  V30 9 1 9 10
M  V30 10 1 10 11
M  V30 11 1 11 12
M  V30 12 2 11 13
M  V30 13 1 5 14
M  V30 14 2 14 15
M  V30 15 1 15 16
M  V30 16 1 15 2
M  V30 17 1 1 17
M  V30 18 1 1 18
M  V30 19 1 1 19
M  V30 20 1 3 20
M  V30 21 1 4 21
M  V30 22 1 6 22
M  V30 23 1 9 23
M  V30 24 1 9 24
M  V30 25 1 12 25
M  V30 26 1 12 26
M  V30 27 1 14 27
M  V30 END BOND
M  V30 END CTAB
M  END
>  <Dataset>  (508) 
ChEMBL_Kinases

>  <Ligand_Instance>  (508) 
nan

>  <PDB_ID>  (508) 
nan

>  <Standardized_SMILES>  (508) 
Cc1ccc(NC(=O)CSC(N)=O)cc1Cl

>  <Name>  (508) 
nan

>  <Pocket>  (508) 
nan

>  <ATP_Site>  (508) 
nan

>  <Peripheral>  (508) 
nan

>  <Num_H_Atoms_ProtBoundConf>  (508) 
nan

>  <Num_Resolved_Atoms>  (508) 
nan

>  <Num_Not_Resolved_Atoms>  (508) 
nan

$$$$
CHEMBL3718494
     RDKit          3D

  0  0  0  0  0  0  0  0  0  0999 V3000
M  V30 BEGIN CTAB
M  V30 COUNTS 25 26 0 0 0
M  V30 BEGIN ATOM
M  V30 1 O -1.622948 -4.597612 4.603766 0
M  V30 2 C -1.136660 -4.647046 3.440952 0
M  V30 3 O -1.749109 -5.862923 3.684987 0
M  V30 4 C -0.473716 -3.366135 3.143181 0
M  V30 5 S 0.235420 -3.427360 1.456640 0
M  V30 6 C 1.046516 -1.883287 1.070104 0
M  V30 7 N 2.350581 -1.544681 1.291537 0
M  V30 8 N 2.493624 -0.303608 0.842453 0
M  V30 9 C 1.317000 0.130887 0.351690 0
M  V30 10 C 1.047590 1.439454 -0.236107 0
M  V30 11 C -0.221825 1.724276 -0.693302 0
M  V30 12 C -0.479625 2.978169 -1.256478 0
M  V30 13 C 0.541925 3.922638 -1.350087 0
M  V30 14 C 1.808585 3.630618 -0.890809 0
M  V30 15 F 2.821854 4.536614 -0.971533 0
M  V30 16 C 2.049858 2.389154 -0.337012 0
M  V30 17 F 3.309444 2.124705 0.109502 0
M  V30 18 N 0.392242 -0.839685 0.481869 0
M  V30 19 H -1.957812 -6.503156 2.906122 0
M  V30 20 H 0.297661 -3.106399 3.898417 0
M  V30 21 H -1.218228 -2.549336 3.139793 0
M  V30 22 H -1.043631 1.013230 -0.637172 0
M  V30 23 H -1.471577 3.238207 -1.628486 0
M  V30 24 H 0.362532 4.916257 -1.789590 0
M  V30 25 H -0.614254 -0.817620 0.199526 0
M  V30 END ATOM
M  V30 BEGIN BOND
M  V30 1 2 1 2
M  V30 2 1 2 3
M  V30 3 1 2 4
M  V30 4 1 4 5
M  V30 5 1 5 6
M  V30 6 2 6 7
M  V30 7 1 7 8
M  V30 8 2 8 9
M  V30 9 1 9 10
M  V30 10 2 10 11
M  V30 11 1 11 12
M  V30 12 2 12 13
M  V30 13 1 13 14
M  V30 14 1 14 15
M  V30 15 2 14 16
M  V30 16 1 16 17
M  V30 17 1 9 18
M  V30 18 1 18 6
M  V30 19 1 16 10
M  V30 20 1 3 19
M  V30 21 1 4 20
M  V30 22 1 4 21
M  V30 23 1 11 22
M  V30 24 1 12 23
M  V30 25 1 13 24
M  V30 26 1 18 25
M  V30 END BOND
M  V30 END CTAB
M  END
>  <Dataset>  (509) 
ChEMBL_Kinases

>  <Ligand_Instance>  (509) 
nan

>  <PDB_ID>  (509) 
nan

>  <Standardized_SMILES>  (509) 
O=C(O)CSc1nnc(-c2cccc(F)c2F)[nH]1

>  <Name>  (509) 
nan

>  <Pocket>  (509) 
nan

>  <ATP_Site>  (509) 
nan

>  <Peripheral>  (509) 
nan

>  <Num_H_Atoms_ProtBoundConf>  (509) 
nan

>  <Num_Resolved_Atoms>  (509) 
nan

>  <Num_Not_Resolved_Atoms>  (509) 
nan

$$$$
CHEMBL566899
     RDKit          3D

  0  0  0  0  0  0  0  0  0  0999 V3000
M  V30 BEGIN CTAB
M  V30 COUNTS 44 47 0 0 0
M  V30 BEGIN ATOM
M  V30 1 C 0.945845 -5.948287 -2.194251 0
M  V30 2 O 0.739783 -4.659698 -1.667697 0
M  V30 3 C 1.044994 -3.505187 -2.373483 0
M  V30 4 C 1.579229 -3.422178 -3.656550 0
M  V30 5 C 1.821127 -2.177079 -4.207733 0
M  V30 6 C 1.547203 -1.008463 -3.520064 0
M  V30 7 C 1.012395 -1.054189 -2.234662 0
M  V30 8 C 0.716720 0.166454 -1.485719 0
M  V30 9 C 0.330135 1.275497 -2.212060 0
M  V30 10 C 0.057600 2.418220 -1.487307 0
M  V30 11 C 0.156499 2.481253 -0.115004 0
M  V30 12 N -0.117892 3.621088 0.562761 0
M  V30 13 C -0.010919 3.655002 1.920388 0
M  V30 14 N 0.366957 2.559923 2.595275 0
M  V30 15 C 0.653890 1.398593 1.988448 0
M  V30 16 N 1.050410 0.273716 2.733871 0
M  V30 17 C 1.199986 0.182994 4.166399 0
M  V30 18 C -0.083655 0.413829 4.845623 0
M  V30 19 C -0.661940 1.536129 5.389680 0
M  V30 20 C -1.910833 1.497518 5.969072 0
M  V30 21 C -2.609389 0.300244 6.009248 0
M  V30 22 N -2.078487 -0.840235 5.483650 0
M  V30 23 C -0.841482 -0.763275 4.918947 0
M  V30 24 C 0.542113 1.376422 0.614570 0
M  V30 25 C 0.812633 0.240294 -0.109406 0
M  V30 26 C 0.786184 -2.315807 -1.721736 0
M  V30 27 H 0.864536 -5.980334 -3.280910 0
M  V30 28 H 0.148276 -6.588387 -1.719508 0
M  V30 29 H 1.910523 -6.404173 -1.836763 0
M  V30 30 H 1.770007 -4.370545 -4.139073 0
M  V30 31 H 2.240788 -2.157289 -5.218093 0
M  V30 32 H 1.740324 -0.041878 -3.961675 0
M  V30 33 H 0.234065 1.291347 -3.284779 0
M  V30 34 H -0.251912 3.339187 -1.958867 0
M  V30 35 H -0.220553 4.540336 2.491093 0
M  V30 36 H 1.282641 -0.640244 2.293348 0
M  V30 37 H 1.930494 1.002701 4.437209 0
M  V30 38 H 1.655284 -0.753119 4.522098 0
M  V30 39 H -0.027848 2.402051 5.309922 0
M  V30 40 H -2.282056 2.427828 6.369026 0
M  V30 41 H -3.583259 0.282751 6.463676 0
M  V30 42 H -0.549509 -1.744622 4.543949 0
M  V30 43 H 1.119631 -0.676354 0.348922 0
M  V30 44 H 0.367351 -2.302853 -0.714247 0
M  V30 END ATOM
M  V30 BEGIN BOND
M  V30 1 1 1 2
M  V30 2 1 2 3
M  V30 3 2 3 4
M  V30 4 1 4 5
M  V30 5 2 5 6
M  V30 6 1 6 7
M  V30 7 1 7 8
M  V30 8 2 8 9
M  V30 9 1 9 10
M  V30 10 2 10 11
M  V30 11 1 11 12
M  V30 12 2 12 13
M  V30 13 1 13 14
M  V30 14 2 14 15
M  V30 15 1 15 16
M  V30 16 1 16 17
M  V30 17 1 17 18
M  V30 18 2 18 19
M  V30 19 1 19 20
M  V30 20 2 20 21
M  V30 21 1 21 22
M  V30 22 2 22 23
M  V30 23 1 15 24
M  V30 24 2 24 25
M  V30 25 2 7 26
M  V30 26 1 26 3
M  V30 27 1 25 8
M  V30 28 1 24 11
M  V30 29 1 23 18
M  V30 30 1 1 27
M  V30 31 1 1 28
M  V30 32 1 1 29
M  V30 33 1 4 30
M  V30 34 1 5 31
M  V30 35 1 6 32
M  V30 36 1 9 33
M  V30 37 1 10 34
M  V30 38 1 13 35
M  V30 39 1 16 36
M  V30 40 1 17 37
M  V30 41 1 17 38
M  V30 42 1 19 39
M  V30 43 1 20 40
M  V30 44 1 21 41
M  V30 45 1 23 42
M  V30 46 1 25 43
M  V30 47 1 26 44
M  V30 END BOND
M  V30 END CTAB
M  END
>  <Dataset>  (510) 
ChEMBL_Kinases

>  <Ligand_Instance>  (510) 
nan

>  <PDB_ID>  (510) 
nan

>  <Standardized_SMILES>  (510) 
COc1cccc(-c2ccc3ncnc(NCc4cccnc4)c3c2)c1

>  <Name>  (510) 
nan

>  <Pocket>  (510) 
nan

>  <ATP_Site>  (510) 
nan

>  <Peripheral>  (510) 
nan

>  <Num_H_Atoms_ProtBoundConf>  (510) 
nan

>  <Num_Resolved_Atoms>  (510) 
nan

>  <Num_Not_Resolved_Atoms>  (510) 
nan

$$$$
CHEMBL3718989
     RDKit          3D

  0  0  0  0  0  0  0  0  0  0999 V3000
M  V30 BEGIN CTAB
M  V30 COUNTS 45 48 0 0 0
M  V30 BEGIN ATOM
M  V30 1 C -2.959468 -7.345579 1.787159 0
M  V30 2 O -3.036354 -5.956158 1.612157 0
M  V30 3 C -1.925080 -5.237000 1.212395 0
M  V30 4 C -0.661128 -5.700723 0.937300 0
M  V30 5 C 0.349563 -4.859266 0.548390 0
M  V30 6 C 0.089324 -3.501208 0.428877 0
M  V30 7 C 1.129646 -2.683809 0.035830 0
M  V30 8 C 0.907894 -1.327999 -0.093141 0
M  V30 9 C 1.933341 -0.339501 -0.506549 0
M  V30 10 C 2.955637 -0.651382 -1.381406 0
M  V30 11 C 3.871097 0.329015 -1.717768 0
M  V30 12 C 3.804384 1.627088 -1.207135 0
M  V30 13 C 2.776739 1.945688 -0.325823 0
M  V30 14 C 2.596722 3.280013 0.280897 0
M  V30 15 N 3.401376 4.349377 0.054999 0
M  V30 16 N 2.933865 5.384565 0.770799 0
M  V30 17 C 1.847268 4.941984 1.429258 0
M  V30 18 S 0.817201 5.917307 2.548367 0
M  V30 19 C -0.520646 4.913769 3.197342 0
M  V30 20 C -1.485205 4.506283 2.142018 0
M  V30 21 O -1.274187 4.889373 0.945021 0
M  V30 22 O -2.583163 3.726857 2.472663 0
M  V30 23 N 1.617185 3.649009 1.145613 0
M  V30 24 C 1.882875 0.948047 -0.011622 0
M  V30 25 C -0.363138 -0.806799 0.175480 0
M  V30 26 C -1.393025 -1.651328 0.569419 0
M  V30 27 C -1.177970 -3.014166 0.701331 0
M  V30 28 C -2.195034 -3.886091 1.096282 0
M  V30 29 H -1.973529 -7.701824 2.147186 0
M  V30 30 H -3.217557 -7.932452 0.865402 0
M  V30 31 H -3.689812 -7.712257 2.555699 0
M  V30 32 H -0.533842 -6.757151 1.050591 0
M  V30 33 H 1.336743 -5.273319 0.341240 0
M  V30 34 H 2.136396 -3.030871 -0.186486 0
M  V30 35 H 3.019729 -1.649512 -1.783783 0
M  V30 36 H 4.689956 0.120652 -2.403944 0
M  V30 37 H 4.506769 2.401960 -1.457226 0
M  V30 38 H -0.181359 4.015649 3.744730 0
M  V30 39 H -1.110502 5.555121 3.895346 0
M  V30 40 H -3.213476 3.368952 1.738030 0
M  V30 41 H 0.849777 3.066145 1.514830 0
M  V30 42 H 1.077116 1.162343 0.666380 0
M  V30 43 H -0.653396 0.234330 0.108313 0
M  V30 44 H -2.400172 -1.275391 0.787446 0
M  V30 45 H -3.153726 -3.412742 1.288240 0
M  V30 END ATOM
M  V30 BEGIN BOND
M  V30 1 1 1 2
M  V30 2 1 2 3
M  V30 3 2 3 4
M  V30 4 1 4 5
M  V30 5 2 5 6
M  V30 6 1 6 7
M  V30 7 2 7 8
M  V30 8 1 8 9
M  V30 9 2 9 10
M  V30 10 1 10 11
M  V30 11 2 11 12
M  V30 12 1 12 13
M  V30 13 1 13 14
M  V30 14 2 14 15
M  V30 15 1 15 16
M  V30 16 2 16 17
M  V30 17 1 17 18
M  V30 18 1 18 19
M  V30 19 1 19 20
M  V30 20 2 20 21
M  V30 21 1 20 22
M  V30 22 1 17 23
M  V30 23 2 13 24
M  V30 24 1 8 25
M  V30 25 2 25 26
M  V30 26 1 26 27
M  V30 27 2 27 28
M  V30 28 1 28 3
M  V30 29 1 27 6
M  V30 30 1 24 9
M  V30 31 1 23 14
M  V30 32 1 1 29
M  V30 33 1 1 30
M  V30 34 1 1 31
M  V30 35 1 4 32
M  V30 36 1 5 33
M  V30 37 1 7 34
M  V30 38 1 10 35
M  V30 39 1 11 36
M  V30 40 1 12 37
M  V30 41 1 19 38
M  V30 42 1 19 39
M  V30 43 1 22 40
M  V30 44 1 23 41
M  V30 45 1 24 42
M  V30 46 1 25 43
M  V30 47 1 26 44
M  V30 48 1 28 45
M  V30 END BOND
M  V30 END CTAB
M  END
>  <Dataset>  (511) 
ChEMBL_Kinases

>  <Ligand_Instance>  (511) 
nan

>  <PDB_ID>  (511) 
nan

>  <Standardized_SMILES>  (511) 
COc1ccc2cc(-c3cccc(-c4nnc(SCC(=O)O)[nH]4)c3)ccc2c1

>  <Name>  (511) 
nan

>  <Pocket>  (511) 
nan

>  <ATP_Site>  (511) 
nan

>  <Peripheral>  (511) 
nan

>  <Num_H_Atoms_ProtBoundConf>  (511) 
nan

>  <Num_Resolved_Atoms>  (511) 
nan

>  <Num_Not_Resolved_Atoms>  (511) 
nan

$$$$
CHEMBL566687
     RDKit          3D

  0  0  0  0  0  0  0  0  0  0999 V3000
M  V30 BEGIN CTAB
M  V30 COUNTS 44 48 0 0 0
M  V30 BEGIN ATOM
M  V30 1 C 1.361251 -6.295187 -0.851960 0
M  V30 2 C 0.610805 -6.866085 0.201877 0
M  V30 3 S -0.816809 -5.785750 0.343644 0
M  V30 4 C -0.337602 -4.655249 -0.988254 0
M  V30 5 C -1.043530 -3.455711 -1.488360 0
M  V30 6 N -0.697324 -2.177659 -0.864949 0
M  V30 7 C -1.595133 -1.285179 -1.569119 0
M  V30 8 N -2.518843 -1.468263 -2.520311 0
M  V30 9 C -3.243751 -0.467063 -3.025167 0
M  V30 10 N -3.022150 0.745752 -2.550097 0
M  V30 11 C -2.126021 1.059714 -1.598940 0
M  V30 12 C -2.066292 2.395571 -1.262983 0
M  V30 13 C -1.121957 2.695638 -0.273209 0
M  V30 14 C -0.340969 1.707611 0.289406 0
M  V30 15 C 0.651156 2.015744 1.316983 0
M  V30 16 C 1.331498 3.242586 1.330538 0
M  V30 17 C 2.237797 3.410726 2.341317 0
M  V30 18 C 2.543959 2.505998 3.333140 0
M  V30 19 C 1.849439 1.310670 3.280585 0
M  V30 20 C 0.909865 1.046531 2.294074 0
M  V30 21 O 2.190877 0.418554 4.308008 0
M  V30 22 C 2.664268 0.944854 5.537468 0
M  V30 23 C 3.868501 1.807738 5.229921 0
M  V30 24 O 3.481820 2.795112 4.300211 0
M  V30 25 C -0.469389 0.395562 -0.108794 0
M  V30 26 C -1.386659 0.015010 -1.089038 0
M  V30 27 C 0.868482 -5.173378 -1.447429 0
M  V30 28 H 2.276095 -6.809802 -1.095084 0
M  V30 29 H 0.774227 -7.708772 0.806599 0
M  V30 30 H -2.126460 -3.653884 -1.284032 0
M  V30 31 H -0.920028 -3.406055 -2.608139 0
M  V30 32 H -0.106591 -2.769594 -0.402677 0
M  V30 33 H -3.943169 -0.773274 -3.780134 0
M  V30 34 H -2.703711 3.128760 -1.737234 0
M  V30 35 H -1.039059 3.729600 0.021239 0
M  V30 36 H 1.115949 3.975735 0.564739 0
M  V30 37 H 2.743422 4.366842 2.319533 0
M  V30 38 H 0.403517 0.085514 2.319276 0
M  V30 39 H 2.890000 0.150568 6.250394 0
M  V30 40 H 1.872496 1.650089 5.905986 0
M  V30 41 H 4.123098 2.343406 6.189697 0
M  V30 42 H 4.728943 1.210537 4.876014 0
M  V30 43 H 0.130397 -0.381913 0.320373 0
M  V30 44 H 1.395471 -4.692424 -2.257522 0
M  V30 END ATOM
M  V30 BEGIN BOND
M  V30 1 2 1 2
M  V30 2 1 2 3
M  V30 3 1 3 4
M  V30 4 1 4 5
M  V30 5 1 5 6
M  V30 6 1 6 7
M  V30 7 2 7 8
M  V30 8 1 8 9
M  V30 9 2 9 10
M  V30 10 1 10 11
M  V30 11 2 11 12
M  V30 12 1 12 13
M  V30 13 2 13 14
M  V30 14 1 14 15
M  V30 15 2 15 16
M  V30 16 1 16 17
M  V30 17 2 17 18
M  V30 18 1 18 19
M  V30 19 2 19 20
M  V30 20 1 19 21
M  V30 21 1 21 22
M  V30 22 1 22 23
M  V30 23 1 23 24
M  V30 24 1 14 25
M  V30 25 2 25 26
M  V30 26 2 4 27
M  V30 27 1 27 1
M  V30 28 1 26 7
M  V30 29 1 26 11
M  V30 30 1 20 15
M  V30 31 1 24 18
M  V30 32 1 1 28
M  V30 33 1 2 29
M  V30 34 1 5 30
M  V30 35 1 5 31
M  V30 36 1 6 32
M  V30 37 1 9 33
M  V30 38 1 12 34
M  V30 39 1 13 35
M  V30 40 1 16 36
M  V30 41 1 17 37
M  V30 42 1 20 38
M  V30 43 1 22 39
M  V30 44 1 22 40
M  V30 45 1 23 41
M  V30 46 1 23 42
M  V30 47 1 25 43
M  V30 48 1 27 44
M  V30 END BOND
M  V30 END CTAB
M  END
>  <Dataset>  (512) 
ChEMBL_Kinases

>  <Ligand_Instance>  (512) 
nan

>  <PDB_ID>  (512) 
nan

>  <Standardized_SMILES>  (512) 
c1csc(CNc2ncnc3ccc(-c4ccc5c(c4)OCCO5)cc23)c1

>  <Name>  (512) 
nan

>  <Pocket>  (512) 
nan

>  <ATP_Site>  (512) 
nan

>  <Peripheral>  (512) 
nan

>  <Num_H_Atoms_ProtBoundConf>  (512) 
nan

>  <Num_Resolved_Atoms>  (512) 
nan

>  <Num_Not_Resolved_Atoms>  (512) 
nan

$$$$
CHEMBL566701
     RDKit          3D

  0  0  0  0  0  0  0  0  0  0999 V3000
M  V30 BEGIN CTAB
M  V30 COUNTS 43 47 0 0 0
M  V30 BEGIN ATOM
M  V30 1 C 4.064494 -4.580282 0.432132 0
M  V30 2 C 3.251541 -5.439681 -0.291845 0
M  V30 3 N 2.462969 -4.993038 -1.278882 0
M  V30 4 C 2.388194 -3.696172 -1.651656 0
M  V30 5 C 3.192139 -2.791007 -0.948053 0
M  V30 6 C 3.081048 -1.387202 -1.386049 0
M  V30 7 N 2.036778 -0.659300 -0.670000 0
M  V30 8 C 1.819069 0.701390 -1.006012 0
M  V30 9 N 2.536429 1.299174 -1.943628 0
M  V30 10 C 2.363615 2.583748 -2.295690 0
M  V30 11 N 1.428853 3.355381 -1.701329 0
M  V30 12 C 0.654132 2.826249 -0.735924 0
M  V30 13 C -0.317961 3.560558 -0.089536 0
M  V30 14 C -1.124147 3.016369 0.913432 0
M  V30 15 C -0.920703 1.676058 1.258498 0
M  V30 16 C -1.731559 1.025228 2.312488 0
M  V30 17 C -2.230842 1.695566 3.410871 0
M  V30 18 C -2.982037 0.974613 4.342029 0
M  V30 19 C -3.215920 -0.392363 4.155216 0
M  V30 20 C -2.707605 -1.051537 3.046590 0
M  V30 21 C -1.966415 -0.328124 2.132936 0
M  V30 22 O -3.119873 -2.373910 3.171428 0
M  V30 23 C -3.515494 -2.639876 4.509264 0
M  V30 24 O -3.922074 -1.328598 4.922548 0
M  V30 25 C 0.067103 0.984850 0.579362 0
M  V30 26 C 0.864643 1.492512 -0.400476 0
M  V30 27 C 4.006622 -3.238651 0.068524 0
M  V30 28 H 4.700016 -4.941815 1.227231 0
M  V30 29 H 3.224631 -6.512725 -0.082855 0
M  V30 30 H 1.715118 -3.435147 -2.467172 0
M  V30 31 H 4.054535 -0.845765 -1.293884 0
M  V30 32 H 2.804817 -1.320904 -2.460388 0
M  V30 33 H 1.533696 -1.224713 0.042801 0
M  V30 34 H 2.987487 3.021177 -3.077463 0
M  V30 35 H -0.443529 4.599946 -0.388805 0
M  V30 36 H -1.885307 3.596332 1.417512 0
M  V30 37 H -2.018937 2.755386 3.505719 0
M  V30 38 H -3.376964 1.487995 5.203728 0
M  V30 39 H -1.618892 -0.939818 1.307425 0
M  V30 40 H -2.607046 -2.981545 5.049895 0
M  V30 41 H -4.338907 -3.375346 4.559631 0
M  V30 42 H 0.166933 -0.042355 0.897563 0
M  V30 43 H 4.614321 -2.512040 0.591615 0
M  V30 END ATOM
M  V30 BEGIN BOND
M  V30 1 2 1 2
M  V30 2 1 2 3
M  V30 3 2 3 4
M  V30 4 1 4 5
M  V30 5 1 5 6
M  V30 6 1 6 7
M  V30 7 1 7 8
M  V30 8 2 8 9
M  V30 9 1 9 10
M  V30 10 2 10 11
M  V30 11 1 11 12
M  V30 12 2 12 13
M  V30 13 1 13 14
M  V30 14 2 14 15
M  V30 15 1 15 16
M  V30 16 2 16 17
M  V30 17 1 17 18
M  V30 18 2 18 19
M  V30 19 1 19 20
M  V30 20 2 20 21
M  V30 21 1 20 22
M  V30 22 1 22 23
M  V30 23 1 23 24
M  V30 24 1 15 25
M  V30 25 2 25 26
M  V30 26 2 5 27
M  V30 27 1 27 1
M  V30 28 1 26 8
M  V30 29 1 26 12
M  V30 30 1 21 16
M  V30 31 1 24 19
M  V30 32 1 1 28
M  V30 33 1 2 29
M  V30 34 1 4 30
M  V30 35 1 6 31
M  V30 36 1 6 32
M  V30 37 1 7 33
M  V30 38 1 10 34
M  V30 39 1 13 35
M  V30 40 1 14 36
M  V30 41 1 17 37
M  V30 42 1 18 38
M  V30 43 1 21 39
M  V30 44 1 23 40
M  V30 45 1 23 41
M  V30 46 1 25 42
M  V30 47 1 27 43
M  V30 END BOND
M  V30 END CTAB
M  END
>  <Dataset>  (513) 
ChEMBL_Kinases

>  <Ligand_Instance>  (513) 
nan

>  <PDB_ID>  (513) 
nan

>  <Standardized_SMILES>  (513) 
c1cncc(CNc2ncnc3ccc(-c4ccc5c(c4)OCO5)cc23)c1

>  <Name>  (513) 
nan

>  <Pocket>  (513) 
nan

>  <ATP_Site>  (513) 
nan

>  <Peripheral>  (513) 
nan

>  <Num_H_Atoms_ProtBoundConf>  (513) 
nan

>  <Num_Resolved_Atoms>  (513) 
nan

>  <Num_Not_Resolved_Atoms>  (513) 
nan

$$$$
CHEMBL3718962
     RDKit          3D

  0  0  0  0  0  0  0  0  0  0999 V3000
M  V30 BEGIN CTAB
M  V30 COUNTS 45 48 0 0 0
M  V30 BEGIN ATOM
M  V30 1 C -0.503846 -5.301942 0.491220 0
M  V30 2 N -1.122058 -4.045959 0.172583 0
M  V30 3 C -1.633364 -4.097418 -1.152691 0
M  V30 4 C -1.907177 -2.720142 -1.725500 0
M  V30 5 C -0.722756 -1.820136 -1.628798 0
M  V30 6 C 0.305570 -2.267540 -0.611626 0
M  V30 7 N 1.044435 -1.100024 -0.112398 0
M  V30 8 C 2.426984 -0.824842 -0.036782 0
M  V30 9 O 3.241234 -1.724189 -0.444594 0
M  V30 10 C 2.873706 0.452704 0.487714 0
M  V30 11 C 4.158696 0.936226 0.214074 0
M  V30 12 C 4.583297 2.195193 0.658591 0
M  V30 13 C 3.703186 2.994225 1.399170 0
M  V30 14 O 4.081813 4.246123 1.859686 0
M  V30 15 C 2.432261 2.563990 1.694345 0
M  V30 16 N 1.355852 3.068973 2.363499 0
M  V30 17 C 0.370466 2.193425 2.327682 0
M  V30 18 C -0.999276 2.236287 2.864544 0
M  V30 19 C -1.897160 1.251398 2.810125 0
M  V30 20 C -3.136936 1.436564 3.335864 0
M  V30 21 C -3.417441 2.678046 3.920608 0
M  V30 22 S -1.796175 3.537714 3.659387 0
M  V30 23 N 0.848679 1.159795 1.635654 0
M  V30 24 C 2.101698 1.320035 1.217801 0
M  V30 25 C -0.400795 -2.887246 0.557238 0
M  V30 26 H -1.209773 -6.098824 0.190705 0
M  V30 27 H 0.403680 -5.462730 -0.133643 0
M  V30 28 H -0.288944 -5.409830 1.564647 0
M  V30 29 H -2.628885 -4.616074 -1.116070 0
M  V30 30 H -1.014819 -4.701365 -1.846057 0
M  V30 31 H -2.156892 -2.859155 -2.791115 0
M  V30 32 H -2.819677 -2.307350 -1.254319 0
M  V30 33 H -0.256892 -1.601680 -2.611788 0
M  V30 34 H -1.097342 -0.817084 -1.254990 0
M  V30 35 H 0.974619 -2.992926 -1.110822 0
M  V30 36 H 0.266930 -0.488172 0.186553 0
M  V30 37 H 4.855971 0.309688 -0.372359 0
M  V30 38 H 5.576491 2.561373 0.438494 0
M  V30 39 H 3.576056 4.733843 2.595104 0
M  V30 40 H 1.315491 3.999355 2.834065 0
M  V30 41 H -1.704977 0.266245 2.353979 0
M  V30 42 H -3.976577 0.751005 3.378925 0
M  V30 43 H -4.190339 3.211580 4.413787 0
M  V30 44 H 0.341019 -3.188958 1.337097 0
M  V30 45 H -1.127201 -2.143206 0.960556 0
M  V30 END ATOM
M  V30 BEGIN BOND
M  V30 1 1 1 2
M  V30 2 1 2 3
M  V30 3 1 3 4
M  V30 4 1 4 5
M  V30 5 1 5 6
M  V30 6 1 6 7
M  V30 7 1 7 8
M  V30 8 2 8 9
M  V30 9 1 8 10
M  V30 10 2 10 11
M  V30 11 1 11 12
M  V30 12 2 12 13
M  V30 13 1 13 14
M  V30 14 1 13 15
M  V30 15 1 15 16
M  V30 16 1 16 17
M  V30 17 1 17 18
M  V30 18 2 18 19
M  V30 19 1 19 20
M  V30 20 2 20 21
M  V30 21 1 21 22
M  V30 22 2 17 23
M  V30 23 1 23 24
M  V30 24 1 6 25
M  V30 25 1 25 2
M  V30 26 1 24 10
M  V30 27 2 24 15
M  V30 28 1 22 18
M  V30 29 1 1 26
M  V30 30 1 1 27
M  V30 31 1 1 28
M  V30 32 1 3 29
M  V30 33 1 3 30
M  V30 34 1 4 31
M  V30 35 1 4 32
M  V30 36 1 5 33
M  V30 37 1 5 34
M  V30 38 1 6 35
M  V30 39 1 7 36
M  V30 40 1 11 37
M  V30 41 1 12 38
M  V30 42 1 14 39
M  V30 43 1 16 40
M  V30 44 1 19 41
M  V30 45 1 20 42
M  V30 46 1 21 43
M  V30 47 1 25 44
M  V30 48 1 25 45
M  V30 END BOND
M  V30 END CTAB
M  END
>  <Dataset>  (514) 
ChEMBL_Kinases

>  <Ligand_Instance>  (514) 
nan

>  <PDB_ID>  (514) 
nan

>  <Standardized_SMILES>  (514) 
CN1CCCC(NC(=O)c2ccc(O)c3[nH]c(-c4cccs4)nc23)C1

>  <Name>  (514) 
nan

>  <Pocket>  (514) 
nan

>  <ATP_Site>  (514) 
nan

>  <Peripheral>  (514) 
nan

>  <Num_H_Atoms_ProtBoundConf>  (514) 
nan

>  <Num_Resolved_Atoms>  (514) 
nan

>  <Num_Not_Resolved_Atoms>  (514) 
nan

$$$$
CHEMBL3718956
     RDKit          3D

  0  0  0  0  0  0  0  0  0  0999 V3000
M  V30 BEGIN CTAB
M  V30 COUNTS 54 58 0 0 0
M  V30 BEGIN ATOM
M  V30 1 O 4.202569 1.848284 0.551390 0
M  V30 2 C 2.975519 1.857596 0.691878 0
M  V30 3 N 2.502817 1.552618 2.022928 0
M  V30 4 C 3.381821 1.260078 3.109081 0 CFG=1
M  V30 5 C 3.247663 2.368126 4.130899 0
M  V30 6 C 3.906040 2.034325 5.430243 0
M  V30 7 C 3.337940 0.730408 5.959714 0
M  V30 8 N 2.487897 0.062576 4.977623 0
M  V30 9 C 3.265756 -0.043939 3.751860 0
M  V30 10 C 2.119134 2.162020 -0.449910 0
M  V30 11 C 2.404778 3.300212 -1.176542 0
M  V30 12 C 1.573630 3.565657 -2.262823 0
M  V30 13 N 0.543365 2.747082 -2.581062 0
M  V30 14 C 0.292969 1.642585 -1.847264 0
M  V30 15 N -0.630434 0.633650 -1.887487 0
M  V30 16 C -0.404477 -0.220878 -0.893467 0
M  V30 17 C -1.158670 -1.418525 -0.596863 0
M  V30 18 C -2.342016 -1.954930 -1.296879 0
M  V30 19 C -2.861783 -3.118515 -0.801227 0
M  V30 20 N -3.999906 -3.645245 -1.447078 0
M  V30 21 C -4.732975 -3.096444 -2.549623 0
M  V30 22 C -4.749116 -4.065420 -3.705025 0
M  V30 23 N -4.011255 -5.255164 -3.377601 0
M  V30 24 C -4.499921 -5.893670 -2.182940 0
M  V30 25 C -4.585996 -4.879527 -1.030793 0
M  V30 26 C -2.279898 -3.756813 0.324974 0
M  V30 27 S -0.855203 -2.560277 0.691653 0
M  V30 28 N 0.652355 0.173578 -0.167445 0
M  V30 29 C 1.073163 1.309084 -0.753301 0
M  V30 30 H 1.441391 1.560498 2.132286 0
M  V30 31 H 4.427694 1.359105 2.686267 0
M  V30 32 H 2.143066 2.532860 4.291174 0
M  V30 33 H 3.669204 3.296326 3.684504 0
M  V30 34 H 3.673206 2.875189 6.130806 0
M  V30 35 H 5.003329 1.992340 5.251458 0
M  V30 36 H 4.220675 0.044752 6.094920 0
M  V30 37 H 2.844565 0.865121 6.936803 0
M  V30 38 H 1.634290 0.642993 4.885252 0
M  V30 39 H 4.286927 -0.359520 4.116015 0
M  V30 40 H 2.951593 -0.887452 3.103423 0
M  V30 41 H 3.211021 3.986422 -0.964592 0
M  V30 42 H 1.781591 4.463873 -2.859129 0
M  V30 43 H -2.641395 -1.346988 -2.123248 0
M  V30 44 H -5.792868 -2.907450 -2.199358 0
M  V30 45 H -4.315039 -2.111539 -2.865916 0
M  V30 46 H -4.229906 -3.624037 -4.596666 0
M  V30 47 H -5.790571 -4.294541 -4.044812 0
M  V30 48 H -3.014757 -5.013714 -3.256930 0
M  V30 49 H -5.506124 -6.364165 -2.356339 0
M  V30 50 H -3.763998 -6.666559 -1.865834 0
M  V30 51 H -4.086926 -5.269491 -0.128073 0
M  V30 52 H -5.687855 -4.718103 -0.818763 0
M  V30 53 H -2.479377 -4.613214 0.870358 0
M  V30 54 H 1.055452 -0.304691 0.670178 0
M  V30 END ATOM
M  V30 BEGIN BOND
M  V30 1 2 1 2
M  V30 2 1 2 3
M  V30 3 1 3 4
M  V30 4 1 4 5
M  V30 5 1 5 6
M  V30 6 1 6 7
M  V30 7 1 7 8
M  V30 8 1 8 9
M  V30 9 1 2 10
M  V30 10 2 10 11
M  V30 11 1 11 12
M  V30 12 2 12 13
M  V30 13 1 13 14
M  V30 14 1 14 15
M  V30 15 2 15 16
M  V30 16 1 16 17
M  V30 17 2 17 18
M  V30 18 1 18 19
M  V30 19 1 19 20
M  V30 20 1 20 21
M  V30 21 1 21 22
M  V30 22 1 22 23
M  V30 23 1 23 24
M  V30 24 1 24 25
M  V30 25 2 19 26
M  V30 26 1 26 27
M  V30 27 1 16 28
M  V30 28 1 28 29
M  V30 29 1 9 4
M  V30 30 1 29 10
M  V30 31 2 29 14
M  V30 32 1 27 17
M  V30 33 1 25 20
M  V30 34 1 3 30
M  V30 35 1 4 31 CFG=3
M  V30 36 1 5 32
M  V30 37 1 5 33
M  V30 38 1 6 34
M  V30 39 1 6 35
M  V30 40 1 7 36
M  V30 41 1 7 37
M  V30 42 1 8 38
M  V30 43 1 9 39
M  V30 44 1 9 40
M  V30 45 1 11 41
M  V30 46 1 12 42
M  V30 47 1 18 43
M  V30 48 1 21 44
M  V30 49 1 21 45
M  V30 50 1 22 46
M  V30 51 1 22 47
M  V30 52 1 23 48
M  V30 53 1 24 49
M  V30 54 1 24 50
M  V30 55 1 25 51
M  V30 56 1 25 52
M  V30 57 1 26 53
M  V30 58 1 28 54
M  V30 END BOND
M  V30 END CTAB
M  END
>  <Dataset>  (515) 
ChEMBL_Kinases

>  <Ligand_Instance>  (515) 
nan

>  <PDB_ID>  (515) 
nan

>  <Standardized_SMILES>  (515) 
O=C(N[C@H]1CCCNC1)c1ccnc2nc(-c3cc(N4CCNCC4)cs3)[nH]c12

>  <Name>  (515) 
nan

>  <Pocket>  (515) 
nan

>  <ATP_Site>  (515) 
nan

>  <Peripheral>  (515) 
nan

>  <Num_H_Atoms_ProtBoundConf>  (515) 
nan

>  <Num_Resolved_Atoms>  (515) 
nan

>  <Num_Not_Resolved_Atoms>  (515) 
nan

$$$$
CHEMBL566722
     RDKit          3D

  0  0  0  0  0  0  0  0  0  0999 V3000
M  V30 BEGIN CTAB
M  V30 COUNTS 44 48 0 0 0
M  V30 BEGIN ATOM
M  V30 1 F 7.305014 -0.712252 0.021180 0
M  V30 2 C 6.197845 -1.473694 -0.120598 0
M  V30 3 C 6.099373 -2.749496 0.389618 0
M  V30 4 C 4.912915 -3.463165 0.192815 0
M  V30 5 C 3.903695 -2.833068 -0.509549 0
M  V30 6 C 3.982728 -1.538288 -1.035847 0
M  V30 7 C 2.758620 -1.114413 -1.753776 0
M  V30 8 N 1.748972 -0.542758 -0.883600 0
M  V30 9 C 1.911846 0.632091 -0.107425 0
M  V30 10 N 3.023379 1.343845 -0.101654 0
M  V30 11 C 3.174230 2.454959 0.630749 0
M  V30 12 N 2.184037 2.913423 1.413410 0
M  V30 13 C 1.019571 2.240462 1.459716 0
M  V30 14 C 0.016183 2.726604 2.268808 0
M  V30 15 C -1.193343 2.068145 2.346565 0
M  V30 16 C -1.354037 0.923217 1.594514 0
M  V30 17 C -2.649444 0.244745 1.697773 0
M  V30 18 C -3.293310 0.335201 2.921947 0
M  V30 19 C -4.526489 -0.260435 3.160138 0
M  V30 20 C -5.136778 -0.973391 2.131986 0
M  V30 21 C -4.470973 -1.053104 0.903680 0
M  V30 22 C -3.246166 -0.461586 0.667305 0
M  V30 23 O -5.309703 -1.821533 0.070072 0
M  V30 24 C -6.126721 -2.641860 0.922229 0
M  V30 25 O -6.337683 -1.693768 1.979481 0
M  V30 26 C -0.319544 0.474566 0.798139 0
M  V30 27 C 0.899720 1.108101 0.697861 0
M  V30 28 C 5.170198 -0.877108 -0.816644 0
M  V30 29 H 6.930717 -3.185514 0.932386 0
M  V30 30 H 4.830929 -4.460743 0.589888 0
M  V30 31 H 3.019495 -3.460252 -0.614802 0
M  V30 32 H 3.036625 -0.268759 -2.448284 0
M  V30 33 H 2.398117 -1.959405 -2.366415 0
M  V30 34 H 0.893583 -1.101987 -0.900201 0
M  V30 35 H 4.152753 2.923664 0.521935 0
M  V30 36 H 0.189242 3.635288 2.845197 0
M  V30 37 H -1.936300 2.504468 3.000964 0
M  V30 38 H -2.890092 0.871193 3.779288 0
M  V30 39 H -5.030627 -0.196652 4.099596 0
M  V30 40 H -2.729324 -0.516747 -0.268519 0
M  V30 41 H -5.439112 -3.408916 1.310896 0
M  V30 42 H -7.035376 -2.986018 0.446967 0
M  V30 43 H -0.540047 -0.426017 0.248689 0
M  V30 44 H 5.203165 0.110140 -1.238894 0
M  V30 END ATOM
M  V30 BEGIN BOND
M  V30 1 1 1 2
M  V30 2 2 2 3
M  V30 3 1 3 4
M  V30 4 2 4 5
M  V30 5 1 5 6
M  V30 6 1 6 7
M  V30 7 1 7 8
M  V30 8 1 8 9
M  V30 9 2 9 10
M  V30 10 1 10 11
M  V30 11 2 11 12
M  V30 12 1 12 13
M  V30 13 2 13 14
M  V30 14 1 14 15
M  V30 15 2 15 16
M  V30 16 1 16 17
M  V30 17 2 17 18
M  V30 18 1 18 19
M  V30 19 2 19 20
M  V30 20 1 20 21
M  V30 21 2 21 22
M  V30 22 1 21 23
M  V30 23 1 23 24
M  V30 24 1 24 25
M  V30 25 1 16 26
M  V30 26 2 26 27
M  V30 27 2 6 28
M  V30 28 1 28 2
M  V30 29 1 27 9
M  V30 30 1 27 13
M  V30 31 1 22 17
M  V30 32 1 25 20
M  V30 33 1 3 29
M  V30 34 1 4 30
M  V30 35 1 5 31
M  V30 36 1 7 32
M  V30 37 1 7 33
M  V30 38 1 8 34
M  V30 39 1 11 35
M  V30 40 1 14 36
M  V30 41 1 15 37
M  V30 42 1 18 38
M  V30 43 1 19 39
M  V30 44 1 22 40
M  V30 45 1 24 41
M  V30 46 1 24 42
M  V30 47 1 26 43
M  V30 48 1 28 44
M  V30 END BOND
M  V30 END CTAB
M  END
>  <Dataset>  (516) 
ChEMBL_Kinases

>  <Ligand_Instance>  (516) 
nan

>  <PDB_ID>  (516) 
nan

>  <Standardized_SMILES>  (516) 
Fc1cccc(CNc2ncnc3ccc(-c4ccc5c(c4)OCO5)cc23)c1

>  <Name>  (516) 
nan

>  <Pocket>  (516) 
nan

>  <ATP_Site>  (516) 
nan

>  <Peripheral>  (516) 
nan

>  <Num_H_Atoms_ProtBoundConf>  (516) 
nan

>  <Num_Resolved_Atoms>  (516) 
nan

>  <Num_Not_Resolved_Atoms>  (516) 
nan

$$$$
CHEMBL566834
     RDKit          3D

  0  0  0  0  0  0  0  0  0  0999 V3000
M  V30 BEGIN CTAB
M  V30 COUNTS 56 59 0 0 0
M  V30 BEGIN ATOM
M  V30 1 C 1.541487 -2.215881 2.042675 0
M  V30 2 N 1.765299 -0.795824 1.991785 0
M  V30 3 C 3.006554 -0.354833 1.687629 0
M  V30 4 O 3.999479 -1.071507 1.436645 0
M  V30 5 C 3.264102 0.998858 1.632941 0
M  V30 6 C 4.500374 1.701616 1.309164 0
M  V30 7 C 4.499697 1.903312 -0.079233 0
M  V30 8 Cl 3.252907 1.401052 -1.237591 0
M  V30 9 C 5.546668 2.560478 -0.725566 0
M  V30 10 C 6.589817 3.005942 0.068673 0
M  V30 11 C 6.609970 2.815497 1.451284 0
M  V30 12 C 5.553052 2.159112 2.052622 0
M  V30 13 Cl 5.344381 1.798064 3.749581 0
M  V30 14 C 2.247203 1.927133 1.892562 0
M  V30 15 C 0.979449 1.436715 2.203338 0
M  V30 16 C -0.093231 2.260844 2.467020 0
M  V30 17 N -1.286965 1.710793 2.748321 0
M  V30 18 C -1.486140 0.356604 2.785680 0
M  V30 19 N -2.843292 0.074851 3.099048 0
M  V30 20 C -3.615482 -0.923237 2.428839 0
M  V30 21 C -4.974101 -1.102829 2.719330 0
M  V30 22 C -5.727369 -2.048006 2.058223 0
M  V30 23 C -5.179958 -2.858002 1.084355 0
M  V30 24 C -3.830922 -2.729528 0.749537 0
M  V30 25 C -3.034086 -3.455095 -0.240391 0
M  V30 26 O -2.866257 -2.832839 -1.463238 0
M  V30 27 C -2.079019 -3.711128 -2.235421 0
M  V30 28 C -1.790666 -3.043030 -3.542397 0
M  V30 29 O -1.102307 -1.848169 -3.203044 0
M  V30 30 C -3.020338 -2.626562 -4.308309 0
M  V30 31 O -2.639545 -1.906130 -5.469929 0
M  V30 32 C -3.117519 -1.756216 1.451701 0
M  V30 33 N -0.434578 -0.437538 2.528984 0
M  V30 34 C 0.776053 0.074249 2.242954 0
M  V30 35 H 0.523175 -2.484016 1.660851 0
M  V30 36 H 2.266808 -2.808165 1.460963 0
M  V30 37 H 1.551529 -2.601650 3.093207 0
M  V30 38 H 5.644240 2.767112 -1.771057 0
M  V30 39 H 7.457394 3.535269 -0.357610 0
M  V30 40 H 7.375966 3.132657 2.135066 0
M  V30 41 H 2.305661 2.986617 1.885118 0
M  V30 42 H 0.087460 3.313811 2.432643 0
M  V30 43 H -3.337891 0.600053 3.860228 0
M  V30 44 H -5.428454 -0.493740 3.469816 0
M  V30 45 H -6.789194 -2.207559 2.267561 0
M  V30 46 H -5.673539 -3.626742 0.504189 0
M  V30 47 H -3.576153 -4.419749 -0.477506 0
M  V30 48 H -2.075261 -3.801613 0.216800 0
M  V30 49 H -1.108107 -3.869885 -1.714901 0
M  V30 50 H -2.588145 -4.693959 -2.349716 0
M  V30 51 H -1.128601 -3.644796 -4.200401 0
M  V30 52 H -0.240684 -2.135948 -2.789190 0
M  V30 53 H -3.723527 -2.069220 -3.677324 0
M  V30 54 H -3.540923 -3.534729 -4.733525 0
M  V30 55 H -1.684052 -1.640005 -5.427686 0
M  V30 56 H -2.048916 -1.578373 1.257546 0
M  V30 END ATOM
M  V30 BEGIN BOND
M  V30 1 1 1 2
M  V30 2 1 2 3
M  V30 3 2 3 4
M  V30 4 1 3 5
M  V30 5 1 5 6
M  V30 6 2 6 7
M  V30 7 1 7 8
M  V30 8 1 7 9
M  V30 9 2 9 10
M  V30 10 1 10 11
M  V30 11 2 11 12
M  V30 12 1 12 13
M  V30 13 2 5 14
M  V30 14 1 14 15
M  V30 15 2 15 16
M  V30 16 1 16 17
M  V30 17 2 17 18
M  V30 18 1 18 19
M  V30 19 1 19 20
M  V30 20 2 20 21
M  V30 21 1 21 22
M  V30 22 2 22 23
M  V30 23 1 23 24
M  V30 24 1 24 25
M  V30 25 1 25 26
M  V30 26 1 26 27
M  V30 27 1 27 28
M  V30 28 1 28 29
M  V30 29 1 28 30
M  V30 30 1 30 31
M  V30 31 2 24 32
M  V30 32 1 18 33
M  V30 33 2 33 34
M  V30 34 1 34 2
M  V30 35 1 12 6
M  V30 36 1 34 15
M  V30 37 1 32 20
M  V30 38 1 1 35
M  V30 39 1 1 36
M  V30 40 1 1 37
M  V30 41 1 9 38
M  V30 42 1 10 39
M  V30 43 1 11 40
M  V30 44 1 14 41
M  V30 45 1 16 42
M  V30 46 1 19 43
M  V30 47 1 21 44
M  V30 48 1 22 45
M  V30 49 1 23 46
M  V30 50 1 25 47
M  V30 51 1 25 48
M  V30 52 1 27 49
M  V30 53 1 27 50
M  V30 54 1 28 51
M  V30 55 1 29 52
M  V30 56 1 30 53
M  V30 57 1 30 54
M  V30 58 1 31 55
M  V30 59 1 32 56
M  V30 END BOND
M  V30 END CTAB
M  END
>  <Dataset>  (517) 
ChEMBL_Kinases

>  <Ligand_Instance>  (517) 
nan

>  <PDB_ID>  (517) 
nan

>  <Standardized_SMILES>  (517) 
Cn1c(=O)c(-c2c(Cl)cccc2Cl)cc2cnc(Nc3cccc(COCC(O)CO)c3)nc21

>  <Name>  (517) 
nan

>  <Pocket>  (517) 
nan

>  <ATP_Site>  (517) 
nan

>  <Peripheral>  (517) 
nan

>  <Num_H_Atoms_ProtBoundConf>  (517) 
nan

>  <Num_Resolved_Atoms>  (517) 
nan

>  <Num_Not_Resolved_Atoms>  (517) 
nan

$$$$
CHEMBL3718881
     RDKit          3D

  0  0  0  0  0  0  0  0  0  0999 V3000
M  V30 BEGIN CTAB
M  V30 COUNTS 45 48 0 0 0
M  V30 BEGIN ATOM
M  V30 1 O -0.432484 -0.363835 -1.768849 0
M  V30 2 C 0.643224 -0.410039 -1.128647 0
M  V30 3 N 1.468495 -1.529021 -0.834768 0
M  V30 4 C 1.048229 -2.827308 -1.321080 0 CFG=1
M  V30 5 C 2.036220 -3.496852 -2.220401 0
M  V30 6 C 2.588128 -4.768743 -1.569502 0
M  V30 7 C 3.057680 -4.414160 -0.191331 0
M  V30 8 N 1.982848 -3.878001 0.642421 0
M  V30 9 C 0.758836 -3.716439 -0.119830 0
M  V30 10 C 0.731326 1.014961 -0.814202 0
M  V30 11 C 1.085754 2.071214 -1.643003 0
M  V30 12 C 1.103524 3.358000 -1.156289 0
M  V30 13 C 0.783489 3.685989 0.141908 0
M  V30 14 O 0.816690 5.006138 0.584360 0
M  V30 15 C 0.430573 2.638374 0.968700 0
M  V30 16 N 0.071664 2.631742 2.264656 0
M  V30 17 C -0.187796 1.351681 2.657265 0
M  V30 18 C -0.617008 0.767255 3.955300 0
M  V30 19 C -2.113037 0.644510 4.065237 0
M  V30 20 C -3.073731 1.606670 4.601066 0
M  V30 21 C -4.364286 1.173462 4.558987 0
M  V30 22 C -4.802043 -0.039389 4.074410 0
M  V30 23 S -3.153713 -0.802056 3.546959 0
M  V30 24 N 0.027735 0.612745 1.560726 0
M  V30 25 C 0.406943 1.356049 0.505835 0
M  V30 26 H 2.289167 -1.205429 -0.286172 0
M  V30 27 H 0.102951 -2.695607 -1.866297 0
M  V30 28 H 2.869361 -2.882216 -2.563638 0
M  V30 29 H 1.537203 -3.881342 -3.163642 0
M  V30 30 H 1.848522 -5.580286 -1.590979 0
M  V30 31 H 3.454247 -5.073511 -2.159312 0
M  V30 32 H 3.443214 -5.322411 0.320076 0
M  V30 33 H 3.880423 -3.655232 -0.305509 0
M  V30 34 H 1.801400 -4.482512 1.479780 0
M  V30 35 H 0.356293 -4.670620 -0.513507 0
M  V30 36 H 0.012397 -3.281311 0.548808 0
M  V30 37 H 1.328075 1.754581 -2.645963 0
M  V30 38 H 1.389034 4.139814 -1.857521 0
M  V30 39 H 0.251689 5.375656 1.321221 0
M  V30 40 H -0.020409 3.428060 2.938153 0
M  V30 41 H -0.337514 1.416458 4.810584 0
M  V30 42 H -0.177999 -0.245636 4.037465 0
M  V30 43 H -2.703732 2.539404 4.972162 0
M  V30 44 H -5.158169 1.806754 4.930325 0
M  V30 45 H -5.634580 -0.530566 3.954181 0
M  V30 END ATOM
M  V30 BEGIN BOND
M  V30 1 2 1 2
M  V30 2 1 2 3
M  V30 3 1 3 4
M  V30 4 1 4 5
M  V30 5 1 5 6
M  V30 6 1 6 7
M  V30 7 1 7 8
M  V30 8 1 8 9
M  V30 9 1 2 10
M  V30 10 2 10 11
M  V30 11 1 11 12
M  V30 12 2 12 13
M  V30 13 1 13 14
M  V30 14 1 13 15
M  V30 15 1 15 16
M  V30 16 1 16 17
M  V30 17 1 17 18
M  V30 18 1 18 19
M  V30 19 2 19 20
M  V30 20 1 20 21
M  V30 21 2 21 22
M  V30 22 1 22 23
M  V30 23 2 17 24
M  V30 24 1 24 25
M  V30 25 1 9 4
M  V30 26 1 25 10
M  V30 27 2 25 15
M  V30 28 1 23 19
M  V30 29 1 3 26
M  V30 30 1 4 27 CFG=3
M  V30 31 1 5 28
M  V30 32 1 5 29
M  V30 33 1 6 30
M  V30 34 1 6 31
M  V30 35 1 7 32
M  V30 36 1 7 33
M  V30 37 1 8 34
M  V30 38 1 9 35
M  V30 39 1 9 36
M  V30 40 1 11 37
M  V30 41 1 12 38
M  V30 42 1 14 39
M  V30 43 1 16 40
M  V30 44 1 18 41
M  V30 45 1 18 42
M  V30 46 1 20 43
M  V30 47 1 21 44
M  V30 48 1 22 45
M  V30 END BOND
M  V30 END CTAB
M  END
>  <Dataset>  (518) 
ChEMBL_Kinases

>  <Ligand_Instance>  (518) 
nan

>  <PDB_ID>  (518) 
nan

>  <Standardized_SMILES>  (518) 
O=C(N[C@H]1CCCNC1)c1ccc(O)c2[nH]c(Cc3cccs3)nc12

>  <Name>  (518) 
nan

>  <Pocket>  (518) 
nan

>  <ATP_Site>  (518) 
nan

>  <Peripheral>  (518) 
nan

>  <Num_H_Atoms_ProtBoundConf>  (518) 
nan

>  <Num_Resolved_Atoms>  (518) 
nan

>  <Num_Not_Resolved_Atoms>  (518) 
nan

$$$$
CHEMBL3718879
     RDKit          3D

  0  0  0  0  0  0  0  0  0  0999 V3000
M  V30 BEGIN CTAB
M  V30 COUNTS 36 39 0 0 0
M  V30 BEGIN ATOM
M  V30 1 C 4.178325 -0.113132 2.640392 0
M  V30 2 C 2.870208 0.079908 1.941304 0
M  V30 3 N 2.130805 -0.963978 1.469563 0
M  V30 4 C 0.948282 -0.719753 0.842379 0
M  V30 5 N 0.334222 -1.933654 0.458539 0
M  V30 6 C -0.812870 -2.831824 0.705760 0
M  V30 7 C -0.056638 -4.105494 1.122633 0
M  V30 8 C 1.170600 -4.054939 0.198362 0
M  V30 9 C 0.947972 -2.761345 -0.595457 0
M  V30 10 C 0.537465 0.578312 0.704162 0
M  V30 11 C 1.277901 1.636163 1.177676 0
M  V30 12 N 2.439131 1.345092 1.790770 0
M  V30 13 N 0.590535 2.750656 0.872923 0
M  V30 14 C -0.544191 2.418777 0.229037 0
M  V30 15 C -1.588689 3.151057 -0.300924 0
M  V30 16 C -2.681836 2.564679 -0.943399 0
M  V30 17 C -2.700899 1.168757 -1.044734 0
M  V30 18 O -3.812183 0.622591 -1.694965 0
M  V30 19 C -1.659262 0.440835 -0.515902 0
M  V30 20 C -0.601532 1.047547 0.108936 0
M  V30 21 H 4.334801 -1.188609 2.838753 0
M  V30 22 H 4.147722 0.432861 3.619836 0
M  V30 23 H 5.004526 0.334098 2.044918 0
M  V30 24 H -1.415556 -2.477322 1.566182 0
M  V30 25 H -1.370389 -2.973501 -0.227814 0
M  V30 26 H -0.672587 -4.987938 0.881502 0
M  V30 27 H 0.213524 -4.043000 2.181559 0
M  V30 28 H 1.242904 -4.933845 -0.447249 0
M  V30 29 H 2.114131 -3.957390 0.769845 0
M  V30 30 H 0.171740 -2.894462 -1.364835 0
M  V30 31 H 1.888973 -2.371548 -0.966571 0
M  V30 32 H 0.922606 3.708977 1.117180 0
M  V30 33 H -1.584801 4.218577 -0.229494 0
M  V30 34 H -3.461457 3.171722 -1.334932 0
M  V30 35 H -4.487062 0.121137 -1.150282 0
M  V30 36 H -1.802755 -0.606885 -0.670666 0
M  V30 END ATOM
M  V30 BEGIN BOND
M  V30 1 1 1 2
M  V30 2 2 2 3
M  V30 3 1 3 4
M  V30 4 1 4 5
M  V30 5 1 5 6
M  V30 6 1 6 7
M  V30 7 1 7 8
M  V30 8 1 8 9
M  V30 9 2 4 10
M  V30 10 1 10 11
M  V30 11 2 11 12
M  V30 12 1 11 13
M  V30 13 1 13 14
M  V30 14 2 14 15
M  V30 15 1 15 16
M  V30 16 2 16 17
M  V30 17 1 17 18
M  V30 18 1 17 19
M  V30 19 2 19 20
M  V30 20 1 12 2
M  V30 21 1 20 14
M  V30 22 1 9 5
M  V30 23 1 20 10
M  V30 24 1 1 21
M  V30 25 1 1 22
M  V30 26 1 1 23
M  V30 27 1 6 24
M  V30 28 1 6 25
M  V30 29 1 7 26
M  V30 30 1 7 27
M  V30 31 1 8 28
M  V30 32 1 8 29
M  V30 33 1 9 30
M  V30 34 1 9 31
M  V30 35 1 13 32
M  V30 36 1 15 33
M  V30 37 1 16 34
M  V30 38 1 18 35
M  V30 39 1 19 36
M  V30 END BOND
M  V30 END CTAB
M  END
>  <Dataset>  (519) 
ChEMBL_Kinases

>  <Ligand_Instance>  (519) 
nan

>  <PDB_ID>  (519) 
nan

>  <Standardized_SMILES>  (519) 
Cc1nc(N2CCCC2)c2c(n1)[nH]c1ccc(O)cc12

>  <Name>  (519) 
nan

>  <Pocket>  (519) 
nan

>  <ATP_Site>  (519) 
nan

>  <Peripheral>  (519) 
nan

>  <Num_H_Atoms_ProtBoundConf>  (519) 
nan

>  <Num_Resolved_Atoms>  (519) 
nan

>  <Num_Not_Resolved_Atoms>  (519) 
nan

$$$$
CHEMBL3714773
     RDKit          3D

  0  0  0  0  0  0  0  0  0  0999 V3000
M  V30 BEGIN CTAB
M  V30 COUNTS 38 41 0 0 0
M  V30 BEGIN ATOM
M  V30 1 O -3.201739 -0.586150 -0.137160 0
M  V30 2 C -2.081124 -0.048189 0.083741 0
M  V30 3 N -1.000046 -0.907588 -0.334361 0
M  V30 4 C -1.243525 -2.190190 -0.917432 0
M  V30 5 C 0.032863 -2.914437 -1.275536 0
M  V30 6 C 0.871187 -2.177669 -2.253805 0
M  V30 7 C 0.854827 -2.242905 -3.651209 0
M  V30 8 N 1.809584 -1.380107 -4.090294 0
M  V30 9 C 2.381068 -0.816443 -3.029888 0
M  V30 10 N 1.818801 -1.293020 -1.898361 0
M  V30 11 C -1.743853 1.260087 0.674626 0
M  V30 12 C -2.251267 2.465155 0.224544 0
M  V30 13 C -1.834771 3.613528 0.890780 0
M  V30 14 N -0.976559 3.548561 1.925842 0
M  V30 15 C -0.457602 2.400671 2.398104 0
M  V30 16 N 0.400571 2.071515 3.396243 0
M  V30 17 C 0.522544 0.745212 3.359076 0
M  V30 18 C 1.370904 -0.053214 4.278016 0
M  V30 19 C 1.543810 -1.375524 4.301004 0
M  V30 20 C 2.368888 -1.943652 5.224227 0
M  V30 21 C 3.004819 -1.051538 6.124083 0
M  V30 22 S 2.340439 0.615575 5.552060 0
M  V30 23 N -0.227014 0.222017 2.374334 0
M  V30 24 C -0.854084 1.233958 1.753596 0
M  V30 25 H -0.002981 -0.592681 -0.209977 0
M  V30 26 H -1.802268 -2.053695 -1.879704 0
M  V30 27 H -1.828467 -2.885999 -0.287739 0
M  V30 28 H -0.183249 -3.896118 -1.743050 0
M  V30 29 H 0.624029 -3.151112 -0.344718 0
M  V30 30 H 0.167374 -2.896102 -4.170731 0
M  V30 31 H 1.994667 -1.246399 -5.114865 0
M  V30 32 H 3.170700 -0.091915 -3.096901 0
M  V30 33 H -2.935617 2.422411 -0.614067 0
M  V30 34 H -2.238568 4.549195 0.526020 0
M  V30 35 H 1.026325 -2.018488 3.580588 0
M  V30 36 H 2.590232 -2.998575 5.344818 0
M  V30 37 H 3.719765 -1.347746 6.950109 0
M  V30 38 H -0.275945 -0.809565 2.170166 0
M  V30 END ATOM
M  V30 BEGIN BOND
M  V30 1 2 1 2
M  V30 2 1 2 3
M  V30 3 1 3 4
M  V30 4 1 4 5
M  V30 5 1 5 6
M  V30 6 2 6 7
M  V30 7 1 7 8
M  V30 8 1 8 9
M  V30 9 2 9 10
M  V30 10 1 2 11
M  V30 11 2 11 12
M  V30 12 1 12 13
M  V30 13 2 13 14
M  V30 14 1 14 15
M  V30 15 1 15 16
M  V30 16 2 16 17
M  V30 17 1 17 18
M  V30 18 2 18 19
M  V30 19 1 19 20
M  V30 20 2 20 21
M  V30 21 1 21 22
M  V30 22 1 17 23
M  V30 23 1 23 24
M  V30 24 1 10 6
M  V30 25 1 24 11
M  V30 26 2 24 15
M  V30 27 1 22 18
M  V30 28 1 3 25
M  V30 29 1 4 26
M  V30 30 1 4 27
M  V30 31 1 5 28
M  V30 32 1 5 29
M  V30 33 1 7 30
M  V30 34 1 8 31
M  V30 35 1 9 32
M  V30 36 1 12 33
M  V30 37 1 13 34
M  V30 38 1 19 35
M  V30 39 1 20 36
M  V30 40 1 21 37
M  V30 41 1 23 38
M  V30 END BOND
M  V30 END CTAB
M  END
>  <Dataset>  (520) 
ChEMBL_Kinases

>  <Ligand_Instance>  (520) 
nan

>  <PDB_ID>  (520) 
nan

>  <Standardized_SMILES>  (520) 
O=C(NCCc1c[nH]cn1)c1ccnc2nc(-c3cccs3)[nH]c12

>  <Name>  (520) 
nan

>  <Pocket>  (520) 
nan

>  <ATP_Site>  (520) 
nan

>  <Peripheral>  (520) 
nan

>  <Num_H_Atoms_ProtBoundConf>  (520) 
nan

>  <Num_Resolved_Atoms>  (520) 
nan

>  <Num_Not_Resolved_Atoms>  (520) 
nan

$$$$
CHEMBL3718868
     RDKit          3D

  0  0  0  0  0  0  0  0  0  0999 V3000
M  V30 BEGIN CTAB
M  V30 COUNTS 50 54 0 0 0
M  V30 BEGIN ATOM
M  V30 1 C 0.719607 -3.248736 3.688556 0
M  V30 2 N -0.110486 -3.157364 2.528518 0
M  V30 3 C 0.104234 -2.216765 1.598491 0
M  V30 4 N 1.187221 -1.264750 1.574489 0
M  V30 5 C 2.436112 -1.205102 2.287721 0
M  V30 6 C 3.595472 -0.785345 1.379333 0
M  V30 7 O 3.333233 0.327778 0.629553 0
M  V30 8 C 2.130029 0.874915 1.060525 0 CFG=1
M  V30 9 C 1.870403 2.186433 0.357357 0
M  V30 10 C 2.803390 2.800212 -0.465636 0
M  V30 11 C 2.496634 3.996276 -1.078660 0
M  V30 12 C 1.252605 4.586437 -0.871691 0
M  V30 13 C 0.326104 3.976474 -0.053668 0
M  V30 14 C 0.623017 2.780822 0.563540 0
M  V30 15 C -0.221775 1.954218 1.482405 0
M  V30 16 C -0.325783 0.542289 0.905377 0
M  V30 17 C 1.030897 -0.097152 0.702477 0 CFG=2
M  V30 18 N -0.730828 -2.178141 0.550030 0
M  V30 19 C -1.764736 -2.993548 0.340050 0
M  V30 20 C -2.544675 -2.788995 -0.866157 0
M  V30 21 C -2.158773 -1.776622 -1.734658 0
M  V30 22 C -2.849928 -1.516636 -2.899897 0
M  V30 23 N -3.935350 -2.242511 -3.242236 0
M  V30 24 C -4.361821 -3.245189 -2.435437 0
M  V30 25 C -3.649315 -3.468681 -1.291953 0
M  V30 26 F -4.092904 -4.466645 -0.512972 0
M  V30 27 C -1.964511 -3.941742 1.296545 0
M  V30 28 C -1.133886 -4.018041 2.387477 0
M  V30 29 O -1.328933 -4.899584 3.264662 0
M  V30 30 H 1.556537 -3.952412 3.630414 0
M  V30 31 H 1.002547 -2.267864 4.141847 0
M  V30 32 H 0.045357 -3.691514 4.499318 0
M  V30 33 H 2.771789 -2.234864 2.627292 0
M  V30 34 H 2.406961 -0.589490 3.203143 0
M  V30 35 H 4.454623 -0.624282 2.072345 0
M  V30 36 H 3.758276 -1.639730 0.684065 0
M  V30 37 H 2.182040 1.120660 2.134983 0
M  V30 38 H 3.771291 2.315620 -0.610799 0
M  V30 39 H 3.233615 4.451431 -1.711306 0
M  V30 40 H 0.977225 5.505641 -1.325766 0
M  V30 41 H -0.669517 4.331205 0.183638 0
M  V30 42 H -1.236523 2.354004 1.541775 0
M  V30 43 H 0.308999 1.896290 2.434994 0
M  V30 44 H -0.995121 -0.040079 1.535891 0
M  V30 45 H -0.782323 0.669728 -0.096912 0
M  V30 46 H 1.191644 -0.426591 -0.342319 0
M  V30 47 H -1.303640 -1.153172 -1.535341 0
M  V30 48 H -2.529244 -0.727676 -3.549864 0
M  V30 49 H -5.214733 -3.813403 -2.707139 0
M  V30 50 H -2.763533 -4.639246 1.214865 0
M  V30 END ATOM
M  V30 BEGIN BOND
M  V30 1 1 1 2
M  V30 2 1 2 3
M  V30 3 1 3 4
M  V30 4 1 4 5
M  V30 5 1 5 6
M  V30 6 1 6 7
M  V30 7 1 7 8
M  V30 8 1 8 9
M  V30 9 2 9 10
M  V30 10 1 10 11
M  V30 11 2 11 12
M  V30 12 1 12 13
M  V30 13 2 13 14
M  V30 14 1 14 15
M  V30 15 1 15 16
M  V30 16 1 16 17
M  V30 17 2 3 18
M  V30 18 1 18 19
M  V30 19 1 19 20
M  V30 20 2 20 21
M  V30 21 1 21 22
M  V30 22 2 22 23
M  V30 23 1 23 24
M  V30 24 2 24 25
M  V30 25 1 25 26
M  V30 26 2 19 27
M  V30 27 1 27 28
M  V30 28 2 28 29
M  V30 29 1 28 2
M  V30 30 1 17 4
M  V30 31 1 25 20
M  V30 32 1 17 8
M  V30 33 1 14 9
M  V30 34 1 1 30
M  V30 35 1 1 31
M  V30 36 1 1 32
M  V30 37 1 5 33
M  V30 38 1 5 34
M  V30 39 1 6 35
M  V30 40 1 6 36
M  V30 41 1 8 37 CFG=1
M  V30 42 1 10 38
M  V30 43 1 11 39
M  V30 44 1 12 40
M  V30 45 1 13 41
M  V30 46 1 15 42
M  V30 47 1 15 43
M  V30 48 1 16 44
M  V30 49 1 16 45
M  V30 50 1 17 46 CFG=3
M  V30 51 1 21 47
M  V30 52 1 22 48
M  V30 53 1 24 49
M  V30 54 1 27 50
M  V30 END BOND
M  V30 END CTAB
M  END
>  <Dataset>  (521) 
ChEMBL_Kinases

>  <Ligand_Instance>  (521) 
nan

>  <PDB_ID>  (521) 
nan

>  <Standardized_SMILES>  (521) 
Cn1c(N2CCO[C@H]3c4ccccc4CC[C@@H]32)nc(-c2ccncc2F)cc1=O

>  <Name>  (521) 
nan

>  <Pocket>  (521) 
nan

>  <ATP_Site>  (521) 
nan

>  <Peripheral>  (521) 
nan

>  <Num_H_Atoms_ProtBoundConf>  (521) 
nan

>  <Num_Resolved_Atoms>  (521) 
nan

>  <Num_Not_Resolved_Atoms>  (521) 
nan

$$$$
CHEMBL3718739
     RDKit          3D

  0  0  0  0  0  0  0  0  0  0999 V3000
M  V30 BEGIN CTAB
M  V30 COUNTS 39 41 0 0 0
M  V30 BEGIN ATOM
M  V30 1 C 1.116799 -6.119302 -1.307066 0
M  V30 2 O 2.472426 -5.773976 -1.092187 0
M  V30 3 C 2.852707 -4.486957 -0.736163 0
M  V30 4 C 4.167618 -4.130137 -0.521791 0
M  V30 5 C 4.509950 -2.839612 -0.169285 0
M  V30 6 Cl 6.180330 -2.380820 0.105205 0
M  V30 7 C 3.548212 -1.835069 -0.011703 0
M  V30 8 C 2.229225 -2.176053 -0.221725 0
M  V30 9 C 1.063282 -1.269680 -0.101905 0
M  V30 10 C -0.038893 -1.449798 -0.882148 0
M  V30 11 C -1.126659 -0.585226 -0.750896 0
M  V30 12 C -1.097511 0.463051 0.172018 0
M  V30 13 C 0.047021 0.604721 0.942840 0
M  V30 14 C 0.075597 1.702540 1.904019 0
M  V30 15 N 1.043533 2.076468 2.759244 0
M  V30 16 N 0.682198 3.134334 3.464377 0
M  V30 17 C -0.556054 3.493424 3.086669 0
M  V30 18 S -1.612398 4.840975 3.652968 0
M  V30 19 C -3.178694 4.775202 2.742619 0
M  V30 20 C -3.952709 3.536791 3.105933 0
M  V30 21 O -5.082959 3.160451 2.656237 0
M  V30 22 O -3.797760 2.430657 3.960561 0
M  V30 23 N -0.899475 2.600346 2.132907 0
M  V30 24 C 1.123024 -0.234085 0.827403 0
M  V30 25 C 1.911974 -3.470796 -0.573416 0
M  V30 26 H 0.779148 -5.647378 -2.264609 0
M  V30 27 H 1.084630 -7.230991 -1.383430 0
M  V30 28 H 0.546605 -5.775355 -0.437336 0
M  V30 29 H 4.926319 -4.890696 -0.637995 0
M  V30 30 H 3.730347 -0.811726 0.258218 0
M  V30 31 H -0.120748 -2.244022 -1.615580 0
M  V30 32 H -2.009648 -0.738698 -1.384096 0
M  V30 33 H -1.973528 1.094789 0.222270 0
M  V30 34 H -3.826444 5.614403 2.997615 0
M  V30 35 H -3.031415 4.758253 1.647899 0
M  V30 36 H -4.274385 2.448965 4.873046 0
M  V30 37 H -1.818030 2.597359 1.623573 0
M  V30 38 H 2.011659 -0.092995 1.452639 0
M  V30 39 H 0.881672 -3.790158 -0.750820 0
M  V30 END ATOM
M  V30 BEGIN BOND
M  V30 1 1 1 2
M  V30 2 1 2 3
M  V30 3 2 3 4
M  V30 4 1 4 5
M  V30 5 1 5 6
M  V30 6 2 5 7
M  V30 7 1 7 8
M  V30 8 1 8 9
M  V30 9 2 9 10
M  V30 10 1 10 11
M  V30 11 2 11 12
M  V30 12 1 12 13
M  V30 13 1 13 14
M  V30 14 2 14 15
M  V30 15 1 15 16
M  V30 16 2 16 17
M  V30 17 1 17 18
M  V30 18 1 18 19
M  V30 19 1 19 20
M  V30 20 2 20 21
M  V30 21 1 20 22
M  V30 22 1 17 23
M  V30 23 2 13 24
M  V30 24 2 8 25
M  V30 25 1 25 3
M  V30 26 1 24 9
M  V30 27 1 23 14
M  V30 28 1 1 26
M  V30 29 1 1 27
M  V30 30 1 1 28
M  V30 31 1 4 29
M  V30 32 1 7 30
M  V30 33 1 10 31
M  V30 34 1 11 32
M  V30 35 1 12 33
M  V30 36 1 19 34
M  V30 37 1 19 35
M  V30 38 1 22 36
M  V30 39 1 23 37
M  V30 40 1 24 38
M  V30 41 1 25 39
M  V30 END BOND
M  V30 END CTAB
M  END
>  <Dataset>  (522) 
ChEMBL_Kinases

>  <Ligand_Instance>  (522) 
nan

>  <PDB_ID>  (522) 
nan

>  <Standardized_SMILES>  (522) 
COc1cc(Cl)cc(-c2cccc(-c3nnc(SCC(=O)O)[nH]3)c2)c1

>  <Name>  (522) 
nan

>  <Pocket>  (522) 
nan

>  <ATP_Site>  (522) 
nan

>  <Peripheral>  (522) 
nan

>  <Num_H_Atoms_ProtBoundConf>  (522) 
nan

>  <Num_Resolved_Atoms>  (522) 
nan

>  <Num_Not_Resolved_Atoms>  (522) 
nan

$$$$
CHEMBL3718848
     RDKit          3D

  0  0  0  0  0  0  0  0  0  0999 V3000
M  V30 BEGIN CTAB
M  V30 COUNTS 42 45 0 0 0
M  V30 BEGIN ATOM
M  V30 1 O 0.048630 0.693851 4.069233 0
M  V30 2 C 0.088555 0.528435 2.820088 0
M  V30 3 N 0.164230 -0.818520 2.415071 0
M  V30 4 C 0.193920 -1.948396 3.329388 0 CFG=1
M  V30 5 C -0.785839 -3.025184 2.997866 0
M  V30 6 C -0.260258 -3.935987 1.897263 0
M  V30 7 C 0.968129 -4.669372 2.371243 0
M  V30 8 N 1.491273 -3.972104 3.533245 0
M  V30 9 C 1.582344 -2.570974 3.169920 0
M  V30 10 C 0.055781 1.677665 1.939974 0
M  V30 11 C -0.115215 2.942235 2.463393 0
M  V30 12 C -0.157912 4.096849 1.711546 0
M  V30 13 C -0.019555 3.972374 0.321308 0
M  V30 14 O -0.054553 5.085850 -0.498319 0
M  V30 15 C 0.153724 2.742831 -0.268519 0
M  V30 16 N 0.313262 2.309062 -1.552820 0
M  V30 17 C 0.436721 0.990562 -1.519138 0
M  V30 18 C 0.623664 0.148274 -2.706153 0
M  V30 19 C 0.765010 -1.347619 -2.577805 0
M  V30 20 C 0.928538 -1.948595 -3.791040 0
M  V30 21 C 0.960523 -1.205567 -5.047176 0
M  V30 22 Br 1.162384 -1.784125 -6.738546 0
M  V30 23 S 0.720650 0.566638 -4.339134 0
M  V30 24 N 0.360444 0.598769 -0.262311 0
M  V30 25 C 0.183644 1.648366 0.567942 0
M  V30 26 H 0.199929 -1.054949 1.404539 0
M  V30 27 H 0.148576 -1.607593 4.373179 0
M  V30 28 H -1.799881 -2.669411 2.749980 0
M  V30 29 H -0.902117 -3.671869 3.899323 0
M  V30 30 H -1.069567 -4.646748 1.629842 0
M  V30 31 H -0.069952 -3.339377 0.977463 0
M  V30 32 H 1.746770 -4.583691 1.580880 0
M  V30 33 H 0.798689 -5.750957 2.538544 0
M  V30 34 H 2.450517 -4.296438 3.719810 0
M  V30 35 H 2.306104 -2.072297 3.825471 0
M  V30 36 H 1.854384 -2.537669 2.094697 0
M  V30 37 H -0.222027 3.038015 3.548811 0
M  V30 38 H -0.291135 5.070657 2.166342 0
M  V30 39 H 0.791363 5.508624 -0.868138 0
M  V30 40 H 0.332116 2.915350 -2.401748 0
M  V30 41 H 0.738627 -1.853554 -1.636193 0
M  V30 42 H 1.044402 -3.015958 -3.877608 0
M  V30 END ATOM
M  V30 BEGIN BOND
M  V30 1 2 1 2
M  V30 2 1 2 3
M  V30 3 1 3 4
M  V30 4 1 4 5
M  V30 5 1 5 6
M  V30 6 1 6 7
M  V30 7 1 7 8
M  V30 8 1 8 9
M  V30 9 1 2 10
M  V30 10 2 10 11
M  V30 11 1 11 12
M  V30 12 2 12 13
M  V30 13 1 13 14
M  V30 14 1 13 15
M  V30 15 1 15 16
M  V30 16 1 16 17
M  V30 17 1 17 18
M  V30 18 2 18 19
M  V30 19 1 19 20
M  V30 20 2 20 21
M  V30 21 1 21 22
M  V30 22 1 21 23
M  V30 23 2 17 24
M  V30 24 1 24 25
M  V30 25 1 9 4
M  V30 26 1 25 10
M  V30 27 2 25 15
M  V30 28 1 23 18
M  V30 29 1 3 26
M  V30 30 1 4 27 CFG=1
M  V30 31 1 5 28
M  V30 32 1 5 29
M  V30 33 1 6 30
M  V30 34 1 6 31
M  V30 35 1 7 32
M  V30 36 1 7 33
M  V30 37 1 8 34
M  V30 38 1 9 35
M  V30 39 1 9 36
M  V30 40 1 11 37
M  V30 41 1 12 38
M  V30 42 1 14 39
M  V30 43 1 16 40
M  V30 44 1 19 41
M  V30 45 1 20 42
M  V30 END BOND
M  V30 END CTAB
M  END
>  <Dataset>  (523) 
ChEMBL_Kinases

>  <Ligand_Instance>  (523) 
nan

>  <PDB_ID>  (523) 
nan

>  <Standardized_SMILES>  (523) 
O=C(N[C@H]1CCCNC1)c1ccc(O)c2[nH]c(-c3ccc(Br)s3)nc12

>  <Name>  (523) 
nan

>  <Pocket>  (523) 
nan

>  <ATP_Site>  (523) 
nan

>  <Peripheral>  (523) 
nan

>  <Num_H_Atoms_ProtBoundConf>  (523) 
nan

>  <Num_Resolved_Atoms>  (523) 
nan

>  <Num_Not_Resolved_Atoms>  (523) 
nan

$$$$
CHEMBL3718841
     RDKit          3D

  0  0  0  0  0  0  0  0  0  0999 V3000
M  V30 BEGIN CTAB
M  V30 COUNTS 51 53 0 0 0
M  V30 BEGIN ATOM
M  V30 1 C 0.363980 -4.717196 3.103603 0
M  V30 2 C 1.807770 -4.465176 2.926795 0
M  V30 3 N 2.223883 -3.186654 2.386265 0
M  V30 4 C 3.656716 -3.281334 2.572637 0
M  V30 5 C 4.514322 -2.212709 2.015830 0
M  V30 6 C 1.464575 -2.169048 1.742617 0
M  V30 7 C 1.823600 -0.867676 1.496375 0
M  V30 8 C 1.107870 0.052767 0.782825 0
M  V30 9 C -0.101658 -0.272695 0.222412 0
M  V30 10 C -0.885079 0.692392 -0.570968 0
M  V30 11 C -0.782987 2.092893 -0.197104 0
M  V30 12 C 0.229523 2.970085 -0.649906 0
M  V30 13 C 1.384145 2.737599 -1.590384 0
M  V30 14 N 0.096871 4.211664 -0.147859 0
M  V30 15 N -0.981249 4.214238 0.639066 0
M  V30 16 C -1.474478 2.978667 0.595487 0
M  V30 17 O -2.595111 2.709699 1.324125 0
M  V30 18 C -2.220992 0.215453 -0.990710 0
M  V30 19 C -3.336492 -0.176296 -0.275849 0
M  V30 20 C -3.522160 -0.262070 1.164095 0
M  V30 21 N -4.346812 -0.523139 -1.103191 0
M  V30 22 N -3.976747 -0.388650 -2.339950 0
M  V30 23 C -2.709980 0.051467 -2.302113 0
M  V30 24 O -1.972591 0.312839 -3.476093 0
M  V30 25 C -0.513336 -1.569215 0.437624 0
M  V30 26 C 0.248056 -2.465269 1.167864 0
M  V30 27 H 0.289702 -5.434935 4.006741 0
M  V30 28 H -0.261369 -3.874630 3.390288 0
M  V30 29 H -0.037280 -5.373001 2.290515 0
M  V30 30 H 2.265028 -4.543003 3.968791 0
M  V30 31 H 2.255214 -5.315773 2.348894 0
M  V30 32 H 4.039524 -4.251340 2.109004 0
M  V30 33 H 3.923399 -3.412295 3.651306 0
M  V30 34 H 4.703363 -1.338080 2.645957 0
M  V30 35 H 4.259910 -1.878875 0.993357 0
M  V30 36 H 5.569714 -2.667054 1.845251 0
M  V30 37 H 2.736175 -0.497978 1.918343 0
M  V30 38 H 1.500982 1.033582 0.669853 0
M  V30 39 H -0.303646 0.650019 -1.579822 0
M  V30 40 H 1.553995 1.645904 -1.674512 0
M  V30 41 H 1.160852 3.172795 -2.591952 0
M  V30 42 H 2.312057 3.203707 -1.187217 0
M  V30 43 H -1.289273 5.069873 1.142582 0
M  V30 44 H -3.542062 2.878012 1.000823 0
M  V30 45 H -4.027696 -1.233255 1.435845 0
M  V30 46 H -2.630676 -0.087551 1.771418 0
M  V30 47 H -4.271577 0.521510 1.464126 0
M  V30 48 H -4.524271 -0.575658 -3.199705 0
M  V30 49 H -1.192968 -0.288591 -3.765361 0
M  V30 50 H -1.474994 -1.808180 -0.031576 0
M  V30 51 H -0.268040 -3.404546 1.168219 0
M  V30 END ATOM
M  V30 BEGIN BOND
M  V30 1 1 1 2
M  V30 2 1 2 3
M  V30 3 1 3 4
M  V30 4 1 4 5
M  V30 5 1 3 6
M  V30 6 2 6 7
M  V30 7 1 7 8
M  V30 8 2 8 9
M  V30 9 1 9 10
M  V30 10 1 10 11
M  V30 11 1 11 12
M  V30 12 1 12 13
M  V30 13 2 12 14
M  V30 14 1 14 15
M  V30 15 1 15 16
M  V30 16 1 16 17
M  V30 17 1 10 18
M  V30 18 1 18 19
M  V30 19 1 19 20
M  V30 20 2 19 21
M  V30 21 1 21 22
M  V30 22 1 22 23
M  V30 23 1 23 24
M  V30 24 1 9 25
M  V30 25 2 25 26
M  V30 26 1 26 6
M  V30 27 2 16 11
M  V30 28 2 23 18
M  V30 29 1 1 27
M  V30 30 1 1 28
M  V30 31 1 1 29
M  V30 32 1 2 30
M  V30 33 1 2 31
M  V30 34 1 4 32
M  V30 35 1 4 33
M  V30 36 1 5 34
M  V30 37 1 5 35
M  V30 38 1 5 36
M  V30 39 1 7 37
M  V30 40 1 8 38
M  V30 41 1 10 39
M  V30 42 1 13 40
M  V30 43 1 13 41
M  V30 44 1 13 42
M  V30 45 1 15 43
M  V30 46 1 17 44
M  V30 47 1 20 45
M  V30 48 1 20 46
M  V30 49 1 20 47
M  V30 50 1 22 48
M  V30 51 1 24 49
M  V30 52 1 25 50
M  V30 53 1 26 51
M  V30 END BOND
M  V30 END CTAB
M  END
>  <Dataset>  (524) 
ChEMBL_Kinases

>  <Ligand_Instance>  (524) 
nan

>  <PDB_ID>  (524) 
nan

>  <Standardized_SMILES>  (524) 
CCN(CC)c1ccc(C(c2c(C)n[nH]c2O)c2c(C)n[nH]c2O)cc1

>  <Name>  (524) 
nan

>  <Pocket>  (524) 
nan

>  <ATP_Site>  (524) 
nan

>  <Peripheral>  (524) 
nan

>  <Num_H_Atoms_ProtBoundConf>  (524) 
nan

>  <Num_Resolved_Atoms>  (524) 
nan

>  <Num_Not_Resolved_Atoms>  (524) 
nan

$$$$
CHEMBL3718826
     RDKit          3D

  0  0  0  0  0  0  0  0  0  0999 V3000
M  V30 BEGIN CTAB
M  V30 COUNTS 37 40 0 0 0
M  V30 BEGIN ATOM
M  V30 1 N -2.226049 -1.728416 4.274257 0
M  V30 2 C -1.184632 -1.238084 3.407854 0
M  V30 3 N -1.314935 -1.249367 2.076332 0
M  V30 4 C -0.356590 -0.796692 1.225687 0
M  V30 5 N -0.728502 -0.947507 -0.133845 0
M  V30 6 C -0.342778 -1.753361 -1.304711 0
M  V30 7 C -1.441479 -2.728636 -1.682261 0
M  V30 8 N -2.753579 -2.175331 -1.406695 0
M  V30 9 C -2.754711 -0.730632 -1.480117 0
M  V30 10 C -1.819103 -0.052306 -0.541757 0
M  V30 11 C 0.787171 -0.310421 1.797053 0
M  V30 12 C 0.975770 -0.274452 3.149513 0
M  V30 13 N -0.040067 -0.750232 3.916795 0
M  V30 14 N 2.188303 0.258885 3.353764 0
M  V30 15 C 2.759048 0.556554 2.172557 0
M  V30 16 C 3.972576 1.113825 1.869841 0
M  V30 17 C 4.328499 1.326830 0.539854 0
M  V30 18 C 3.438200 0.967307 -0.467048 0
M  V30 19 O 3.859203 1.209572 -1.784889 0
M  V30 20 C 2.225106 0.408772 -0.133444 0
M  V30 21 C 1.892428 0.206101 1.179918 0
M  V30 22 H -2.108152 -2.574075 4.906997 0
M  V30 23 H -2.090733 -2.570873 4.896546 0
M  V30 24 H -0.117755 -1.102904 -2.165560 0
M  V30 25 H 0.564459 -2.354971 -1.077516 0
M  V30 26 H -1.348036 -3.656195 -1.083138 0
M  V30 27 H -1.417689 -2.998549 -2.739812 0
M  V30 28 H -3.166347 -2.545299 -0.546507 0
M  V30 29 H -3.777628 -0.340784 -1.331568 0
M  V30 30 H -2.480980 -0.449612 -2.529471 0
M  V30 31 H -1.286635 0.781896 -1.079405 0
M  V30 32 H -2.400113 0.333750 0.302704 0
M  V30 33 H 2.610610 0.412635 4.298382 0
M  V30 34 H 4.628228 1.375033 2.704934 0
M  V30 35 H 5.281925 1.764036 0.315045 0
M  V30 36 H 3.602615 0.468302 -2.454730 0
M  V30 37 H 1.640001 0.188776 -1.002589 0
M  V30 END ATOM
M  V30 BEGIN BOND
M  V30 1 1 1 2
M  V30 2 2 2 3
M  V30 3 1 3 4
M  V30 4 1 4 5
M  V30 5 1 5 6
M  V30 6 1 6 7
M  V30 7 1 7 8
M  V30 8 1 8 9
M  V30 9 1 9 10
M  V30 10 2 4 11
M  V30 11 1 11 12
M  V30 12 2 12 13
M  V30 13 1 12 14
M  V30 14 1 14 15
M  V30 15 2 15 16
M  V30 16 1 16 17
M  V30 17 2 17 18
M  V30 18 1 18 19
M  V30 19 1 18 20
M  V30 20 2 20 21
M  V30 21 1 13 2
M  V30 22 1 21 15
M  V30 23 1 10 5
M  V30 24 1 21 11
M  V30 25 1 1 22
M  V30 26 1 1 23
M  V30 27 1 6 24
M  V30 28 1 6 25
M  V30 29 1 7 26
M  V30 30 1 7 27
M  V30 31 1 8 28
M  V30 32 1 9 29
M  V30 33 1 9 30
M  V30 34 1 10 31
M  V30 35 1 10 32
M  V30 36 1 14 33
M  V30 37 1 16 34
M  V30 38 1 17 35
M  V30 39 1 19 36
M  V30 40 1 20 37
M  V30 END BOND
M  V30 END CTAB
M  END
>  <Dataset>  (525) 
ChEMBL_Kinases

>  <Ligand_Instance>  (525) 
nan

>  <PDB_ID>  (525) 
nan

>  <Standardized_SMILES>  (525) 
Nc1nc(N2CCNCC2)c2c(n1)[nH]c1ccc(O)cc12

>  <Name>  (525) 
nan

>  <Pocket>  (525) 
nan

>  <ATP_Site>  (525) 
nan

>  <Peripheral>  (525) 
nan

>  <Num_H_Atoms_ProtBoundConf>  (525) 
nan

>  <Num_Resolved_Atoms>  (525) 
nan

>  <Num_Not_Resolved_Atoms>  (525) 
nan

$$$$
CHEMBL3718783
     RDKit          3D

  0  0  0  0  0  0  0  0  0  0999 V3000
M  V30 BEGIN CTAB
M  V30 COUNTS 53 57 0 0 0
M  V30 BEGIN ATOM
M  V30 1 O 2.644149 1.058946 2.961099 0
M  V30 2 C 2.459152 1.163367 1.721850 0
M  V30 3 N 2.709824 0.197499 0.711832 0
M  V30 4 C 3.230948 -1.106479 0.985771 0 CFG=1
M  V30 5 C 2.451135 -2.236570 0.366542 0
M  V30 6 C 3.084967 -3.534028 0.853713 0
M  V30 7 C 4.289540 -3.305896 1.725137 0
M  V30 8 N 5.256141 -2.390410 1.153920 0
M  V30 9 C 4.663377 -1.257128 0.477554 0
M  V30 10 C 1.917929 2.493723 1.444321 0
M  V30 11 C 2.660027 3.619926 1.623350 0
M  V30 12 C 2.047206 4.808658 1.325121 0
M  V30 13 N 0.767550 4.930865 0.870398 0
M  V30 14 C 0.029788 3.848593 0.689850 0
M  V30 15 N -1.243079 3.552506 0.267057 0
M  V30 16 C -1.426070 2.249248 0.295713 0
M  V30 17 C -2.599909 1.359500 -0.038058 0
M  V30 18 C -3.758325 1.753740 -0.508305 0
M  V30 19 C -4.762852 0.892238 -0.775861 0
M  V30 20 C -4.517136 -0.464161 -0.529142 0
M  V30 21 N -4.613469 -1.944953 -0.406605 0
M  V30 22 C -5.255782 -2.664699 0.676467 0
M  V30 23 C -4.194760 -3.484465 1.440843 0
M  V30 24 O -2.975462 -3.373272 0.767558 0
M  V30 25 C -3.078754 -3.773093 -0.551950 0
M  V30 26 C -4.036283 -2.869380 -1.353261 0
M  V30 27 S -2.716005 -0.332736 0.115517 0
M  V30 28 N -0.286490 1.644613 0.735612 0
M  V30 29 C 0.599029 2.623569 0.975330 0
M  V30 30 H 2.491499 0.499656 -0.271145 0
M  V30 31 H 3.278973 -1.286168 2.079556 0
M  V30 32 H 1.377504 -2.204827 0.557701 0
M  V30 33 H 2.695573 -2.198185 -0.733156 0
M  V30 34 H 2.330914 -4.050209 1.484271 0
M  V30 35 H 3.313314 -4.233181 0.034604 0
M  V30 36 H 4.795789 -4.292198 1.805293 0
M  V30 37 H 4.020610 -3.047361 2.782480 0
M  V30 38 H 5.797988 -1.999798 1.965832 0
M  V30 39 H 4.605089 -1.505195 -0.599289 0
M  V30 40 H 5.220148 -0.325234 0.580000 0
M  V30 41 H 3.674194 3.551015 1.985932 0
M  V30 42 H 2.634516 5.718429 1.469733 0
M  V30 43 H -4.167032 2.728728 -0.767748 0
M  V30 44 H -5.758808 0.696890 -1.122704 0
M  V30 45 H -5.970081 -3.384241 0.205103 0
M  V30 46 H -5.768266 -1.953570 1.344508 0
M  V30 47 H -4.516113 -4.520056 1.577149 0
M  V30 48 H -4.062923 -2.976988 2.414644 0
M  V30 49 H -2.062268 -3.631287 -1.009331 0
M  V30 50 H -3.318802 -4.828175 -0.675626 0
M  V30 51 H -3.469638 -2.327016 -2.156983 0
M  V30 52 H -4.797379 -3.518120 -1.778116 0
M  V30 53 H -0.105122 0.613389 0.873525 0
M  V30 END ATOM
M  V30 BEGIN BOND
M  V30 1 2 1 2
M  V30 2 1 2 3
M  V30 3 1 3 4
M  V30 4 1 4 5
M  V30 5 1 5 6
M  V30 6 1 6 7
M  V30 7 1 7 8
M  V30 8 1 8 9
M  V30 9 1 2 10
M  V30 10 2 10 11
M  V30 11 1 11 12
M  V30 12 2 12 13
M  V30 13 1 13 14
M  V30 14 1 14 15
M  V30 15 2 15 16
M  V30 16 1 16 17
M  V30 17 2 17 18
M  V30 18 1 18 19
M  V30 19 2 19 20
M  V30 20 1 20 21
M  V30 21 1 21 22
M  V30 22 1 22 23
M  V30 23 1 23 24
M  V30 24 1 24 25
M  V30 25 1 25 26
M  V30 26 1 20 27
M  V30 27 1 16 28
M  V30 28 1 28 29
M  V30 29 1 9 4
M  V30 30 1 29 10
M  V30 31 2 29 14
M  V30 32 1 27 17
M  V30 33 1 26 21
M  V30 34 1 3 30
M  V30 35 1 4 31 CFG=1
M  V30 36 1 5 32
M  V30 37 1 5 33
M  V30 38 1 6 34
M  V30 39 1 6 35
M  V30 40 1 7 36
M  V30 41 1 7 37
M  V30 42 1 8 38
M  V30 43 1 9 39
M  V30 44 1 9 40
M  V30 45 1 11 41
M  V30 46 1 12 42
M  V30 47 1 18 43
M  V30 48 1 19 44
M  V30 49 1 22 45
M  V30 50 1 22 46
M  V30 51 1 23 47
M  V30 52 1 23 48
M  V30 53 1 25 49
M  V30 54 1 25 50
M  V30 55 1 26 51
M  V30 56 1 26 52
M  V30 57 1 28 53
M  V30 END BOND
M  V30 END CTAB
M  END
>  <Dataset>  (526) 
ChEMBL_Kinases

>  <Ligand_Instance>  (526) 
nan

>  <PDB_ID>  (526) 
nan

>  <Standardized_SMILES>  (526) 
O=C(N[C@H]1CCCNC1)c1ccnc2nc(-c3ccc(N4CCOCC4)s3)[nH]c12

>  <Name>  (526) 
nan

>  <Pocket>  (526) 
nan

>  <ATP_Site>  (526) 
nan

>  <Peripheral>  (526) 
nan

>  <Num_H_Atoms_ProtBoundConf>  (526) 
nan

>  <Num_Resolved_Atoms>  (526) 
nan

>  <Num_Not_Resolved_Atoms>  (526) 
nan

$$$$
CHEMBL3718776
     RDKit          3D

  0  0  0  0  0  0  0  0  0  0999 V3000
M  V30 BEGIN CTAB
M  V30 COUNTS 53 57 0 0 0
M  V30 BEGIN ATOM
M  V30 1 O 3.854732 -2.680252 1.728611 0
M  V30 2 C 3.618798 -1.701439 1.015044 0
M  V30 3 N 3.777684 -0.486695 1.790207 0
M  V30 4 C 4.144808 -0.365243 3.188613 0 CFG=1
M  V30 5 C 5.354593 0.463244 3.447378 0
M  V30 6 C 5.175875 1.877604 3.022829 0
M  V30 7 C 3.798810 2.416723 3.003191 0
M  V30 8 N 2.719558 1.554609 3.299532 0
M  V30 9 C 3.004345 0.307189 3.921040 0
M  V30 10 C 3.230054 -1.215321 -0.331481 0
M  V30 11 C 4.159433 -0.693450 -1.199091 0
M  V30 12 C 3.628499 -0.270018 -2.397461 0
M  V30 13 N 2.321153 -0.367165 -2.672047 0
M  V30 14 C 1.398346 -0.876468 -1.830364 0
M  V30 15 N 0.066614 -1.105793 -1.789474 0
M  V30 16 C -0.272929 -1.658964 -0.616823 0
M  V30 17 C -1.637842 -2.037437 -0.217582 0
M  V30 18 C -2.768852 -1.904235 -0.896862 0
M  V30 19 C -3.931126 -2.324802 -0.322877 0
M  V30 20 N -5.209317 -2.217427 -0.913341 0
M  V30 21 C -6.501032 -2.740939 -0.570001 0
M  V30 22 C -7.365353 -1.482049 -0.496347 0
M  V30 23 C -6.749497 -0.559684 -1.542276 0
M  V30 24 O -6.146312 0.555847 -0.981568 0
M  V30 25 C -5.658787 -1.475543 -2.101714 0
M  V30 26 C -3.846354 -2.886593 0.984389 0
M  V30 27 S -2.014462 -2.770267 1.330286 0
M  V30 28 N 0.835775 -1.797521 0.121708 0
M  V30 29 C 1.884199 -1.315703 -0.614421 0
M  V30 30 H 3.667308 0.522215 1.514666 0
M  V30 31 H 4.238771 -1.395333 3.639624 0
M  V30 32 H 5.474447 0.469569 4.571764 0
M  V30 33 H 6.294226 0.016498 3.072441 0
M  V30 34 H 5.895251 2.570072 3.567306 0
M  V30 35 H 5.581397 1.925534 1.963255 0
M  V30 36 H 3.768754 3.254623 3.769674 0
M  V30 37 H 3.652920 2.984758 2.036642 0
M  V30 38 H 2.058109 1.447247 2.486925 0
M  V30 39 H 2.168786 -0.398615 3.898440 0
M  V30 40 H 3.360617 0.476421 4.977938 0
M  V30 41 H 5.204863 -0.633480 -0.940931 0
M  V30 42 H 4.299757 0.164297 -3.156444 0
M  V30 43 H -2.750160 -1.467067 -1.888116 0
M  V30 44 H -6.940473 -3.370329 -1.397207 0
M  V30 45 H -6.515532 -3.342467 0.337786 0
M  V30 46 H -7.284672 -0.964560 0.474739 0
M  V30 47 H -8.394713 -1.700690 -0.821962 0
M  V30 48 H -7.474798 -0.233162 -2.303069 0
M  V30 49 H -6.750585 0.977767 -0.303741 0
M  V30 50 H -4.854312 -0.910766 -2.584570 0
M  V30 51 H -6.098543 -2.173527 -2.851939 0
M  V30 52 H -4.729249 -3.279499 1.581078 0
M  V30 53 H 0.842489 -2.195698 1.064204 0
M  V30 END ATOM
M  V30 BEGIN BOND
M  V30 1 2 1 2
M  V30 2 1 2 3
M  V30 3 1 3 4
M  V30 4 1 4 5
M  V30 5 1 5 6
M  V30 6 1 6 7
M  V30 7 1 7 8
M  V30 8 1 8 9
M  V30 9 1 2 10
M  V30 10 2 10 11
M  V30 11 1 11 12
M  V30 12 2 12 13
M  V30 13 1 13 14
M  V30 14 1 14 15
M  V30 15 2 15 16
M  V30 16 1 16 17
M  V30 17 2 17 18
M  V30 18 1 18 19
M  V30 19 1 19 20
M  V30 20 1 20 21
M  V30 21 1 21 22
M  V30 22 1 22 23
M  V30 23 1 23 24
M  V30 24 1 23 25
M  V30 25 2 19 26
M  V30 26 1 26 27
M  V30 27 1 16 28
M  V30 28 1 28 29
M  V30 29 1 9 4
M  V30 30 1 29 10
M  V30 31 2 29 14
M  V30 32 1 27 17
M  V30 33 1 25 20
M  V30 34 1 3 30
M  V30 35 1 4 31 CFG=1
M  V30 36 1 5 32
M  V30 37 1 5 33
M  V30 38 1 6 34
M  V30 39 1 6 35
M  V30 40 1 7 36
M  V30 41 1 7 37
M  V30 42 1 8 38
M  V30 43 1 9 39
M  V30 44 1 9 40
M  V30 45 1 11 41
M  V30 46 1 12 42
M  V30 47 1 18 43
M  V30 48 1 21 44
M  V30 49 1 21 45
M  V30 50 1 22 46
M  V30 51 1 22 47
M  V30 52 1 23 48
M  V30 53 1 24 49
M  V30 54 1 25 50
M  V30 55 1 25 51
M  V30 56 1 26 52
M  V30 57 1 28 53
M  V30 END BOND
M  V30 END CTAB
M  END
>  <Dataset>  (527) 
ChEMBL_Kinases

>  <Ligand_Instance>  (527) 
nan

>  <PDB_ID>  (527) 
nan

>  <Standardized_SMILES>  (527) 
O=C(N[C@H]1CCCNC1)c1ccnc2nc(-c3cc(N4CCC(O)C4)cs3)[nH]c12

>  <Name>  (527) 
nan

>  <Pocket>  (527) 
nan

>  <ATP_Site>  (527) 
nan

>  <Peripheral>  (527) 
nan

>  <Num_H_Atoms_ProtBoundConf>  (527) 
nan

>  <Num_Resolved_Atoms>  (527) 
nan

>  <Num_Not_Resolved_Atoms>  (527) 
nan

$$$$
CHEMBL3718758
     RDKit          3D

  0  0  0  0  0  0  0  0  0  0999 V3000
M  V30 BEGIN CTAB
M  V30 COUNTS 46 49 0 0 0
M  V30 BEGIN ATOM
M  V30 1 O 2.342302 0.326594 2.598983 0
M  V30 2 C 1.168960 -0.070840 2.426600 0
M  V30 3 N 1.427462 -1.421590 2.140608 0
M  V30 4 C 2.498469 -2.341687 1.998111 0
M  V30 5 C 3.473430 -2.144464 0.915967 0 CFG=1
M  V30 6 C 2.805221 -2.172666 -0.473962 0
M  V30 7 C 3.952334 -2.242379 -1.486243 0
M  V30 8 C 4.833184 -1.052453 -1.324219 0
M  V30 9 N 5.431806 -1.062847 0.003193 0
M  V30 10 C 4.285858 -0.907725 0.947990 0
M  V30 11 C 0.065551 0.835488 2.556294 0
M  V30 12 C 0.476328 2.121140 2.988368 0
M  V30 13 C -0.490522 3.077746 3.163912 0
M  V30 14 N -1.733700 2.836928 2.947639 0
M  V30 15 C -2.292200 1.700339 2.542815 0
M  V30 16 N -3.450987 1.116258 2.229912 0
M  V30 17 C -3.187794 -0.174192 1.869550 0
M  V30 18 C -4.408823 -0.915772 1.493392 0
M  V30 19 C -4.763956 -0.483599 0.144955 0
M  V30 20 C -4.791086 -0.794546 -1.177317 0
M  V30 21 C -5.221422 0.005686 -2.185912 0
M  V30 22 C -5.670786 1.295936 -1.658830 0
M  V30 23 S -5.410771 1.154262 0.149830 0
M  V30 24 N -1.885506 -0.376898 1.962853 0
M  V30 25 C -1.269983 0.754866 2.377091 0
M  V30 26 H 0.492325 -1.897501 2.000643 0
M  V30 27 H 2.064598 -3.387321 1.926678 0
M  V30 28 H 3.053074 -2.380012 3.015267 0
M  V30 29 H 4.151738 -3.054878 0.860732 0
M  V30 30 H 2.266860 -1.235118 -0.586454 0
M  V30 31 H 2.208989 -3.088216 -0.621401 0
M  V30 32 H 4.485469 -3.204421 -1.309181 0
M  V30 33 H 3.499165 -2.295333 -2.488002 0
M  V30 34 H 4.223048 -0.145591 -1.461889 0
M  V30 35 H 5.619058 -1.044085 -2.115172 0
M  V30 36 H 5.802759 -2.023815 0.168070 0
M  V30 37 H 4.714365 -0.623421 1.895672 0
M  V30 38 H 3.680319 -0.098847 0.440764 0
M  V30 39 H 1.503141 2.463703 3.195752 0
M  V30 40 H -0.341692 4.099235 3.493984 0
M  V30 41 H -5.253734 -0.757927 2.192636 0
M  V30 42 H -4.192705 -2.035014 1.501287 0
M  V30 43 H -4.408587 -1.813669 -1.369340 0
M  V30 44 H -5.227799 -0.277906 -3.216464 0
M  V30 45 H -6.044266 2.002715 -2.503695 0
M  V30 46 H -1.591200 -1.312634 1.716432 0
M  V30 END ATOM
M  V30 BEGIN BOND
M  V30 1 2 1 2
M  V30 2 1 2 3
M  V30 3 1 3 4
M  V30 4 1 4 5
M  V30 5 1 5 6
M  V30 6 1 6 7
M  V30 7 1 7 8
M  V30 8 1 8 9
M  V30 9 1 9 10
M  V30 10 1 2 11
M  V30 11 2 11 12
M  V30 12 1 12 13
M  V30 13 2 13 14
M  V30 14 1 14 15
M  V30 15 1 15 16
M  V30 16 2 16 17
M  V30 17 1 17 18
M  V30 18 1 18 19
M  V30 19 2 19 20
M  V30 20 1 20 21
M  V30 21 2 21 22
M  V30 22 1 22 23
M  V30 23 1 17 24
M  V30 24 1 24 25
M  V30 25 1 10 5
M  V30 26 1 25 11
M  V30 27 2 25 15
M  V30 28 1 23 19
M  V30 29 1 3 26
M  V30 30 1 4 27
M  V30 31 1 4 28
M  V30 32 1 5 29 CFG=3
M  V30 33 1 6 30
M  V30 34 1 6 31
M  V30 35 1 7 32
M  V30 36 1 7 33
M  V30 37 1 8 34
M  V30 38 1 8 35
M  V30 39 1 9 36
M  V30 40 1 10 37
M  V30 41 1 10 38
M  V30 42 1 12 39
M  V30 43 1 13 40
M  V30 44 1 18 41
M  V30 45 1 18 42
M  V30 46 1 20 43
M  V30 47 1 21 44
M  V30 48 1 22 45
M  V30 49 1 24 46
M  V30 END BOND
M  V30 END CTAB
M  END
>  <Dataset>  (528) 
ChEMBL_Kinases

>  <Ligand_Instance>  (528) 
nan

>  <PDB_ID>  (528) 
nan

>  <Standardized_SMILES>  (528) 
O=C(NC[C@H]1CCCNC1)c1ccnc2nc(Cc3cccs3)[nH]c12

>  <Name>  (528) 
nan

>  <Pocket>  (528) 
nan

>  <ATP_Site>  (528) 
nan

>  <Peripheral>  (528) 
nan

>  <Num_H_Atoms_ProtBoundConf>  (528) 
nan

>  <Num_Resolved_Atoms>  (528) 
nan

>  <Num_Not_Resolved_Atoms>  (528) 
nan

$$$$
CHEMBL3714774
     RDKit          3D

  0  0  0  0  0  0  0  0  0  0999 V3000
M  V30 BEGIN CTAB
M  V30 COUNTS 36 38 0 0 0
M  V30 BEGIN ATOM
M  V30 1 O 3.143079 -4.272942 3.080445 0
M  V30 2 C 3.324329 -4.976423 2.054815 0
M  V30 3 O 2.409535 -5.996288 1.837911 0
M  V30 4 C 4.421926 -4.820345 1.055244 0
M  V30 5 S 5.511005 -3.430451 1.516650 0
M  V30 6 C 4.529349 -1.922266 1.373193 0
M  V30 7 N 4.887997 -0.645192 1.614351 0
M  V30 8 N 3.848595 0.143875 1.380993 0
M  V30 9 C 2.787910 -0.584570 0.983637 0
M  V30 10 C 1.465024 -0.079029 0.633698 0
M  V30 11 C 0.465368 -0.943081 0.236533 0
M  V30 12 C -0.805345 -0.474836 -0.101393 0
M  V30 13 C -1.097049 0.888241 -0.045504 0
M  V30 14 N -2.379585 1.413363 -0.381553 0
M  V30 15 C -2.680057 2.829199 -0.323862 0
M  V30 16 C -4.165813 2.968552 -0.302418 0
M  V30 17 C -4.665336 1.552365 -0.411783 0
M  V30 18 C -3.509834 0.706180 -0.803159 0
M  V30 19 O -3.522898 -0.397681 -1.382463 0
M  V30 20 C -0.046831 1.683694 0.359991 0
M  V30 21 C 1.224229 1.275641 0.704522 0
M  V30 22 N 3.228100 -1.858520 0.985037 0
M  V30 23 H 1.568862 -6.095212 2.424547 0
M  V30 24 H 4.978293 -5.772250 0.954528 0
M  V30 25 H 3.974982 -4.560591 0.073482 0
M  V30 26 H 0.629442 -2.012051 0.172385 0
M  V30 27 H -1.547947 -1.164917 -0.402164 0
M  V30 28 H -2.210200 3.310885 -1.208681 0
M  V30 29 H -2.263788 3.279239 0.623642 0
M  V30 30 H -4.546589 3.601727 -1.147413 0
M  V30 31 H -4.475556 3.420099 0.682050 0
M  V30 32 H -5.095536 1.259325 0.575056 0
M  V30 33 H -5.493580 1.454569 -1.150023 0
M  V30 34 H -0.263827 2.761794 0.409123 0
M  V30 35 H 1.954856 2.015495 1.005766 0
M  V30 36 H 2.630559 -2.684469 0.717801 0
M  V30 END ATOM
M  V30 BEGIN BOND
M  V30 1 2 1 2
M  V30 2 1 2 3
M  V30 3 1 2 4
M  V30 4 1 4 5
M  V30 5 1 5 6
M  V30 6 2 6 7
M  V30 7 1 7 8
M  V30 8 2 8 9
M  V30 9 1 9 10
M  V30 10 2 10 11
M  V30 11 1 11 12
M  V30 12 2 12 13
M  V30 13 1 13 14
M  V30 14 1 14 15
M  V30 15 1 15 16
M  V30 16 1 16 17
M  V30 17 1 17 18
M  V30 18 2 18 19
M  V30 19 1 13 20
M  V30 20 2 20 21
M  V30 21 1 9 22
M  V30 22 1 22 6
M  V30 23 1 21 10
M  V30 24 1 18 14
M  V30 25 1 3 23
M  V30 26 1 4 24
M  V30 27 1 4 25
M  V30 28 1 11 26
M  V30 29 1 12 27
M  V30 30 1 15 28
M  V30 31 1 15 29
M  V30 32 1 16 30
M  V30 33 1 16 31
M  V30 34 1 17 32
M  V30 35 1 17 33
M  V30 36 1 20 34
M  V30 37 1 21 35
M  V30 38 1 22 36
M  V30 END BOND
M  V30 END CTAB
M  END
>  <Dataset>  (529) 
ChEMBL_Kinases

>  <Ligand_Instance>  (529) 
nan

>  <PDB_ID>  (529) 
nan

>  <Standardized_SMILES>  (529) 
O=C(O)CSc1nnc(-c2ccc(N3CCCC3=O)cc2)[nH]1

>  <Name>  (529) 
nan

>  <Pocket>  (529) 
nan

>  <ATP_Site>  (529) 
nan

>  <Peripheral>  (529) 
nan

>  <Num_H_Atoms_ProtBoundConf>  (529) 
nan

>  <Num_Resolved_Atoms>  (529) 
nan

>  <Num_Not_Resolved_Atoms>  (529) 
nan

$$$$
CHEMBL3714792
     RDKit          3D

  0  0  0  0  0  0  0  0  0  0999 V3000
M  V30 BEGIN CTAB
M  V30 COUNTS 42 45 0 0 0
M  V30 BEGIN ATOM
M  V30 1 C 1.829905 -4.286188 0.068753 0
M  V30 2 C 1.413782 -3.508400 1.319630 0
M  V30 3 C -0.026241 -3.708496 1.647148 0
M  V30 4 C -0.830927 -2.432238 1.588819 0
M  V30 5 C -2.269776 -2.752952 1.827468 0
M  V30 6 C -0.573520 -1.659092 0.341949 0
M  V30 7 N 0.858139 -1.309762 0.326388 0
M  V30 8 C 1.386739 -0.279343 -0.495642 0
M  V30 9 N 2.092064 -0.797699 -1.525241 0
M  V30 10 C 2.650314 0.034017 -2.452572 0
M  V30 11 N 2.505629 1.386161 -2.353850 0
M  V30 12 C 1.809062 1.920930 -1.337561 0
M  V30 13 N 1.496607 3.174123 -0.961569 0
M  V30 14 C 0.766855 3.128198 0.167481 0
M  V30 15 C 0.216468 4.123192 0.943889 0
M  V30 16 C -0.496900 3.820221 2.082229 0
M  V30 17 C -0.652965 2.478561 2.437387 0
M  V30 18 O -1.394269 2.260473 3.613102 0
M  V30 19 C -0.095410 1.495428 1.648365 0
M  V30 20 C 0.604158 1.812900 0.528799 0
M  V30 21 C 1.248552 1.082063 -0.405402 0
M  V30 22 C 1.792310 -2.049287 1.191579 0
M  V30 23 H 2.421315 -3.660602 -0.634898 0
M  V30 24 H 2.392680 -5.211304 0.316585 0
M  V30 25 H 0.893020 -4.639967 -0.450111 0
M  V30 26 H 2.030186 -3.899151 2.153466 0
M  V30 27 H -0.118888 -4.212439 2.627540 0
M  V30 28 H -0.432253 -4.465909 0.914109 0
M  V30 29 H -0.495129 -1.828893 2.460530 0
M  V30 30 H -2.391627 -2.961159 2.915458 0
M  V30 31 H -2.944936 -1.938565 1.507355 0
M  V30 32 H -2.552251 -3.711651 1.312174 0
M  V30 33 H -0.792708 -2.304339 -0.551700 0
M  V30 34 H -1.227433 -0.792364 0.273667 0
M  V30 35 H 3.225072 -0.386704 -3.291960 0
M  V30 36 H 1.792628 4.029005 -1.490110 0
M  V30 37 H 0.370723 5.162694 0.617009 0
M  V30 38 H -0.922971 4.608155 2.681481 0
M  V30 39 H -2.101552 1.556724 3.594351 0
M  V30 40 H -0.294794 0.525188 2.058369 0
M  V30 41 H 2.766877 -2.040614 0.662303 0
M  V30 42 H 1.916354 -1.553458 2.154944 0
M  V30 END ATOM
M  V30 BEGIN BOND
M  V30 1 1 1 2
M  V30 2 1 2 3
M  V30 3 1 3 4
M  V30 4 1 4 5
M  V30 5 1 4 6
M  V30 6 1 6 7
M  V30 7 1 7 8
M  V30 8 2 8 9
M  V30 9 1 9 10
M  V30 10 2 10 11
M  V30 11 1 11 12
M  V30 12 1 12 13
M  V30 13 1 13 14
M  V30 14 2 14 15
M  V30 15 1 15 16
M  V30 16 2 16 17
M  V30 17 1 17 18
M  V30 18 1 17 19
M  V30 19 2 19 20
M  V30 20 1 20 21
M  V30 21 1 7 22
M  V30 22 1 22 2
M  V30 23 1 21 8
M  V30 24 2 21 12
M  V30 25 1 20 14
M  V30 26 1 1 23
M  V30 27 1 1 24
M  V30 28 1 1 25
M  V30 29 1 2 26
M  V30 30 1 3 27
M  V30 31 1 3 28
M  V30 32 1 4 29
M  V30 33 1 5 30
M  V30 34 1 5 31
M  V30 35 1 5 32
M  V30 36 1 6 33
M  V30 37 1 6 34
M  V30 38 1 10 35
M  V30 39 1 13 36
M  V30 40 1 15 37
M  V30 41 1 16 38
M  V30 42 1 18 39
M  V30 43 1 19 40
M  V30 44 1 22 41
M  V30 45 1 22 42
M  V30 END BOND
M  V30 END CTAB
M  END
>  <Dataset>  (530) 
ChEMBL_Kinases

>  <Ligand_Instance>  (530) 
nan

>  <PDB_ID>  (530) 
nan

>  <Standardized_SMILES>  (530) 
CC1CC(C)CN(c2ncnc3[nH]c4ccc(O)cc4c23)C1

>  <Name>  (530) 
nan

>  <Pocket>  (530) 
nan

>  <ATP_Site>  (530) 
nan

>  <Peripheral>  (530) 
nan

>  <Num_H_Atoms_ProtBoundConf>  (530) 
nan

>  <Num_Resolved_Atoms>  (530) 
nan

>  <Num_Not_Resolved_Atoms>  (530) 
nan

$$$$
CHEMBL3714810
     RDKit          3D

  0  0  0  0  0  0  0  0  0  0999 V3000
M  V30 BEGIN CTAB
M  V30 COUNTS 56 60 0 0 0
M  V30 BEGIN ATOM
M  V30 1 C 4.316860 -2.670016 3.363055 0
M  V30 2 C 3.927984 -2.462494 1.940027 0
M  V30 3 O 3.126497 -3.204967 1.354314 0
M  V30 4 N 4.450724 -1.405569 1.173082 0
M  V30 5 C 4.091663 -1.197888 -0.174257 0
M  V30 6 C 3.027745 -0.416116 -0.593917 0
M  V30 7 C 2.704919 -0.234780 -1.920228 0
M  V30 8 N 1.616519 0.561153 -2.352485 0
M  V30 9 C 0.760774 1.233660 -1.401107 0
M  V30 10 C 0.099957 0.183119 -0.546312 0
M  V30 11 O 0.007461 -1.067470 -0.348420 0
M  V30 12 N -0.757169 0.820097 0.420970 0
M  V30 13 C -1.455863 -0.126733 1.313689 0
M  V30 14 N -2.459914 -0.667177 1.250975 0
M  V30 15 C -3.065217 -1.505674 2.054339 0
M  V30 16 C -4.260956 -2.190831 2.047683 0
M  V30 17 C -5.206983 -2.043569 0.911032 0
M  V30 18 F -4.518022 -2.469162 -0.227327 0
M  V30 19 F -6.289542 -2.852500 1.030025 0
M  V30 20 F -5.622020 -0.753506 0.712537 0
M  V30 21 C -4.622108 -3.020105 3.066627 0
M  V30 22 C -3.891854 -3.284318 4.190669 0
M  V30 23 N -3.895879 -3.978995 5.326671 0
M  V30 24 N -2.829797 -3.819393 6.073001 0
M  V30 25 C -2.022807 -2.960469 5.426876 0
M  V30 26 C -2.682112 -2.635442 4.270161 0
M  V30 27 C -2.305351 -1.791437 3.241633 0
M  V30 28 S -0.775901 -0.750901 2.980643 0
M  V30 29 C -0.280042 2.049132 -2.074878 0
M  V30 30 C -0.947432 1.450554 -3.144614 0
M  V30 31 C -1.925210 2.114829 -3.834600 0
M  V30 32 C -2.292435 3.413156 -3.496788 0
M  V30 33 C -1.625378 3.993171 -2.438006 0
M  V30 34 C -0.636264 3.349249 -1.724076 0
M  V30 35 C 3.516758 -0.888031 -2.822613 0
M  V30 36 C 4.601035 -1.687806 -2.462695 0
M  V30 37 C 4.873013 -1.829996 -1.114302 0
M  V30 38 Cl 6.236441 -2.837253 -0.694927 0
M  V30 39 H 4.902086 -1.808727 3.725731 0
M  V30 40 H 3.426525 -2.763067 4.016946 0
M  V30 41 H 4.973669 -3.578961 3.474912 0
M  V30 42 H 5.140062 -0.716678 1.576320 0
M  V30 43 H 2.447705 0.059586 0.184039 0
M  V30 44 H 1.440629 0.655368 -3.375162 0
M  V30 45 H 1.366497 1.894582 -0.748338 0
M  V30 46 H -0.956435 1.829346 0.584751 0
M  V30 47 H -5.588682 -3.552315 3.025827 0
M  V30 48 H -4.721673 -4.601211 5.566389 0
M  V30 49 H -1.033984 -2.557173 5.700368 0
M  V30 50 H -0.748350 0.445154 -3.499246 0
M  V30 51 H -2.475117 1.684251 -4.680310 0
M  V30 52 H -3.061259 3.947705 -4.032589 0
M  V30 53 H -1.897696 5.018480 -2.151828 0
M  V30 54 H -0.098830 3.785721 -0.888603 0
M  V30 55 H 3.324689 -0.793188 -3.891930 0
M  V30 56 H 5.193572 -2.170259 -3.240890 0
M  V30 END ATOM
M  V30 BEGIN BOND
M  V30 1 1 1 2
M  V30 2 2 2 3
M  V30 3 1 2 4
M  V30 4 1 4 5
M  V30 5 2 5 6
M  V30 6 1 6 7
M  V30 7 1 7 8
M  V30 8 1 8 9
M  V30 9 1 9 10
M  V30 10 2 10 11
M  V30 11 1 10 12
M  V30 12 1 12 13
M  V30 13 2 13 14
M  V30 14 1 14 15
M  V30 15 2 15 16
M  V30 16 1 16 17
M  V30 17 1 17 18
M  V30 18 1 17 19
M  V30 19 1 17 20
M  V30 20 1 16 21
M  V30 21 2 21 22
M  V30 22 1 22 23
M  V30 23 1 23 24
M  V30 24 2 24 25
M  V30 25 1 25 26
M  V30 26 2 26 27
M  V30 27 1 27 28
M  V30 28 1 9 29
M  V30 29 2 29 30
M  V30 30 1 30 31
M  V30 31 2 31 32
M  V30 32 1 32 33
M  V30 33 2 33 34
M  V30 34 2 7 35
M  V30 35 1 35 36
M  V30 36 2 36 37
M  V30 37 1 37 38
M  V30 38 1 37 5
M  V30 39 1 28 13
M  V30 40 1 34 29
M  V30 41 1 27 15
M  V30 42 1 26 22
M  V30 43 1 1 39
M  V30 44 1 1 40
M  V30 45 1 1 41
M  V30 46 1 4 42
M  V30 47 1 6 43
M  V30 48 1 8 44
M  V30 49 1 9 45
M  V30 50 1 12 46
M  V30 51 1 21 47
M  V30 52 1 23 48
M  V30 53 1 25 49
M  V30 54 1 30 50
M  V30 55 1 31 51
M  V30 56 1 32 52
M  V30 57 1 33 53
M  V30 58 1 34 54
M  V30 59 1 35 55
M  V30 60 1 36 56
M  V30 END BOND
M  V30 END CTAB
M  END
>  <Dataset>  (531) 
ChEMBL_Kinases

>  <Ligand_Instance>  (531) 
nan

>  <PDB_ID>  (531) 
nan

>  <Standardized_SMILES>  (531) 
CC(=O)Nc1cc(NC(C(=O)Nc2nc3c(C(F)(F)F)cc4[nH]ncc4c3s2)c2ccccc2)ccc1Cl

>  <Name>  (531) 
nan

>  <Pocket>  (531) 
nan

>  <ATP_Site>  (531) 
nan

>  <Peripheral>  (531) 
nan

>  <Num_H_Atoms_ProtBoundConf>  (531) 
nan

>  <Num_Resolved_Atoms>  (531) 
nan

>  <Num_Not_Resolved_Atoms>  (531) 
nan

$$$$
CHEMBL3714835
     RDKit          3D

  0  0  0  0  0  0  0  0  0  0999 V3000
M  V30 BEGIN CTAB
M  V30 COUNTS 42 45 0 0 0
M  V30 BEGIN ATOM
M  V30 1 O 1.942326 -2.421860 0.836860 0
M  V30 2 C 1.878394 -1.189959 0.500480 0
M  V30 3 N 1.341609 -0.800045 -0.752478 0
M  V30 4 C 0.855302 -1.772756 -1.670389 0 CFG=2
M  V30 5 C 1.594375 -1.789926 -3.006532 0
M  V30 6 C 0.817550 -2.815848 -3.843592 0
M  V30 7 C -0.413122 -2.084996 -4.346736 0
M  V30 8 N -0.833639 -1.123944 -3.359443 0
M  V30 9 C -0.599256 -1.535894 -1.996194 0
M  V30 10 C 2.344484 -0.077786 1.364815 0
M  V30 11 C 3.494682 0.662324 1.236952 0
M  V30 12 C 3.717485 1.665487 2.182853 0
M  V30 13 C 2.824783 1.911686 3.208139 0
M  V30 14 O 3.126608 2.929314 4.103304 0
M  V30 15 C 1.653802 1.159083 3.338850 0
M  V30 16 N 0.652845 1.220365 4.244076 0
M  V30 17 C -0.210403 0.258368 3.880605 0
M  V30 18 C -1.487878 -0.101731 4.539647 0
M  V30 19 C -2.355504 -1.072408 4.180509 0
M  V30 20 C -3.474027 -1.210349 4.949910 0
M  V30 21 C -3.646029 -0.361687 6.031491 0
M  V30 22 S -2.108678 0.711936 5.951900 0
M  V30 23 N 0.263135 -0.358816 2.788907 0
M  V30 24 C 1.441195 0.169832 2.401227 0
M  V30 25 H 1.253218 0.175039 -1.108056 0
M  V30 26 H 0.942635 -2.823040 -1.294575 0
M  V30 27 H 2.647085 -2.124118 -2.901070 0
M  V30 28 H 1.527354 -0.791002 -3.491917 0
M  V30 29 H 0.431810 -3.632571 -3.164891 0
M  V30 30 H 1.416451 -3.275261 -4.629595 0
M  V30 31 H -1.265040 -2.777867 -4.530950 0
M  V30 32 H -0.181284 -1.593367 -5.307017 0
M  V30 33 H -0.574009 -0.138411 -3.566689 0
M  V30 34 H -1.251456 -2.402193 -1.760558 0
M  V30 35 H -0.966956 -0.701594 -1.352493 0
M  V30 36 H 4.104491 0.383494 0.412817 0
M  V30 37 H 4.640563 2.224773 2.041384 0
M  V30 38 H 2.676266 3.837195 4.014407 0
M  V30 39 H 0.556920 1.873844 5.055961 0
M  V30 40 H -2.164469 -1.705303 3.324771 0
M  V30 41 H -4.262860 -1.957061 4.773861 0
M  V30 42 H -4.485869 -0.335495 6.751164 0
M  V30 END ATOM
M  V30 BEGIN BOND
M  V30 1 2 1 2
M  V30 2 1 2 3
M  V30 3 1 3 4
M  V30 4 1 4 5
M  V30 5 1 5 6
M  V30 6 1 6 7
M  V30 7 1 7 8
M  V30 8 1 8 9
M  V30 9 1 2 10
M  V30 10 2 10 11
M  V30 11 1 11 12
M  V30 12 2 12 13
M  V30 13 1 13 14
M  V30 14 1 13 15
M  V30 15 1 15 16
M  V30 16 1 16 17
M  V30 17 1 17 18
M  V30 18 2 18 19
M  V30 19 1 19 20
M  V30 20 2 20 21
M  V30 21 1 21 22
M  V30 22 2 17 23
M  V30 23 1 23 24
M  V30 24 1 9 4
M  V30 25 1 24 10
M  V30 26 2 24 15
M  V30 27 1 22 18
M  V30 28 1 3 25
M  V30 29 1 4 26 CFG=1
M  V30 30 1 5 27
M  V30 31 1 5 28
M  V30 32 1 6 29
M  V30 33 1 6 30
M  V30 34 1 7 31
M  V30 35 1 7 32
M  V30 36 1 8 33
M  V30 37 1 9 34
M  V30 38 1 9 35
M  V30 39 1 11 36
M  V30 40 1 12 37
M  V30 41 1 14 38
M  V30 42 1 16 39
M  V30 43 1 19 40
M  V30 44 1 20 41
M  V30 45 1 21 42
M  V30 END BOND
M  V30 END CTAB
M  END
>  <Dataset>  (532) 
ChEMBL_Kinases

>  <Ligand_Instance>  (532) 
nan

>  <PDB_ID>  (532) 
nan

>  <Standardized_SMILES>  (532) 
O=C(N[C@@H]1CCCNC1)c1ccc(O)c2[nH]c(-c3cccs3)nc12

>  <Name>  (532) 
nan

>  <Pocket>  (532) 
nan

>  <ATP_Site>  (532) 
nan

>  <Peripheral>  (532) 
nan

>  <Num_H_Atoms_ProtBoundConf>  (532) 
nan

>  <Num_Resolved_Atoms>  (532) 
nan

>  <Num_Not_Resolved_Atoms>  (532) 
nan

$$$$
CHEMBL3714837
     RDKit          3D

  0  0  0  0  0  0  0  0  0  0999 V3000
M  V30 BEGIN CTAB
M  V30 COUNTS 45 48 0 0 0
M  V30 BEGIN ATOM
M  V30 1 O 0.508723 -1.954957 2.789540 0
M  V30 2 C 1.299838 -1.163897 2.217310 0
M  V30 3 N 2.303976 -1.269121 1.226815 0
M  V30 4 C 2.668515 -2.513069 0.578532 0 CFG=1
M  V30 5 C 2.532544 -2.286106 -0.910287 0
M  V30 6 C 2.589853 -3.625524 -1.585254 0
M  V30 7 C 3.282965 -4.589217 -0.648712 0
M  V30 8 N 4.433928 -4.006497 -0.008625 0
M  V30 9 C 4.121398 -2.891525 0.838239 0
M  V30 10 C 0.995652 0.152955 2.820399 0
M  V30 11 C 1.689268 0.829634 3.801837 0
M  V30 12 C 1.216811 2.055640 4.218612 0
M  V30 13 C 0.075499 2.628898 3.689169 0
M  V30 14 O -0.360318 3.873424 4.144271 0
M  V30 15 C -0.632484 1.964937 2.704835 0
M  V30 16 N -1.751516 2.293737 2.035162 0
M  V30 17 C -2.012687 1.293497 1.187471 0
M  V30 18 C -3.103217 1.110488 0.216698 0
M  V30 19 C -3.191514 -0.013847 -0.603963 0
M  V30 20 C -4.221497 -0.170794 -1.502979 0
M  V30 21 C -5.206178 0.791781 -1.618522 0
M  V30 22 C -5.145955 1.929406 -0.810502 0
M  V30 23 C -4.088606 2.055558 0.089212 0
M  V30 24 N -1.049202 0.369866 1.351861 0
M  V30 25 C -0.157440 0.744993 2.294084 0
M  V30 26 H 2.799903 -0.390665 0.958764 0
M  V30 27 H 2.076391 -3.363770 0.914923 0
M  V30 28 H 1.609773 -1.720699 -1.162564 0
M  V30 29 H 3.414265 -1.676853 -1.239766 0
M  V30 30 H 3.173542 -3.525047 -2.523468 0
M  V30 31 H 1.559334 -3.927331 -1.816462 0
M  V30 32 H 3.685929 -5.405634 -1.310919 0
M  V30 33 H 2.596283 -5.118467 0.037651 0
M  V30 34 H 5.059753 -3.679883 -0.788498 0
M  V30 35 H 4.185462 -3.233250 1.894895 0
M  V30 36 H 4.795498 -2.041088 0.613565 0
M  V30 37 H 2.552973 0.307498 4.142033 0
M  V30 38 H 1.800737 2.553308 5.004480 0
M  V30 39 H -0.300611 4.704561 3.564644 0
M  V30 40 H -2.345516 3.158008 2.118870 0
M  V30 41 H -2.414342 -0.791909 -0.527650 0
M  V30 42 H -4.206622 -1.090936 -2.108121 0
M  V30 43 H -6.003626 0.611523 -2.347951 0
M  V30 44 H -5.914948 2.672839 -0.911344 0
M  V30 45 H -4.093701 2.974528 0.691861 0
M  V30 END ATOM
M  V30 BEGIN BOND
M  V30 1 2 1 2
M  V30 2 1 2 3
M  V30 3 1 3 4
M  V30 4 1 4 5
M  V30 5 1 5 6
M  V30 6 1 6 7
M  V30 7 1 7 8
M  V30 8 1 8 9
M  V30 9 1 2 10
M  V30 10 2 10 11
M  V30 11 1 11 12
M  V30 12 2 12 13
M  V30 13 1 13 14
M  V30 14 1 13 15
M  V30 15 1 15 16
M  V30 16 1 16 17
M  V30 17 1 17 18
M  V30 18 2 18 19
M  V30 19 1 19 20
M  V30 20 2 20 21
M  V30 21 1 21 22
M  V30 22 2 22 23
M  V30 23 2 17 24
M  V30 24 1 24 25
M  V30 25 1 9 4
M  V30 26 1 25 10
M  V30 27 2 25 15
M  V30 28 1 23 18
M  V30 29 1 3 26
M  V30 30 1 4 27 CFG=1
M  V30 31 1 5 28
M  V30 32 1 5 29
M  V30 33 1 6 30
M  V30 34 1 6 31
M  V30 35 1 7 32
M  V30 36 1 7 33
M  V30 37 1 8 34
M  V30 38 1 9 35
M  V30 39 1 9 36
M  V30 40 1 11 37
M  V30 41 1 12 38
M  V30 42 1 14 39
M  V30 43 1 16 40
M  V30 44 1 19 41
M  V30 45 1 20 42
M  V30 46 1 21 43
M  V30 47 1 22 44
M  V30 48 1 23 45
M  V30 END BOND
M  V30 END CTAB
M  END
>  <Dataset>  (533) 
ChEMBL_Kinases

>  <Ligand_Instance>  (533) 
nan

>  <PDB_ID>  (533) 
nan

>  <Standardized_SMILES>  (533) 
O=C(N[C@H]1CCCNC1)c1ccc(O)c2[nH]c(-c3ccccc3)nc12

>  <Name>  (533) 
nan

>  <Pocket>  (533) 
nan

>  <ATP_Site>  (533) 
nan

>  <Peripheral>  (533) 
nan

>  <Num_H_Atoms_ProtBoundConf>  (533) 
nan

>  <Num_Resolved_Atoms>  (533) 
nan

>  <Num_Not_Resolved_Atoms>  (533) 
nan

$$$$
CHEMBL566850
     RDKit          3D

  0  0  0  0  0  0  0  0  0  0999 V3000
M  V30 BEGIN CTAB
M  V30 COUNTS 48 51 0 0 0
M  V30 BEGIN ATOM
M  V30 1 C 3.677889 -6.717841 4.970582 0
M  V30 2 C 3.203531 -5.627567 4.083896 0
M  V30 3 O 2.067715 -5.136843 4.310053 0
M  V30 4 N 3.925384 -5.099792 3.010307 0
M  V30 5 C 3.617106 -4.075636 2.085881 0
M  V30 6 C 4.524192 -3.752556 1.103468 0
M  V30 7 C 4.287174 -2.767179 0.170118 0
M  V30 8 C 3.098272 -2.041580 0.179457 0
M  V30 9 N 2.808430 -1.030667 -0.769167 0
M  V30 10 C 1.635202 -0.252345 -0.650514 0
M  V30 11 N 1.929288 0.906864 -0.033294 0
M  V30 12 C 0.975505 1.846505 0.213903 0
M  V30 13 C -0.305641 1.535464 -0.206481 0
M  V30 14 C -1.343112 2.449747 0.013668 0
M  V30 15 C -2.610188 2.089181 -0.424785 0
M  V30 16 C -3.585635 3.148901 -0.122764 0
M  V30 17 C -4.212157 3.033719 1.123553 0
M  V30 18 Cl -3.875765 1.729989 2.244435 0
M  V30 19 C -5.149056 3.988377 1.509175 0
M  V30 20 C -5.446735 5.026748 0.667321 0
M  V30 21 C -4.837418 5.150748 -0.560480 0
M  V30 22 C -3.895874 4.200381 -0.959642 0
M  V30 23 Cl -3.013837 4.178918 -2.472210 0
M  V30 24 C -2.864122 0.886340 -1.053633 0
M  V30 25 O -4.054453 0.695857 -1.395747 0
M  V30 26 N -1.864807 0.011151 -1.262951 0
M  V30 27 C -2.145736 -1.250160 -1.920810 0
M  V30 28 C -0.636449 0.357106 -0.840190 0
M  V30 29 N 0.360279 -0.533887 -1.055644 0
M  V30 30 C 2.191597 -2.350682 1.146466 0
M  V30 31 C 2.458792 -3.337597 2.061121 0
M  V30 32 H 4.736276 -6.527860 5.253240 0
M  V30 33 H 3.106066 -6.717803 5.920027 0
M  V30 34 H 3.549366 -7.705416 4.480244 0
M  V30 35 H 4.862337 -5.582813 2.908720 0
M  V30 36 H 5.495088 -4.244438 0.982947 0
M  V30 37 H 4.993619 -2.515157 -0.591991 0
M  V30 38 H 3.413670 -0.799005 -1.586488 0
M  V30 39 H 1.170948 2.801394 0.712363 0
M  V30 40 H -1.064017 3.358171 0.506964 0
M  V30 41 H -5.693165 4.003045 2.439827 0
M  V30 42 H -6.181215 5.806329 0.929243 0
M  V30 43 H -4.991262 5.920830 -1.301634 0
M  V30 44 H -2.323143 -1.165276 -3.000567 0
M  V30 45 H -2.962683 -1.829096 -1.436362 0
M  V30 46 H -1.242066 -1.923068 -1.833825 0
M  V30 47 H 1.264811 -1.796141 1.165756 0
M  V30 48 H 1.690025 -3.512570 2.781166 0
M  V30 END ATOM
M  V30 BEGIN BOND
M  V30 1 1 1 2
M  V30 2 2 2 3
M  V30 3 1 2 4
M  V30 4 1 4 5
M  V30 5 2 5 6
M  V30 6 1 6 7
M  V30 7 2 7 8
M  V30 8 1 8 9
M  V30 9 1 9 10
M  V30 10 2 10 11
M  V30 11 1 11 12
M  V30 12 2 12 13
M  V30 13 1 13 14
M  V30 14 2 14 15
M  V30 15 1 15 16
M  V30 16 2 16 17
M  V30 17 1 17 18
M  V30 18 1 17 19
M  V30 19 2 19 20
M  V30 20 1 20 21
M  V30 21 2 21 22
M  V30 22 1 22 23
M  V30 23 1 15 24
M  V30 24 2 24 25
M  V30 25 1 24 26
M  V30 26 1 26 27
M  V30 27 1 26 28
M  V30 28 2 28 29
M  V30 29 1 8 30
M  V30 30 2 30 31
M  V30 31 1 31 5
M  V30 32 1 29 10
M  V30 33 1 28 13
M  V30 34 1 22 16
M  V30 35 1 1 32
M  V30 36 1 1 33
M  V30 37 1 1 34
M  V30 38 1 4 35
M  V30 39 1 6 36
M  V30 40 1 7 37
M  V30 41 1 9 38
M  V30 42 1 12 39
M  V30 43 1 14 40
M  V30 44 1 19 41
M  V30 45 1 20 42
M  V30 46 1 21 43
M  V30 47 1 27 44
M  V30 48 1 27 45
M  V30 49 1 27 46
M  V30 50 1 30 47
M  V30 51 1 31 48
M  V30 END BOND
M  V30 END CTAB
M  END
>  <Dataset>  (534) 
ChEMBL_Kinases

>  <Ligand_Instance>  (534) 
nan

>  <PDB_ID>  (534) 
nan

>  <Standardized_SMILES>  (534) 
CC(=O)Nc1ccc(Nc2ncc3cc(-c4c(Cl)cccc4Cl)c(=O)n(C)c3n2)cc1

>  <Name>  (534) 
nan

>  <Pocket>  (534) 
nan

>  <ATP_Site>  (534) 
nan

>  <Peripheral>  (534) 
nan

>  <Num_H_Atoms_ProtBoundConf>  (534) 
nan

>  <Num_Resolved_Atoms>  (534) 
nan

>  <Num_Not_Resolved_Atoms>  (534) 
nan

$$$$
CHEMBL3716214
     RDKit          3D

  0  0  0  0  0  0  0  0  0  0999 V3000
M  V30 BEGIN CTAB
M  V30 COUNTS 31 32 0 0 0
M  V30 BEGIN ATOM
M  V30 1 C -1.980966 -4.337003 5.249036 0
M  V30 2 O -1.559086 -3.443518 4.234407 0
M  V30 3 C -0.902585 -3.864350 3.091377 0
M  V30 4 O -0.719641 -5.107698 3.044371 0
M  V30 5 C -0.433159 -3.031432 2.000644 0
M  V30 6 C 0.200381 -3.699043 0.961530 0
M  V30 7 C 0.662465 -2.917023 -0.103813 0
M  V30 8 C 0.496482 -1.542937 -0.122338 0
M  V30 9 C 0.973067 -0.708360 -1.228136 0
M  V30 10 N 1.612509 -1.112453 -2.341232 0
M  V30 11 N 1.897041 -0.075069 -3.132880 0
M  V30 12 C 1.430985 1.025989 -2.517927 0
M  V30 13 S 1.565522 2.682331 -3.177483 0
M  V30 14 C 0.804933 3.879241 -2.032728 0
M  V30 15 C 1.541531 3.972410 -0.765916 0
M  V30 16 O 2.588487 3.343827 -0.409834 0
M  V30 17 O 1.039808 4.859667 0.175909 0
M  V30 18 N 0.870710 0.637084 -1.361767 0
M  V30 19 C -0.145057 -0.888054 0.935004 0
M  V30 20 C -0.604895 -1.663160 1.994527 0
M  V30 21 H -1.176198 -4.592890 5.946457 0
M  V30 22 H -2.402627 -5.266396 4.767655 0
M  V30 23 H -2.815247 -3.877210 5.806518 0
M  V30 24 H 0.356645 -4.767717 0.924904 0
M  V30 25 H 1.160667 -3.414154 -0.927486 0
M  V30 26 H 0.623072 4.843939 -2.508611 0
M  V30 27 H -0.218414 3.480616 -1.769894 0
M  V30 28 H 1.212975 4.758085 1.171193 0
M  V30 29 H 0.438645 1.291856 -0.702845 0
M  V30 30 H -0.261392 0.182745 0.895546 0
M  V30 31 H -1.102022 -1.173635 2.819276 0
M  V30 END ATOM
M  V30 BEGIN BOND
M  V30 1 1 1 2
M  V30 2 1 2 3
M  V30 3 2 3 4
M  V30 4 1 3 5
M  V30 5 2 5 6
M  V30 6 1 6 7
M  V30 7 2 7 8
M  V30 8 1 8 9
M  V30 9 2 9 10
M  V30 10 1 10 11
M  V30 11 2 11 12
M  V30 12 1 12 13
M  V30 13 1 13 14
M  V30 14 1 14 15
M  V30 15 2 15 16
M  V30 16 1 15 17
M  V30 17 1 12 18
M  V30 18 1 8 19
M  V30 19 2 19 20
M  V30 20 1 20 5
M  V30 21 1 18 9
M  V30 22 1 1 21
M  V30 23 1 1 22
M  V30 24 1 1 23
M  V30 25 1 6 24
M  V30 26 1 7 25
M  V30 27 1 14 26
M  V30 28 1 14 27
M  V30 29 1 17 28
M  V30 30 1 18 29
M  V30 31 1 19 30
M  V30 32 1 20 31
M  V30 END BOND
M  V30 END CTAB
M  END
>  <Dataset>  (535) 
ChEMBL_Kinases

>  <Ligand_Instance>  (535) 
nan

>  <PDB_ID>  (535) 
nan

>  <Standardized_SMILES>  (535) 
COC(=O)c1ccc(-c2nnc(SCC(=O)O)[nH]2)cc1

>  <Name>  (535) 
nan

>  <Pocket>  (535) 
nan

>  <ATP_Site>  (535) 
nan

>  <Peripheral>  (535) 
nan

>  <Num_H_Atoms_ProtBoundConf>  (535) 
nan

>  <Num_Resolved_Atoms>  (535) 
nan

>  <Num_Not_Resolved_Atoms>  (535) 
nan

$$$$
CHEMBL569340
     RDKit          3D

  0  0  0  0  0  0  0  0  0  0999 V3000
M  V30 BEGIN CTAB
M  V30 COUNTS 64 67 0 0 0
M  V30 BEGIN ATOM
M  V30 1 C 3.837357 0.958676 2.934687 0
M  V30 2 N 4.341545 2.318512 2.756149 0
M  V30 3 C 5.577512 2.984301 3.049425 0
M  V30 4 O 6.594639 2.272416 3.311186 0
M  V30 5 N 5.344686 4.400328 2.969140 0
M  V30 6 C 3.957970 4.596074 2.624657 0
M  V30 7 O 3.491022 5.754274 2.780204 0
M  V30 8 C 3.466768 3.275332 2.156993 0 CFG=1
M  V30 9 C 3.525885 3.274904 0.644319 0
M  V30 10 C 2.538351 2.191045 0.300011 0
M  V30 11 C 2.493866 1.438932 -0.855122 0
M  V30 12 C 1.483583 0.488392 -0.945168 0
M  V30 13 C 0.603709 0.360158 0.110250 0
M  V30 14 N -0.377206 -0.654839 -0.125865 0
M  V30 15 C 0.164057 -1.891400 0.377205 0
M  V30 16 O 1.337282 -1.790589 0.887400 0
M  V30 17 C -0.258608 -3.285450 0.475193 0
M  V30 18 N -1.587042 -3.562957 -0.047358 0
M  V30 19 C -2.646220 -3.517852 0.919339 0
M  V30 20 C -3.283489 -2.202503 1.105231 0
M  V30 21 C -2.725363 -1.344407 2.062172 0
M  V30 22 C -3.218731 -0.090612 2.344427 0
M  V30 23 F -2.640881 0.702123 3.281662 0
M  V30 24 C -4.322501 0.379436 1.666906 0
M  V30 25 C -4.911870 -0.445131 0.702228 0
M  V30 26 F -5.999384 -0.042038 0.001275 0
M  V30 27 C -4.369551 -1.690562 0.466504 0
M  V30 28 C -1.624479 -3.859315 -1.434756 0
M  V30 29 O -0.385112 -3.759247 -1.733917 0
M  V30 30 C -2.583119 -4.206876 -2.484813 0
M  V30 31 C -3.625131 -3.161503 -2.748557 0
M  V30 32 C -1.845039 -4.499067 -3.761331 0
M  V30 33 C -3.348238 -5.490617 -2.152411 0
M  V30 34 C 0.664397 1.122725 1.258770 0
M  V30 35 C 1.660937 2.071552 1.365730 0
M  V30 36 C 2.003067 3.042825 2.446439 0
M  V30 37 H 3.839817 0.426855 1.938936 0
M  V30 38 H 2.842811 0.958256 3.406272 0
M  V30 39 H 4.503011 0.335995 3.573365 0
M  V30 40 H 6.200602 4.991134 3.170003 0
M  V30 41 H 3.250790 4.248510 0.204730 0
M  V30 42 H 4.543693 3.019835 0.315337 0
M  V30 43 H 3.220820 1.591669 -1.650908 0
M  V30 44 H 1.466007 -0.085503 -1.850092 0
M  V30 45 H -1.330427 -0.875067 -0.517441 0
M  V30 46 H -0.177185 -3.621752 1.539453 0
M  V30 47 H 0.474550 -3.935678 -0.061045 0
M  V30 48 H -2.252726 -3.839272 1.930176 0
M  V30 49 H -3.439598 -4.276755 0.715731 0
M  V30 50 H -1.852957 -1.637115 2.641904 0
M  V30 51 H -4.737791 1.355337 1.859844 0
M  V30 52 H -4.830924 -2.325395 -0.276363 0
M  V30 53 H -4.631268 -3.453106 -2.383918 0
M  V30 54 H -3.670045 -2.947060 -3.827315 0
M  V30 55 H -3.283608 -2.225895 -2.266264 0
M  V30 56 H -1.465283 -5.555594 -3.805244 0
M  V30 57 H -2.427878 -4.234018 -4.672136 0
M  V30 58 H -0.929798 -3.862598 -3.818673 0
M  V30 59 H -2.663792 -6.246357 -1.753992 0
M  V30 60 H -3.737409 -5.868544 -3.123495 0
M  V30 61 H -4.225506 -5.297758 -1.519115 0
M  V30 62 H -0.068880 0.947810 2.027891 0
M  V30 63 H 1.777658 2.696931 3.452643 0
M  V30 64 H 1.481112 3.992714 2.175224 0
M  V30 END ATOM
M  V30 BEGIN BOND
M  V30 1 1 1 2
M  V30 2 1 2 3
M  V30 3 2 3 4
M  V30 4 1 3 5
M  V30 5 1 5 6
M  V30 6 2 6 7
M  V30 7 1 6 8
M  V30 8 1 8 9
M  V30 9 1 9 10
M  V30 10 2 10 11
M  V30 11 1 11 12
M  V30 12 2 12 13
M  V30 13 1 13 14
M  V30 14 1 14 15
M  V30 15 2 15 16
M  V30 16 1 15 17
M  V30 17 1 17 18
M  V30 18 1 18 19
M  V30 19 1 19 20
M  V30 20 2 20 21
M  V30 21 1 21 22
M  V30 22 1 22 23
M  V30 23 2 22 24
M  V30 24 1 24 25
M  V30 25 1 25 26
M  V30 26 2 25 27
M  V30 27 1 18 28
M  V30 28 2 28 29
M  V30 29 1 28 30
M  V30 30 1 30 31
M  V30 31 1 30 32
M  V30 32 1 30 33
M  V30 33 1 13 34
M  V30 34 2 34 35
M  V30 35 1 35 36
M  V30 36 1 8 2 CFG=1
M  V30 37 1 35 10
M  V30 38 1 36 8
M  V30 39 1 27 20
M  V30 40 1 1 37
M  V30 41 1 1 38
M  V30 42 1 1 39
M  V30 43 1 5 40
M  V30 44 1 9 41
M  V30 45 1 9 42
M  V30 46 1 11 43
M  V30 47 1 12 44
M  V30 48 1 14 45
M  V30 49 1 17 46
M  V30 50 1 17 47
M  V30 51 1 19 48
M  V30 52 1 19 49
M  V30 53 1 21 50
M  V30 54 1 24 51
M  V30 55 1 27 52
M  V30 56 1 31 53
M  V30 57 1 31 54
M  V30 58 1 31 55
M  V30 59 1 32 56
M  V30 60 1 32 57
M  V30 61 1 32 58
M  V30 62 1 33 59
M  V30 63 1 33 60
M  V30 64 1 33 61
M  V30 65 1 34 62
M  V30 66 1 36 63
M  V30 67 1 36 64
M  V30 END BOND
M  V30 END CTAB
M  END
>  <Dataset>  (536) 
ChEMBL_Kinases

>  <Ligand_Instance>  (536) 
nan

>  <PDB_ID>  (536) 
nan

>  <Standardized_SMILES>  (536) 
CN1C(=O)NC(=O)[C@@]12Cc1ccc(NC(=O)CN(Cc3cc(F)cc(F)c3)C(=O)C(C)(C)C)cc1C2

>  <Name>  (536) 
nan

>  <Pocket>  (536) 
nan

>  <ATP_Site>  (536) 
nan

>  <Peripheral>  (536) 
nan

>  <Num_H_Atoms_ProtBoundConf>  (536) 
nan

>  <Num_Resolved_Atoms>  (536) 
nan

>  <Num_Not_Resolved_Atoms>  (536) 
nan

$$$$
CHEMBL3716154
     RDKit          3D

  0  0  0  0  0  0  0  0  0  0999 V3000
M  V30 BEGIN CTAB
M  V30 COUNTS 59 62 0 0 0
M  V30 BEGIN ATOM
M  V30 1 C 0.063549 -3.027401 3.337028 0
M  V30 2 C 1.181337 -2.961298 2.288535 0 CFG=2
M  V30 3 C 2.189420 -1.980256 2.767636 0
M  V30 4 N 2.039979 -0.634045 2.215459 0
M  V30 5 C 1.950214 0.605888 2.954219 0
M  V30 6 O 2.023806 0.425847 4.207884 0
M  V30 7 C 1.793704 1.777044 2.065437 0
M  V30 8 C 2.631134 2.350710 1.156064 0
M  V30 9 C 2.197051 3.435140 0.442002 0
M  V30 10 C 0.940071 3.986375 0.596552 0
M  V30 11 N 0.567012 5.117530 -0.208819 0
M  V30 12 C -0.768031 5.652400 0.015321 0
M  V30 13 C 1.516999 5.632569 -1.178238 0
M  V30 14 C 0.089728 3.409596 1.517622 0
M  V30 15 C 0.521632 2.297865 2.255125 0
M  V30 16 C 1.996020 -0.771857 0.777187 0
M  V30 17 C 0.599909 -1.347264 0.497498 0
M  V30 18 N 0.630706 -2.695667 0.976088 0
M  V30 19 C 0.075300 -3.528427 -0.031519 0
M  V30 20 N -1.263686 -3.439614 -0.022443 0
M  V30 21 C -2.046282 -4.126404 -0.905494 0
M  V30 22 C -3.497647 -4.014816 -0.898287 0
M  V30 23 C -4.372181 -4.649367 -1.751203 0
M  V30 24 C -5.737154 -4.488347 -1.663510 0
M  V30 25 N -6.246252 -3.679042 -0.705856 0
M  V30 26 C -5.411951 -3.049751 0.138076 0
M  V30 27 N -4.066170 -3.225891 0.028210 0
M  V30 28 C -1.361922 -4.922644 -1.811045 0
M  V30 29 C 0.030626 -4.995462 -1.796528 0
M  V30 30 O 0.633841 -5.718869 -2.623692 0
M  V30 31 N 0.746008 -4.295752 -0.904132 0
M  V30 32 C 2.197776 -4.295549 -0.810006 0
M  V30 33 H -0.614700 -3.891095 3.148750 0
M  V30 34 H -0.455405 -2.081816 3.483416 0
M  V30 35 H 0.611540 -3.262095 4.298743 0
M  V30 36 H 1.647175 -3.977900 2.334063 0
M  V30 37 H 3.203677 -2.369479 2.483038 0
M  V30 38 H 2.169642 -1.933416 3.875102 0
M  V30 39 H 3.582879 1.840679 1.123246 0
M  V30 40 H 2.921724 3.838181 -0.264601 0
M  V30 41 H -1.002647 6.488949 -0.664461 0
M  V30 42 H -0.842040 5.934476 1.076286 0
M  V30 43 H -1.520211 4.843327 -0.183910 0
M  V30 44 H 2.387603 6.095466 -0.666159 0
M  V30 45 H 1.021217 6.360947 -1.855324 0
M  V30 46 H 1.852204 4.802120 -1.871757 0
M  V30 47 H -0.869452 3.895257 1.584178 0
M  V30 48 H -0.274928 1.982651 2.924096 0
M  V30 49 H 2.802813 -1.446657 0.460839 0
M  V30 50 H 2.148999 0.170303 0.219111 0
M  V30 51 H -0.100201 -0.798074 1.199413 0
M  V30 52 H 0.274989 -1.158112 -0.510057 0
M  V30 53 H -3.929692 -5.287255 -2.504026 0
M  V30 54 H -6.337747 -5.024824 -2.381861 0
M  V30 55 H -5.754961 -2.385789 0.927808 0
M  V30 56 H -1.906023 -5.510183 -2.553699 0
M  V30 57 H 2.596240 -4.935958 -1.653673 0
M  V30 58 H 2.628040 -3.287198 -1.041367 0
M  V30 59 H 2.583592 -4.760683 0.097181 0
M  V30 END ATOM
M  V30 BEGIN BOND
M  V30 1 1 1 2
M  V30 2 1 2 3
M  V30 3 1 3 4
M  V30 4 1 4 5
M  V30 5 2 5 6
M  V30 6 1 5 7
M  V30 7 2 7 8
M  V30 8 1 8 9
M  V30 9 2 9 10
M  V30 10 1 10 11
M  V30 11 1 11 12
M  V30 12 1 11 13
M  V30 13 1 10 14
M  V30 14 2 14 15
M  V30 15 1 4 16
M  V30 16 1 16 17
M  V30 17 1 17 18
M  V30 18 1 18 19
M  V30 19 2 19 20
M  V30 20 1 20 21
M  V30 21 1 21 22
M  V30 22 2 22 23
M  V30 23 1 23 24
M  V30 24 2 24 25
M  V30 25 1 25 26
M  V30 26 2 26 27
M  V30 27 2 21 28
M  V30 28 1 28 29
M  V30 29 2 29 30
M  V30 30 1 29 31
M  V30 31 1 31 32
M  V30 32 1 18 2
M  V30 33 1 31 19
M  V30 34 1 15 7
M  V30 35 1 27 22
M  V30 36 1 1 33
M  V30 37 1 1 34
M  V30 38 1 1 35
M  V30 39 1 2 36 CFG=3
M  V30 40 1 3 37
M  V30 41 1 3 38
M  V30 42 1 8 39
M  V30 43 1 9 40
M  V30 44 1 12 41
M  V30 45 1 12 42
M  V30 46 1 12 43
M  V30 47 1 13 44
M  V30 48 1 13 45
M  V30 49 1 13 46
M  V30 50 1 14 47
M  V30 51 1 15 48
M  V30 52 1 16 49
M  V30 53 1 16 50
M  V30 54 1 17 51
M  V30 55 1 17 52
M  V30 56 1 23 53
M  V30 57 1 24 54
M  V30 58 1 26 55
M  V30 59 1 28 56
M  V30 60 1 32 57
M  V30 61 1 32 58
M  V30 62 1 32 59
M  V30 END BOND
M  V30 END CTAB
M  END
>  <Dataset>  (537) 
ChEMBL_Kinases

>  <Ligand_Instance>  (537) 
nan

>  <PDB_ID>  (537) 
nan

>  <Standardized_SMILES>  (537) 
C[C@@H]1CN(C(=O)c2ccc(N(C)C)cc2)CCN1c1nc(-c2ccncn2)cc(=O)n1C

>  <Name>  (537) 
nan

>  <Pocket>  (537) 
nan

>  <ATP_Site>  (537) 
nan

>  <Peripheral>  (537) 
nan

>  <Num_H_Atoms_ProtBoundConf>  (537) 
nan

>  <Num_Resolved_Atoms>  (537) 
nan

>  <Num_Not_Resolved_Atoms>  (537) 
nan

$$$$
CHEMBL3716148
     RDKit          3D

  0  0  0  0  0  0  0  0  0  0999 V3000
M  V30 BEGIN CTAB
M  V30 COUNTS 28 29 0 0 0
M  V30 BEGIN ATOM
M  V30 1 O 2.317413 -4.148332 5.978606 0
M  V30 2 C 1.664769 -3.069152 5.908881 0
M  V30 3 O 1.078134 -2.739813 7.121842 0
M  V30 4 C 1.433951 -2.125512 4.765320 0
M  V30 5 S 2.253804 -2.687291 3.271787 0
M  V30 6 C 1.902488 -1.482907 1.992640 0
M  V30 7 N 2.623986 -0.391686 1.693346 0
M  V30 8 N 2.030358 0.231859 0.690664 0
M  V30 9 C 0.918625 -0.429897 0.314756 0
M  V30 10 C 0.057951 0.024295 -0.769644 0
M  V30 11 C 0.319562 1.169679 -1.493685 0
M  V30 12 C -0.491638 1.596953 -2.515021 0
M  V30 13 N -0.153538 2.788107 -3.213362 0 CHG=1 VAL=4
M  V30 14 O 0.860330 3.445708 -2.915173 0
M  V30 15 O -0.984865 3.194551 -4.234137 0 CHG=-1 VAL=1
M  V30 16 C -1.623843 0.898560 -2.877607 0
M  V30 17 C -1.923274 -0.252334 -2.180309 0
M  V30 18 C -1.080885 -0.645248 -1.161394 0
M  V30 19 O -1.462796 -1.809719 -0.521132 0
M  V30 20 N 0.867145 -1.488523 1.141247 0
M  V30 21 H 0.689910 -3.463471 7.746658 0
M  V30 22 H 1.751631 -1.123976 5.108767 0
M  V30 23 H 0.343735 -2.065337 4.557876 0
M  V30 24 H 1.215966 1.751017 -1.229944 0
M  V30 25 H -2.260542 1.232174 -3.677815 0
M  V30 26 H -2.803746 -0.795792 -2.461984 0
M  V30 27 H -1.470183 -2.666826 -1.055448 0
M  V30 28 H 0.131155 -2.200074 1.116876 0
M  V30 END ATOM
M  V30 BEGIN BOND
M  V30 1 2 1 2
M  V30 2 1 2 3
M  V30 3 1 2 4
M  V30 4 1 4 5
M  V30 5 1 5 6
M  V30 6 2 6 7
M  V30 7 1 7 8
M  V30 8 2 8 9
M  V30 9 1 9 10
M  V30 10 2 10 11
M  V30 11 1 11 12
M  V30 12 1 12 13
M  V30 13 2 13 14
M  V30 14 1 13 15
M  V30 15 2 12 16
M  V30 16 1 16 17
M  V30 17 2 17 18
M  V30 18 1 18 19
M  V30 19 1 9 20
M  V30 20 1 20 6
M  V30 21 1 18 10
M  V30 22 1 3 21
M  V30 23 1 4 22
M  V30 24 1 4 23
M  V30 25 1 11 24
M  V30 26 1 16 25
M  V30 27 1 17 26
M  V30 28 1 19 27
M  V30 29 1 20 28
M  V30 END BOND
M  V30 END CTAB
M  END
>  <Dataset>  (538) 
ChEMBL_Kinases

>  <Ligand_Instance>  (538) 
nan

>  <PDB_ID>  (538) 
nan

>  <Standardized_SMILES>  (538) 
O=C(O)CSc1nnc(-c2cc([N+](=O)[O-])ccc2O)[nH]1

>  <Name>  (538) 
nan

>  <Pocket>  (538) 
nan

>  <ATP_Site>  (538) 
nan

>  <Peripheral>  (538) 
nan

>  <Num_H_Atoms_ProtBoundConf>  (538) 
nan

>  <Num_Resolved_Atoms>  (538) 
nan

>  <Num_Not_Resolved_Atoms>  (538) 
nan

$$$$
CHEMBL3716143
     RDKit          3D

  0  0  0  0  0  0  0  0  0  0999 V3000
M  V30 BEGIN CTAB
M  V30 COUNTS 61 64 0 0 0
M  V30 BEGIN ATOM
M  V30 1 C 1.338051 0.075583 5.547474 0
M  V30 2 C 2.424174 -0.918682 5.204446 0
M  V30 3 C 1.740244 -2.224346 4.884207 0
M  V30 4 C 3.321321 -1.123624 6.387666 0
M  V30 5 O 3.209800 -0.434401 4.154030 0
M  V30 6 C 2.766030 -0.122909 2.903165 0
M  V30 7 O 1.560540 -0.346938 2.879375 0
M  V30 8 N 3.521756 0.364082 1.821485 0
M  V30 9 C 3.256668 0.760791 0.486296 0
M  V30 10 C 2.488411 1.994507 0.307387 0 CFG=1
M  V30 11 C 2.232482 2.272398 -1.154649 0
M  V30 12 C 0.746314 2.360292 -1.445116 0
M  V30 13 C 0.071218 1.319788 -0.621208 0 CFG=2
M  V30 14 N -1.278522 1.019261 -1.102407 0
M  V30 15 C -1.637642 -0.295293 -1.556855 0
M  V30 16 O -0.686907 -1.113761 -1.490366 0
M  V30 17 C -2.951360 -0.677414 -2.047481 0
M  V30 18 C -4.000717 0.175761 -2.161996 0
M  V30 19 C -5.246675 -0.218313 -2.629738 0
M  V30 20 N -5.409329 -1.495334 -2.979874 0
M  V30 21 C -4.375528 -2.339215 -2.867930 0
M  V30 22 N -4.382392 -3.669258 -3.184127 0
M  V30 23 C -3.143413 -4.163685 -2.927886 0
M  V30 24 C -2.596112 -5.528260 -3.082227 0
M  V30 25 C -3.503453 -6.659114 -2.529312 0
M  V30 26 C -3.285367 -6.517734 -3.987997 0
M  V30 27 N -2.421686 -3.129814 -2.467085 0
M  V30 28 C -3.131821 -1.994075 -2.412437 0
M  V30 29 C 0.000137 1.841247 0.791480 0
M  V30 30 C 1.369585 2.276411 1.188854 0
M  V30 31 H 0.340496 -0.266601 5.160502 0
M  V30 32 H 1.507302 1.073542 5.137542 0
M  V30 33 H 1.221107 0.197316 6.650988 0
M  V30 34 H 0.686706 -2.100674 4.566134 0
M  V30 35 H 2.343039 -2.854140 4.186131 0
M  V30 36 H 1.696314 -2.809599 5.826185 0
M  V30 37 H 3.703778 -2.173986 6.337799 0
M  V30 38 H 4.187544 -0.454216 6.313777 0
M  V30 39 H 2.764709 -1.022206 7.348178 0
M  V30 40 H 4.535732 0.432619 2.145969 0
M  V30 41 H 4.258013 0.889268 -0.046609 0
M  V30 42 H 2.825348 -0.111510 -0.110652 0
M  V30 43 H 3.271801 2.822151 0.569310 0
M  V30 44 H 2.688027 3.200731 -1.504168 0
M  V30 45 H 2.627650 1.439645 -1.748386 0
M  V30 46 H 0.539898 2.150256 -2.522896 0
M  V30 47 H 0.372419 3.363918 -1.167422 0
M  V30 48 H 0.667213 0.389648 -0.688552 0
M  V30 49 H -2.018744 1.752617 -1.129312 0
M  V30 50 H -3.868888 1.220758 -1.876162 0
M  V30 51 H -6.021973 0.536268 -2.684036 0
M  V30 52 H -1.509106 -5.697097 -2.907304 0
M  V30 53 H -4.444806 -6.335865 -2.055801 0
M  V30 54 H -2.978493 -7.431384 -1.934056 0
M  V30 55 H -4.095204 -6.104210 -4.608044 0
M  V30 56 H -2.648624 -7.320353 -4.449008 0
M  V30 57 H -1.417379 -3.191779 -2.179867 0
M  V30 58 H -0.349200 1.032044 1.495162 0
M  V30 59 H -0.688920 2.718075 0.859758 0
M  V30 60 H 1.506333 2.047781 2.255855 0
M  V30 61 H 1.274286 3.458414 1.287248 0
M  V30 END ATOM
M  V30 BEGIN BOND
M  V30 1 1 1 2
M  V30 2 1 2 3
M  V30 3 1 2 4
M  V30 4 1 2 5
M  V30 5 1 5 6
M  V30 6 2 6 7
M  V30 7 1 6 8
M  V30 8 1 8 9
M  V30 9 1 9 10
M  V30 10 1 10 11
M  V30 11 1 11 12
M  V30 12 1 12 13
M  V30 13 1 13 14
M  V30 14 1 14 15
M  V30 15 2 15 16
M  V30 16 1 15 17
M  V30 17 2 17 18
M  V30 18 1 18 19
M  V30 19 2 19 20
M  V30 20 1 20 21
M  V30 21 1 21 22
M  V30 22 2 22 23
M  V30 23 1 23 24
M  V30 24 1 24 25
M  V30 25 1 25 26
M  V30 26 1 23 27
M  V30 27 1 27 28
M  V30 28 1 13 29
M  V30 29 1 29 30
M  V30 30 1 30 10
M  V30 31 1 28 17
M  V30 32 2 28 21
M  V30 33 1 26 24
M  V30 34 1 1 31
M  V30 35 1 1 32
M  V30 36 1 1 33
M  V30 37 1 3 34
M  V30 38 1 3 35
M  V30 39 1 3 36
M  V30 40 1 4 37
M  V30 41 1 4 38
M  V30 42 1 4 39
M  V30 43 1 8 40
M  V30 44 1 9 41
M  V30 45 1 9 42
M  V30 46 1 10 43 CFG=1
M  V30 47 1 11 44
M  V30 48 1 11 45
M  V30 49 1 12 46
M  V30 50 1 12 47
M  V30 51 1 13 48 CFG=1
M  V30 52 1 14 49
M  V30 53 1 18 50
M  V30 54 1 19 51
M  V30 55 1 24 52
M  V30 56 1 25 53
M  V30 57 1 25 54
M  V30 58 1 26 55
M  V30 59 1 26 56
M  V30 60 1 27 57
M  V30 61 1 29 58
M  V30 62 1 29 59
M  V30 63 1 30 60
M  V30 64 1 30 61
M  V30 END BOND
M  V30 END CTAB
M  END
>  <Dataset>  (539) 
ChEMBL_Kinases

>  <Ligand_Instance>  (539) 
nan

>  <PDB_ID>  (539) 
nan

>  <Standardized_SMILES>  (539) 
CC(C)(C)OC(=O)NC[C@H]1CC[C@H](NC(=O)c2ccnc3nc(C4CC4)[nH]c23)CC1

>  <Name>  (539) 
nan

>  <Pocket>  (539) 
nan

>  <ATP_Site>  (539) 
nan

>  <Peripheral>  (539) 
nan

>  <Num_H_Atoms_ProtBoundConf>  (539) 
nan

>  <Num_Resolved_Atoms>  (539) 
nan

>  <Num_Not_Resolved_Atoms>  (539) 
nan

$$$$
CHEMBL3715292
     RDKit          3D

  0  0  0  0  0  0  0  0  0  0999 V3000
M  V30 BEGIN CTAB
M  V30 COUNTS 57 60 0 0 0
M  V30 BEGIN ATOM
M  V30 1 O 0.086679 -4.605317 -0.437093 0
M  V30 2 C -0.428958 -3.568382 0.061019 0
M  V30 3 C -0.202657 -2.451914 0.987168 0
M  V30 4 N 1.109851 -2.470417 1.601807 0
M  V30 5 C 1.294316 -1.348642 2.498914 0
M  V30 6 C 2.303023 -0.368144 1.957456 0
M  V30 7 N 1.963786 -0.040284 0.600274 0
M  V30 8 S 2.951109 1.243857 -0.011133 0
M  V30 9 O 4.414123 0.799283 0.012269 0
M  V30 10 O 2.581333 1.478497 -1.441047 0
M  V30 11 C 2.721912 2.691393 0.916564 0
M  V30 12 C 1.381931 3.329061 0.986944 0
M  V30 13 C 0.264584 2.594371 1.565043 0
M  V30 14 C 0.207555 2.755125 2.949945 0
M  V30 15 C -0.711310 2.138491 3.797536 0
M  V30 16 C -1.643427 1.299332 3.224681 0
M  V30 17 C -1.618467 1.118313 1.860534 0
M  V30 18 C -2.544872 0.320230 1.223398 0
M  V30 19 C -2.510460 0.187722 -0.155076 0
M  V30 20 C -1.558836 0.839932 -0.948031 0
M  V30 21 C -0.643904 1.627755 -0.315328 0
M  V30 22 C -0.693155 1.746262 1.056423 0
M  V30 23 C 2.186970 -1.242396 -0.211403 0
M  V30 24 C 2.158450 -2.507815 0.595904 0
M  V30 25 N -1.730295 -3.437493 -0.497556 0
M  V30 26 C -2.397850 -4.266718 -1.437581 0
M  V30 27 C -2.098334 -3.849370 -2.741533 0
M  V30 28 C -2.631871 -4.492016 -3.863363 0
M  V30 29 C -3.478479 -5.570138 -3.649244 0
M  V30 30 C -3.750511 -5.952565 -2.353515 0
M  V30 31 N -3.224820 -5.318441 -1.276736 0
M  V30 32 H -0.263486 -1.465472 0.463340 0
M  V30 33 H -0.984445 -2.464410 1.767566 0
M  V30 34 H 1.592287 -1.710290 3.526700 0
M  V30 35 H 0.344164 -0.812740 2.659334 0
M  V30 36 H 2.351474 0.538724 2.601253 0
M  V30 37 H 3.315446 -0.831048 2.061822 0
M  V30 38 H 3.458230 3.478802 0.529024 0
M  V30 39 H 3.126450 2.550760 1.993134 0
M  V30 40 H 1.095873 3.689090 -0.070816 0
M  V30 41 H 1.466309 4.338704 1.513255 0
M  V30 42 H 0.885936 3.393226 3.535574 0
M  V30 43 H -0.742312 2.272972 4.866564 0
M  V30 44 H -2.372715 0.801436 3.847882 0
M  V30 45 H -3.263449 -0.168572 1.866649 0
M  V30 46 H -3.283583 -0.463773 -0.542429 0
M  V30 47 H -1.637742 0.656154 -2.005438 0
M  V30 48 H 0.081597 2.144490 -0.905087 0
M  V30 49 H 1.439670 -1.200370 -1.027720 0
M  V30 50 H 3.182360 -1.200592 -0.706862 0
M  V30 51 H 3.119122 -2.616466 1.132228 0
M  V30 52 H 2.017649 -3.364840 -0.053933 0
M  V30 53 H -2.481702 -2.718641 -0.349722 0
M  V30 54 H -1.441281 -3.011803 -3.025382 0
M  V30 55 H -2.409715 -4.183351 -4.875421 0
M  V30 56 H -3.885449 -6.059950 -4.514082 0
M  V30 57 H -4.406091 -6.785368 -2.153588 0
M  V30 END ATOM
M  V30 BEGIN BOND
M  V30 1 2 1 2
M  V30 2 1 2 3
M  V30 3 1 3 4
M  V30 4 1 4 5
M  V30 5 1 5 6
M  V30 6 1 6 7
M  V30 7 1 7 8
M  V30 8 2 8 9
M  V30 9 2 8 10
M  V30 10 1 8 11
M  V30 11 1 11 12
M  V30 12 1 12 13
M  V30 13 2 13 14
M  V30 14 1 14 15
M  V30 15 2 15 16
M  V30 16 1 16 17
M  V30 17 2 17 18
M  V30 18 1 18 19
M  V30 19 2 19 20
M  V30 20 1 20 21
M  V30 21 2 21 22
M  V30 22 1 7 23
M  V30 23 1 23 24
M  V30 24 1 2 25
M  V30 25 1 25 26
M  V30 26 2 26 27
M  V30 27 1 27 28
M  V30 28 2 28 29
M  V30 29 1 29 30
M  V30 30 2 30 31
M  V30 31 1 24 4
M  V30 32 1 31 26
M  V30 33 1 22 13
M  V30 34 1 22 17
M  V30 35 1 3 32
M  V30 36 1 3 33
M  V30 37 1 5 34
M  V30 38 1 5 35
M  V30 39 1 6 36
M  V30 40 1 6 37
M  V30 41 1 11 38
M  V30 42 1 11 39
M  V30 43 1 12 40
M  V30 44 1 12 41
M  V30 45 1 14 42
M  V30 46 1 15 43
M  V30 47 1 16 44
M  V30 48 1 18 45
M  V30 49 1 19 46
M  V30 50 1 20 47
M  V30 51 1 21 48
M  V30 52 1 23 49
M  V30 53 1 23 50
M  V30 54 1 24 51
M  V30 55 1 24 52
M  V30 56 1 25 53
M  V30 57 1 27 54
M  V30 58 1 28 55
M  V30 59 1 29 56
M  V30 60 1 30 57
M  V30 END BOND
M  V30 END CTAB
M  END
>  <Dataset>  (540) 
ChEMBL_Kinases

>  <Ligand_Instance>  (540) 
nan

>  <PDB_ID>  (540) 
nan

>  <Standardized_SMILES>  (540) 
O=C(CN1CCN(S(=O)(=O)CCc2cccc3ccccc23)CC1)Nc1ccccn1

>  <Name>  (540) 
nan

>  <Pocket>  (540) 
nan

>  <ATP_Site>  (540) 
nan

>  <Peripheral>  (540) 
nan

>  <Num_H_Atoms_ProtBoundConf>  (540) 
nan

>  <Num_Resolved_Atoms>  (540) 
nan

>  <Num_Not_Resolved_Atoms>  (540) 
nan

$$$$
CHEMBL3716137
     RDKit          3D

  0  0  0  0  0  0  0  0  0  0999 V3000
M  V30 BEGIN CTAB
M  V30 COUNTS 40 43 0 0 0
M  V30 BEGIN ATOM
M  V30 1 O 0.907614 -1.170790 -1.270944 0
M  V30 2 C 0.365177 -1.759175 -0.267508 0
M  V30 3 N 0.552069 -1.190896 0.998921 0
M  V30 4 C 1.347136 0.024388 1.033539 0
M  V30 5 N 2.522552 0.168234 1.163621 0
M  V30 6 C 3.182969 1.304624 1.186333 0
M  V30 7 C 4.532624 1.549461 1.331895 0
M  V30 8 C 5.024594 2.814202 1.328855 0
M  V30 9 C 4.278512 3.965114 1.187003 0
M  V30 10 N 4.380284 5.303081 1.135008 0
M  V30 11 N 3.226912 5.889342 0.972650 0
M  V30 12 C 2.253519 4.963301 0.903436 0
M  V30 13 C 2.922590 3.768517 1.038410 0
M  V30 14 C 2.422901 2.460852 1.042598 0
M  V30 15 S 0.745014 1.782833 0.879463 0
M  V30 16 C -0.332803 -2.939507 -0.831230 0
M  V30 17 C -1.215259 -2.596391 -2.008047 0
M  V30 18 O -1.690278 -3.813586 -2.555249 0
M  V30 19 N -1.090483 -3.648625 0.137991 0
M  V30 20 C -2.127055 -3.240345 0.975385 0
M  V30 21 C -2.678204 -1.982745 1.090151 0
M  V30 22 C -3.711146 -1.578693 1.903986 0
M  V30 23 C -4.251227 -2.562343 2.696736 0
M  V30 24 Cl -5.567140 -2.153816 3.766166 0
M  V30 25 C -3.790476 -3.853728 2.675232 0
M  V30 26 C -2.753638 -4.150427 1.824500 0
M  V30 27 H 0.080826 -1.760741 1.709592 0
M  V30 28 H 5.258085 0.745792 1.454771 0
M  V30 29 H 6.105020 3.009246 1.445420 0
M  V30 30 H 5.340884 5.749123 1.225641 0
M  V30 31 H 1.165791 5.039422 0.773073 0
M  V30 32 H 0.492304 -3.599804 -1.248207 0
M  V30 33 H -2.118674 -2.077987 -1.658474 0
M  V30 34 H -0.665809 -2.038633 -2.793935 0
M  V30 35 H -1.116444 -4.047557 -3.331203 0
M  V30 36 H -0.813509 -4.673720 0.238425 0
M  V30 37 H -2.251149 -1.189484 0.478210 0
M  V30 38 H -4.064774 -0.558817 1.911665 0
M  V30 39 H -4.236381 -4.605164 3.311381 0
M  V30 40 H -2.429451 -5.193003 1.850569 0
M  V30 END ATOM
M  V30 BEGIN BOND
M  V30 1 2 1 2
M  V30 2 1 2 3
M  V30 3 1 3 4
M  V30 4 2 4 5
M  V30 5 1 5 6
M  V30 6 2 6 7
M  V30 7 1 7 8
M  V30 8 2 8 9
M  V30 9 1 9 10
M  V30 10 1 10 11
M  V30 11 2 11 12
M  V30 12 1 12 13
M  V30 13 2 13 14
M  V30 14 1 14 15
M  V30 15 1 2 16
M  V30 16 1 16 17
M  V30 17 1 17 18
M  V30 18 1 16 19
M  V30 19 1 19 20
M  V30 20 2 20 21
M  V30 21 1 21 22
M  V30 22 2 22 23
M  V30 23 1 23 24
M  V30 24 1 23 25
M  V30 25 2 25 26
M  V30 26 1 15 4
M  V30 27 1 26 20
M  V30 28 1 14 6
M  V30 29 1 13 9
M  V30 30 1 3 27
M  V30 31 1 7 28
M  V30 32 1 8 29
M  V30 33 1 10 30
M  V30 34 1 12 31
M  V30 35 1 16 32
M  V30 36 1 17 33
M  V30 37 1 17 34
M  V30 38 1 18 35
M  V30 39 1 19 36
M  V30 40 1 21 37
M  V30 41 1 22 38
M  V30 42 1 25 39
M  V30 43 1 26 40
M  V30 END BOND
M  V30 END CTAB
M  END
>  <Dataset>  (541) 
ChEMBL_Kinases

>  <Ligand_Instance>  (541) 
nan

>  <PDB_ID>  (541) 
nan

>  <Standardized_SMILES>  (541) 
O=C(Nc1nc2ccc3[nH]ncc3c2s1)C(CO)Nc1ccc(Cl)cc1

>  <Name>  (541) 
nan

>  <Pocket>  (541) 
nan

>  <ATP_Site>  (541) 
nan

>  <Peripheral>  (541) 
nan

>  <Num_H_Atoms_ProtBoundConf>  (541) 
nan

>  <Num_Resolved_Atoms>  (541) 
nan

>  <Num_Not_Resolved_Atoms>  (541) 
nan

$$$$
CHEMBL3716102
     RDKit          3D

  0  0  0  0  0  0  0  0  0  0999 V3000
M  V30 BEGIN CTAB
M  V30 COUNTS 55 58 0 0 0
M  V30 BEGIN ATOM
M  V30 1 C 3.984261 -1.634179 2.454617 0
M  V30 2 C 5.026033 -0.838508 1.732274 0
M  V30 3 N 4.691122 -0.667683 0.319735 0
M  V30 4 C 3.472222 0.001686 0.066994 0
M  V30 5 O 2.924798 0.314000 1.179417 0
M  V30 6 C 2.874111 0.319125 -1.207839 0
M  V30 7 C 1.659512 0.982803 -1.157820 0
M  V30 8 C 0.949360 1.361209 -2.273652 0
M  V30 9 N -0.310377 2.056809 -2.171833 0
M  V30 10 C -0.925507 2.419570 -0.924616 0
M  V30 11 C -2.227450 3.140873 -1.270567 0
M  V30 12 C -0.113928 3.302411 -0.044255 0
M  V30 13 C -1.379947 1.198529 -0.165259 0
M  V30 14 O -1.879688 1.473550 0.978031 0
M  V30 15 N -1.256412 -0.089836 -0.682030 0
M  V30 16 C -1.758072 -1.122159 0.223806 0
M  V30 17 N -2.253056 -1.208782 1.302160 0
M  V30 18 C -2.629254 -2.312049 1.908278 0
M  V30 19 C -3.214151 -2.473483 3.171225 0
M  V30 20 C -3.515961 -1.337077 4.076537 0
M  V30 21 F -4.088684 -1.770268 5.249657 0
M  V30 22 F -2.371897 -0.637159 4.415743 0
M  V30 23 F -4.372813 -0.444126 3.454657 0
M  V30 24 C -3.524410 -3.738227 3.598578 0
M  V30 25 C -3.324611 -4.916856 2.913049 0
M  V30 26 N -3.500123 -6.241323 3.031076 0
M  V30 27 N -3.076256 -6.887801 1.959400 0
M  V30 28 C -2.585992 -5.998599 1.054704 0
M  V30 29 C -2.750871 -4.777735 1.670242 0
M  V30 30 C -2.424896 -3.500095 1.211333 0
M  V30 31 S -1.675929 -2.881767 -0.319713 0
M  V30 32 C 1.488711 1.056379 -3.504628 0
M  V30 33 C 2.691135 0.398816 -3.628750 0
M  V30 34 C 3.334943 0.056899 -2.462811 0
M  V30 35 F 4.512710 -0.586350 -2.560178 0
M  V30 36 H 3.399318 -1.012685 3.165409 0
M  V30 37 H 4.462043 -2.493822 3.004846 0
M  V30 38 H 3.241153 -2.098049 1.761584 0
M  V30 39 H 5.009106 0.200108 2.159648 0
M  V30 40 H 6.019900 -1.298593 1.857158 0
M  V30 41 H 5.240261 -0.978256 -0.493133 0
M  V30 42 H 1.210263 1.230936 -0.214535 0
M  V30 43 H -0.769664 2.291875 -3.104453 0
M  V30 44 H -3.095695 2.447967 -1.298816 0
M  V30 45 H -2.169468 3.587056 -2.295520 0
M  V30 46 H -2.476939 3.936596 -0.569690 0
M  V30 47 H 0.864113 3.570954 -0.494097 0
M  V30 48 H -0.645550 4.278386 0.076061 0
M  V30 49 H 0.048033 2.929917 0.987817 0
M  V30 50 H -0.862888 -0.304781 -1.597790 0
M  V30 51 H -3.984472 -3.867023 4.591744 0
M  V30 52 H -3.929266 -6.648518 3.898742 0
M  V30 53 H -2.166370 -6.213125 0.081659 0
M  V30 54 H 0.959424 1.337466 -4.423887 0
M  V30 55 H 3.143145 0.144058 -4.583061 0
M  V30 END ATOM
M  V30 BEGIN BOND
M  V30 1 1 1 2
M  V30 2 1 2 3
M  V30 3 1 3 4
M  V30 4 2 4 5
M  V30 5 1 4 6
M  V30 6 2 6 7
M  V30 7 1 7 8
M  V30 8 1 8 9
M  V30 9 1 9 10
M  V30 10 1 10 11
M  V30 11 1 10 12
M  V30 12 1 10 13
M  V30 13 2 13 14
M  V30 14 1 13 15
M  V30 15 1 15 16
M  V30 16 2 16 17
M  V30 17 1 17 18
M  V30 18 2 18 19
M  V30 19 1 19 20
M  V30 20 1 20 21
M  V30 21 1 20 22
M  V30 22 1 20 23
M  V30 23 1 19 24
M  V30 24 2 24 25
M  V30 25 1 25 26
M  V30 26 1 26 27
M  V30 27 2 27 28
M  V30 28 1 28 29
M  V30 29 2 29 30
M  V30 30 1 30 31
M  V30 31 2 8 32
M  V30 32 1 32 33
M  V30 33 2 33 34
M  V30 34 1 34 35
M  V30 35 1 34 6
M  V30 36 1 31 16
M  V30 37 1 30 18
M  V30 38 1 29 25
M  V30 39 1 1 36
M  V30 40 1 1 37
M  V30 41 1 1 38
M  V30 42 1 2 39
M  V30 43 1 2 40
M  V30 44 1 3 41
M  V30 45 1 7 42
M  V30 46 1 9 43
M  V30 47 1 11 44
M  V30 48 1 11 45
M  V30 49 1 11 46
M  V30 50 1 12 47
M  V30 51 1 12 48
M  V30 52 1 12 49
M  V30 53 1 15 50
M  V30 54 1 24 51
M  V30 55 1 26 52
M  V30 56 1 28 53
M  V30 57 1 32 54
M  V30 58 1 33 55
M  V30 END BOND
M  V30 END CTAB
M  END
>  <Dataset>  (542) 
ChEMBL_Kinases

>  <Ligand_Instance>  (542) 
nan

>  <PDB_ID>  (542) 
nan

>  <Standardized_SMILES>  (542) 
CCNC(=O)c1cc(NC(C)(C)C(=O)Nc2nc3c(C(F)(F)F)cc4[nH]ncc4c3s2)ccc1F

>  <Name>  (542) 
nan

>  <Pocket>  (542) 
nan

>  <ATP_Site>  (542) 
nan

>  <Peripheral>  (542) 
nan

>  <Num_H_Atoms_ProtBoundConf>  (542) 
nan

>  <Num_Resolved_Atoms>  (542) 
nan

>  <Num_Not_Resolved_Atoms>  (542) 
nan

$$$$
CHEMBL3716051
     RDKit          3D

  0  0  0  0  0  0  0  0  0  0999 V3000
M  V30 BEGIN CTAB
M  V30 COUNTS 28 29 0 0 0
M  V30 BEGIN ATOM
M  V30 1 C -1.210208 -3.017213 3.357170 0
M  V30 2 C 0.026508 -2.206487 3.184615 0
M  V30 3 C 0.969024 -2.114756 4.180672 0
M  V30 4 C 2.145712 -1.398421 4.132772 0
M  V30 5 C 2.353671 -0.716375 2.932225 0
M  V30 6 C 1.448042 -0.760272 1.880359 0
M  V30 7 C 1.720774 -0.026690 0.651431 0
M  V30 8 N 2.807258 0.724698 0.410167 0
M  V30 9 N 2.706104 1.239554 -0.823462 0
M  V30 10 C 1.546386 0.803864 -1.352595 0
M  V30 11 S 1.091058 1.303402 -3.003835 0
M  V30 12 C -0.518297 0.564158 -3.449903 0
M  V30 13 C -1.567925 1.152840 -2.582260 0
M  V30 14 O -0.919231 1.967848 -1.845134 0
M  V30 15 O -2.924440 1.000628 -2.446686 0
M  V30 16 N 0.934014 0.017585 -0.437353 0
M  V30 17 C 0.297815 -1.506669 2.026282 0
M  V30 18 H -1.202111 -3.927897 2.735305 0
M  V30 19 H -1.319930 -3.273219 4.437707 0
M  V30 20 H -2.061989 -2.335499 3.081593 0
M  V30 21 H 0.743095 -2.677256 5.099334 0
M  V30 22 H 2.842487 -1.370126 4.953182 0
M  V30 23 H 3.245768 -0.129799 2.804193 0
M  V30 24 H -0.422725 -0.531106 -3.358809 0
M  V30 25 H -0.754261 0.783919 -4.509303 0
M  V30 26 H -3.367249 1.162220 -1.532803 0
M  V30 27 H 0.023739 -0.431782 -0.624248 0
M  V30 28 H -0.427482 -1.550138 1.201994 0
M  V30 END ATOM
M  V30 BEGIN BOND
M  V30 1 1 1 2
M  V30 2 2 2 3
M  V30 3 1 3 4
M  V30 4 2 4 5
M  V30 5 1 5 6
M  V30 6 1 6 7
M  V30 7 2 7 8
M  V30 8 1 8 9
M  V30 9 2 9 10
M  V30 10 1 10 11
M  V30 11 1 11 12
M  V30 12 1 12 13
M  V30 13 2 13 14
M  V30 14 1 13 15
M  V30 15 1 10 16
M  V30 16 2 6 17
M  V30 17 1 17 2
M  V30 18 1 16 7
M  V30 19 1 1 18
M  V30 20 1 1 19
M  V30 21 1 1 20
M  V30 22 1 3 21
M  V30 23 1 4 22
M  V30 24 1 5 23
M  V30 25 1 12 24
M  V30 26 1 12 25
M  V30 27 1 15 26
M  V30 28 1 16 27
M  V30 29 1 17 28
M  V30 END BOND
M  V30 END CTAB
M  END
>  <Dataset>  (543) 
ChEMBL_Kinases

>  <Ligand_Instance>  (543) 
nan

>  <PDB_ID>  (543) 
nan

>  <Standardized_SMILES>  (543) 
Cc1cccc(-c2nnc(SCC(=O)O)[nH]2)c1

>  <Name>  (543) 
nan

>  <Pocket>  (543) 
nan

>  <ATP_Site>  (543) 
nan

>  <Peripheral>  (543) 
nan

>  <Num_H_Atoms_ProtBoundConf>  (543) 
nan

>  <Num_Resolved_Atoms>  (543) 
nan

>  <Num_Not_Resolved_Atoms>  (543) 
nan

$$$$
CHEMBL3716048
     RDKit          3D

  0  0  0  0  0  0  0  0  0  0999 V3000
M  V30 BEGIN CTAB
M  V30 COUNTS 40 43 0 0 0
M  V30 BEGIN ATOM
M  V30 1 O -0.307797 -0.485447 0.532976 0
M  V30 2 C 0.863466 -1.001950 0.529369 0
M  V30 3 N 0.909819 -2.377420 0.242655 0
M  V30 4 C -0.193465 -3.233910 -0.032131 0 CFG=1
M  V30 5 C -0.077319 -4.172004 -1.173266 0
M  V30 6 C -1.506986 -4.650677 -1.472888 0
M  V30 7 C -2.463931 -4.272809 -0.391812 0
M  V30 8 N -1.987672 -4.486070 0.938985 0
M  V30 9 C -0.658926 -4.022967 1.182599 0
M  V30 10 C 2.045336 -0.197662 0.805809 0
M  V30 11 C 3.284088 -0.789459 0.725219 0
M  V30 12 C 4.374786 0.002582 1.004244 0
M  V30 13 N 4.243330 1.293344 1.338194 0
M  V30 14 C 3.035741 1.892541 1.423144 0
M  V30 15 N 2.626897 3.159683 1.730350 0
M  V30 16 C 1.282531 3.226298 1.661596 0
M  V30 17 C 0.403694 4.368185 1.880862 0
M  V30 18 C -0.966946 4.438919 1.721955 0
M  V30 19 C -1.340857 5.748319 2.055556 0
M  V30 20 C -0.167013 6.379568 2.393342 0
M  V30 21 Br -0.279804 8.210379 2.911873 0
M  V30 22 O 0.836836 5.558116 2.285138 0
M  V30 23 N 0.857201 1.983870 1.307434 0
M  V30 24 C 1.891249 1.146587 1.154706 0
M  V30 25 H 1.835162 -2.905830 0.206518 0
M  V30 26 H -1.062205 -2.533115 -0.234236 0
M  V30 27 H 0.543010 -5.077159 -0.941628 0
M  V30 28 H 0.388247 -3.706705 -2.065894 0
M  V30 29 H -1.809627 -4.154138 -2.420517 0
M  V30 30 H -1.547450 -5.754879 -1.621236 0
M  V30 31 H -3.368667 -4.947314 -0.514804 0
M  V30 32 H -2.918062 -3.252643 -0.505430 0
M  V30 33 H -2.699684 -4.090265 1.591864 0
M  V30 34 H -0.674450 -3.354892 2.084218 0
M  V30 35 H -0.011438 -4.895037 1.384496 0
M  V30 36 H 3.489070 -1.796769 0.466828 0
M  V30 37 H 5.399055 -0.339935 0.980820 0
M  V30 38 H -1.523863 3.559648 1.391662 0
M  V30 39 H -2.397041 5.941531 1.968080 0
M  V30 40 H -0.142836 1.741042 1.179176 0
M  V30 END ATOM
M  V30 BEGIN BOND
M  V30 1 2 1 2
M  V30 2 1 2 3
M  V30 3 1 3 4
M  V30 4 1 4 5
M  V30 5 1 5 6
M  V30 6 1 6 7
M  V30 7 1 7 8
M  V30 8 1 8 9
M  V30 9 1 2 10
M  V30 10 2 10 11
M  V30 11 1 11 12
M  V30 12 2 12 13
M  V30 13 1 13 14
M  V30 14 1 14 15
M  V30 15 2 15 16
M  V30 16 1 16 17
M  V30 17 2 17 18
M  V30 18 1 18 19
M  V30 19 2 19 20
M  V30 20 1 20 21
M  V30 21 1 20 22
M  V30 22 1 16 23
M  V30 23 1 23 24
M  V30 24 1 9 4
M  V30 25 1 24 10
M  V30 26 2 24 14
M  V30 27 1 22 17
M  V30 28 1 3 25
M  V30 29 1 4 26 CFG=3
M  V30 30 1 5 27
M  V30 31 1 5 28
M  V30 32 1 6 29
M  V30 33 1 6 30
M  V30 34 1 7 31
M  V30 35 1 7 32
M  V30 36 1 8 33
M  V30 37 1 9 34
M  V30 38 1 9 35
M  V30 39 1 11 36
M  V30 40 1 12 37
M  V30 41 1 18 38
M  V30 42 1 19 39
M  V30 43 1 23 40
M  V30 END BOND
M  V30 END CTAB
M  END
>  <Dataset>  (544) 
ChEMBL_Kinases

>  <Ligand_Instance>  (544) 
nan

>  <PDB_ID>  (544) 
nan

>  <Standardized_SMILES>  (544) 
O=C(N[C@H]1CCCNC1)c1ccnc2nc(-c3ccc(Br)o3)[nH]c12

>  <Name>  (544) 
nan

>  <Pocket>  (544) 
nan

>  <ATP_Site>  (544) 
nan

>  <Peripheral>  (544) 
nan

>  <Num_H_Atoms_ProtBoundConf>  (544) 
nan

>  <Num_Resolved_Atoms>  (544) 
nan

>  <Num_Not_Resolved_Atoms>  (544) 
nan

$$$$
CHEMBL3717179
     RDKit          3D

  0  0  0  0  0  0  0  0  0  0999 V3000
M  V30 BEGIN CTAB
M  V30 COUNTS 32 34 0 0 0
M  V30 BEGIN ATOM
M  V30 1 N 5.145670 -1.131650 0.205081 0
M  V30 2 C 4.084763 -0.572493 0.934326 0
M  V30 3 O 4.599165 0.061677 1.891260 0
M  V30 4 C 2.682165 -0.717847 0.617867 0
M  V30 5 C 2.395700 -1.474173 -0.498633 0
M  V30 6 C 1.045190 -1.628968 -0.824838 0
M  V30 7 N 0.667340 -2.396601 -1.964609 0
M  V30 8 C 0.083511 -1.019184 -0.014852 0
M  V30 9 C 0.411132 -0.262961 1.104614 0
M  V30 10 C 1.756502 -0.104303 1.436021 0
M  V30 11 N 2.148186 0.657431 2.568301 0
M  V30 12 C -0.635221 0.353729 1.918175 0
M  V30 13 O -0.304728 1.026275 2.916735 0
M  V30 14 C -2.038368 0.159344 1.530655 0
M  V30 15 C -3.049800 0.728102 2.277452 0
M  V30 16 C -4.343384 0.514656 1.870611 0
M  V30 17 C -4.666355 -0.231650 0.765851 0
M  V30 18 C -3.651609 -0.797387 0.023677 0
M  V30 19 C -2.345132 -0.604748 0.401374 0
M  V30 20 C -1.317202 -1.233917 -0.431642 0
M  V30 21 O -1.602590 -1.912490 -1.435517 0
M  V30 22 H 5.626847 -2.040527 0.276918 0
M  V30 23 H 5.603599 -2.071857 0.319675 0
M  V30 24 H 3.171786 -1.929245 -1.098690 0
M  V30 25 H 0.234439 -3.338240 -1.950110 0
M  V30 26 H 0.890180 -1.870883 -2.842681 0
M  V30 27 H 2.031320 1.691987 2.644462 0
M  V30 28 H 2.585211 0.199842 3.402677 0
M  V30 29 H -2.750746 1.314952 3.149577 0
M  V30 30 H -5.108015 0.985443 2.494258 0
M  V30 31 H -5.726464 -0.316812 0.562374 0
M  V30 32 H -3.925206 -1.381800 -0.842995 0
M  V30 END ATOM
M  V30 BEGIN BOND
M  V30 1 1 1 2
M  V30 2 2 2 3
M  V30 3 1 2 4
M  V30 4 2 4 5
M  V30 5 1 5 6
M  V30 6 1 6 7
M  V30 7 2 6 8
M  V30 8 1 8 9
M  V30 9 2 9 10
M  V30 10 1 10 11
M  V30 11 1 9 12
M  V30 12 2 12 13
M  V30 13 1 12 14
M  V30 14 2 14 15
M  V30 15 1 15 16
M  V30 16 2 16 17
M  V30 17 1 17 18
M  V30 18 2 18 19
M  V30 19 1 19 20
M  V30 20 2 20 21
M  V30 21 1 10 4
M  V30 22 1 19 14
M  V30 23 1 20 8
M  V30 24 1 1 22
M  V30 25 1 1 23
M  V30 26 1 5 24
M  V30 27 1 7 25
M  V30 28 1 7 26
M  V30 29 1 11 27
M  V30 30 1 11 28
M  V30 31 1 15 29
M  V30 32 1 16 30
M  V30 33 1 17 31
M  V30 34 1 18 32
M  V30 END BOND
M  V30 END CTAB
M  END
>  <Dataset>  (545) 
ChEMBL_Kinases

>  <Ligand_Instance>  (545) 
nan

>  <PDB_ID>  (545) 
nan

>  <Standardized_SMILES>  (545) 
NC(=O)c1cc(N)c2c(c1N)C(=O)c1ccccc1C2=O

>  <Name>  (545) 
nan

>  <Pocket>  (545) 
nan

>  <ATP_Site>  (545) 
nan

>  <Peripheral>  (545) 
nan

>  <Num_H_Atoms_ProtBoundConf>  (545) 
nan

>  <Num_Resolved_Atoms>  (545) 
nan

>  <Num_Not_Resolved_Atoms>  (545) 
nan

$$$$
CHEMBL569588
     RDKit          3D

  0  0  0  0  0  0  0  0  0  0999 V3000
M  V30 BEGIN CTAB
M  V30 COUNTS 64 67 0 0 0
M  V30 BEGIN ATOM
M  V30 1 C 3.477983 -1.104979 2.730973 0
M  V30 2 N 4.619413 -0.206076 2.806024 0
M  V30 3 C 5.965017 -0.631865 3.047812 0
M  V30 4 O 6.387181 -1.827591 2.888497 0
M  V30 5 N 6.754282 0.476905 3.490519 0
M  V30 6 C 5.884449 1.627165 3.527923 0
M  V30 7 O 6.203372 2.644051 4.193474 0
M  V30 8 C 4.734509 1.234929 2.674422 0 CFG=1
M  V30 9 C 5.049833 1.664712 1.260330 0
M  V30 10 C 3.665848 1.750136 0.671476 0
M  V30 11 C 3.203754 1.707983 -0.631335 0
M  V30 12 C 1.863431 1.805919 -0.949309 0
M  V30 13 C 1.019326 1.949210 0.134397 0
M  V30 14 N -0.399439 2.055957 -0.114864 0
M  V30 15 C -0.913266 0.733406 -0.098764 0
M  V30 16 O -0.667233 -0.491335 0.038659 0
M  V30 17 C -2.327574 0.326009 -0.306783 0
M  V30 18 N -2.479487 -1.113918 -0.221316 0
M  V30 19 C -2.764664 -1.885267 0.972920 0
M  V30 20 C -4.210639 -2.067631 1.216255 0
M  V30 21 C -4.938185 -1.153487 1.981429 0
M  V30 22 C -6.281130 -1.421940 2.143740 0
M  V30 23 Cl -7.255924 -0.299762 3.103744 0
M  V30 24 C -6.948296 -2.515085 1.610899 0
M  V30 25 C -6.190201 -3.410423 0.850148 0
M  V30 26 Cl -6.987650 -4.808137 0.154035 0
M  V30 27 C -4.840100 -3.177555 0.663314 0
M  V30 28 C -2.328925 -1.814387 -1.447707 0
M  V30 29 O -2.098035 -0.872385 -2.274957 0
M  V30 30 C -2.174766 -2.534916 -2.705126 0
M  V30 31 C -1.888834 -1.629150 -3.884091 0
M  V30 32 C -0.947000 -3.440913 -2.565526 0
M  V30 33 C -3.325374 -3.420944 -3.083764 0
M  V30 34 C 1.388362 2.001231 1.463248 0
M  V30 35 C 2.746030 1.897591 1.714807 0
M  V30 36 C 3.445172 1.920833 3.045680 0
M  V30 37 H 3.507084 -1.636814 1.763480 0
M  V30 38 H 2.524701 -0.573664 2.923494 0
M  V30 39 H 3.531959 -1.903185 3.526017 0
M  V30 40 H 7.776012 0.375140 3.723071 0
M  V30 41 H 5.627619 0.848031 0.810310 0
M  V30 42 H 5.606564 2.598092 1.188589 0
M  V30 43 H 3.921607 1.593273 -1.443782 0
M  V30 44 H 1.500596 1.774451 -1.952958 0
M  V30 45 H -1.134671 2.774764 -0.296145 0
M  V30 46 H -2.926027 0.845035 0.479390 0
M  V30 47 H -2.674384 0.734054 -1.259723 0
M  V30 48 H -2.330067 -1.358299 1.847410 0
M  V30 49 H -2.268026 -2.874692 0.957807 0
M  V30 50 H -4.473659 -0.291518 2.416598 0
M  V30 51 H -8.017431 -2.647952 1.791521 0
M  V30 52 H -4.263422 -3.862903 0.081559 0
M  V30 53 H -2.749343 -0.966697 -4.109265 0
M  V30 54 H -1.777373 -2.310897 -4.760350 0
M  V30 55 H -0.936425 -1.088075 -3.807352 0
M  V30 56 H -1.158578 -4.149341 -1.736929 0
M  V30 57 H -0.037193 -2.852709 -2.331723 0
M  V30 58 H -0.834413 -4.058076 -3.474178 0
M  V30 59 H -3.373858 -4.369466 -2.497930 0
M  V30 60 H -3.126126 -3.747323 -4.128219 0
M  V30 61 H -4.284857 -2.893038 -3.116264 0
M  V30 62 H 0.653020 2.116303 2.247388 0
M  V30 63 H 2.853169 1.403573 3.803315 0
M  V30 64 H 3.632752 2.968263 3.387407 0
M  V30 END ATOM
M  V30 BEGIN BOND
M  V30 1 1 1 2
M  V30 2 1 2 3
M  V30 3 2 3 4
M  V30 4 1 3 5
M  V30 5 1 5 6
M  V30 6 2 6 7
M  V30 7 1 6 8
M  V30 8 1 8 9
M  V30 9 1 9 10
M  V30 10 2 10 11
M  V30 11 1 11 12
M  V30 12 2 12 13
M  V30 13 1 13 14
M  V30 14 1 14 15
M  V30 15 2 15 16
M  V30 16 1 15 17
M  V30 17 1 17 18
M  V30 18 1 18 19
M  V30 19 1 19 20
M  V30 20 2 20 21
M  V30 21 1 21 22
M  V30 22 1 22 23
M  V30 23 2 22 24
M  V30 24 1 24 25
M  V30 25 1 25 26
M  V30 26 2 25 27
M  V30 27 1 18 28
M  V30 28 2 28 29
M  V30 29 1 28 30
M  V30 30 1 30 31
M  V30 31 1 30 32
M  V30 32 1 30 33
M  V30 33 1 13 34
M  V30 34 2 34 35
M  V30 35 1 35 36
M  V30 36 1 8 2 CFG=3
M  V30 37 1 35 10
M  V30 38 1 36 8
M  V30 39 1 27 20
M  V30 40 1 1 37
M  V30 41 1 1 38
M  V30 42 1 1 39
M  V30 43 1 5 40
M  V30 44 1 9 41
M  V30 45 1 9 42
M  V30 46 1 11 43
M  V30 47 1 12 44
M  V30 48 1 14 45
M  V30 49 1 17 46
M  V30 50 1 17 47
M  V30 51 1 19 48
M  V30 52 1 19 49
M  V30 53 1 21 50
M  V30 54 1 24 51
M  V30 55 1 27 52
M  V30 56 1 31 53
M  V30 57 1 31 54
M  V30 58 1 31 55
M  V30 59 1 32 56
M  V30 60 1 32 57
M  V30 61 1 32 58
M  V30 62 1 33 59
M  V30 63 1 33 60
M  V30 64 1 33 61
M  V30 65 1 34 62
M  V30 66 1 36 63
M  V30 67 1 36 64
M  V30 END BOND
M  V30 END CTAB
M  END
>  <Dataset>  (546) 
ChEMBL_Kinases

>  <Ligand_Instance>  (546) 
nan

>  <PDB_ID>  (546) 
nan

>  <Standardized_SMILES>  (546) 
CN1C(=O)NC(=O)[C@@]12Cc1ccc(NC(=O)CN(Cc3cc(Cl)cc(Cl)c3)C(=O)C(C)(C)C)cc1C2

>  <Name>  (546) 
nan

>  <Pocket>  (546) 
nan

>  <ATP_Site>  (546) 
nan

>  <Peripheral>  (546) 
nan

>  <Num_H_Atoms_ProtBoundConf>  (546) 
nan

>  <Num_Resolved_Atoms>  (546) 
nan

>  <Num_Not_Resolved_Atoms>  (546) 
nan

$$$$
CHEMBL3715984
     RDKit          3D

  0  0  0  0  0  0  0  0  0  0999 V3000
M  V30 BEGIN CTAB
M  V30 COUNTS 50 53 0 0 0
M  V30 BEGIN ATOM
M  V30 1 C 1.146417 -5.488857 1.703416 0
M  V30 2 O 1.688946 -4.707699 2.742525 0
M  V30 3 C 2.068611 -3.399281 2.493441 0
M  V30 4 C 2.568153 -2.836783 3.647320 0
M  V30 5 C 3.023662 -1.525823 3.678889 0
M  V30 6 C 2.985441 -0.753223 2.550317 0
M  V30 7 C 2.482716 -1.316709 1.385590 0
M  V30 8 N 2.399796 -0.602429 0.156716 0
M  V30 9 C 1.954701 -0.852860 -1.180992 0 CFG=2
M  V30 10 C 2.123908 0.310883 -2.123932 0
M  V30 11 C 0.800118 0.350323 -2.841858 0
M  V30 12 N -0.143824 0.053365 -1.786977 0
M  V30 13 C -1.344484 0.512946 -1.138349 0
M  V30 14 N -1.214890 0.681479 0.197309 0
M  V30 15 C -2.236752 1.109753 0.965373 0
M  V30 16 C -2.016694 1.263790 2.397868 0
M  V30 17 C -0.763075 0.956907 2.884384 0
M  V30 18 C -0.532211 1.096880 4.240237 0
M  V30 19 N -1.511150 1.527440 5.088259 0
M  V30 20 C -2.734944 1.822312 4.581261 0
M  V30 21 N -2.961755 1.684194 3.247230 0
M  V30 22 C -3.427981 1.369469 0.322715 0
M  V30 23 C -3.547025 1.190311 -1.060458 0
M  V30 24 O -4.647867 1.438123 -1.606260 0
M  V30 25 N -2.489372 0.756887 -1.793934 0
M  V30 26 C -2.601275 0.566794 -3.224299 0
M  V30 27 C 0.500616 -1.170296 -1.326168 0
M  V30 28 C 2.029394 -2.618881 1.348881 0
M  V30 29 H 0.446958 -6.255853 2.131491 0
M  V30 30 H 0.545540 -4.874078 0.991919 0
M  V30 31 H 1.959762 -6.008474 1.161719 0
M  V30 32 H 2.676686 -3.293169 4.640351 0
M  V30 33 H 3.427406 -1.016593 4.542821 0
M  V30 34 H 3.327988 0.275062 2.523202 0
M  V30 35 H 2.767617 0.394751 0.248246 0
M  V30 36 H 2.510464 -1.710124 -1.652477 0
M  V30 37 H 2.289246 1.270411 -1.572447 0
M  V30 38 H 2.970410 0.148490 -2.842261 0
M  V30 39 H 0.623033 1.335382 -3.329307 0
M  V30 40 H 0.840317 -0.460011 -3.616495 0
M  V30 41 H 0.064122 0.608176 2.264091 0
M  V30 42 H 0.463753 0.851038 4.613529 0
M  V30 43 H -3.495494 2.161673 5.277532 0
M  V30 44 H -4.263941 1.715114 0.916905 0
M  V30 45 H -2.803092 -0.496752 -3.469447 0
M  V30 46 H -1.658470 0.824291 -3.713463 0
M  V30 47 H -3.453995 1.153937 -3.636987 0
M  V30 48 H 0.141060 -1.511897 -0.336253 0
M  V30 49 H 0.302669 -1.993203 -2.042169 0
M  V30 50 H 1.620304 -3.178622 0.520260 0
M  V30 END ATOM
M  V30 BEGIN BOND
M  V30 1 1 1 2
M  V30 2 1 2 3
M  V30 3 2 3 4
M  V30 4 1 4 5
M  V30 5 2 5 6
M  V30 6 1 6 7
M  V30 7 1 7 8
M  V30 8 1 8 9
M  V30 9 1 9 10
M  V30 10 1 10 11
M  V30 11 1 11 12
M  V30 12 1 12 13
M  V30 13 2 13 14
M  V30 14 1 14 15
M  V30 15 1 15 16
M  V30 16 2 16 17
M  V30 17 1 17 18
M  V30 18 2 18 19
M  V30 19 1 19 20
M  V30 20 2 20 21
M  V30 21 2 15 22
M  V30 22 1 22 23
M  V30 23 2 23 24
M  V30 24 1 23 25
M  V30 25 1 25 26
M  V30 26 1 12 27
M  V30 27 2 7 28
M  V30 28 1 28 3
M  V30 29 1 27 9
M  V30 30 1 25 13
M  V30 31 1 21 16
M  V30 32 1 1 29
M  V30 33 1 1 30
M  V30 34 1 1 31
M  V30 35 1 4 32
M  V30 36 1 5 33
M  V30 37 1 6 34
M  V30 38 1 8 35
M  V30 39 1 9 36 CFG=3
M  V30 40 1 10 37
M  V30 41 1 10 38
M  V30 42 1 11 39
M  V30 43 1 11 40
M  V30 44 1 17 41
M  V30 45 1 18 42
M  V30 46 1 20 43
M  V30 47 1 22 44
M  V30 48 1 26 45
M  V30 49 1 26 46
M  V30 50 1 26 47
M  V30 51 1 27 48
M  V30 52 1 27 49
M  V30 53 1 28 50
M  V30 END BOND
M  V30 END CTAB
M  END
>  <Dataset>  (547) 
ChEMBL_Kinases

>  <Ligand_Instance>  (547) 
nan

>  <PDB_ID>  (547) 
nan

>  <Standardized_SMILES>  (547) 
COc1cccc(N[C@@H]2CCN(c3nc(-c4ccncn4)cc(=O)n3C)C2)c1

>  <Name>  (547) 
nan

>  <Pocket>  (547) 
nan

>  <ATP_Site>  (547) 
nan

>  <Peripheral>  (547) 
nan

>  <Num_H_Atoms_ProtBoundConf>  (547) 
nan

>  <Num_Resolved_Atoms>  (547) 
nan

>  <Num_Not_Resolved_Atoms>  (547) 
nan

$$$$
CHEMBL3715975
     RDKit          3D

  0  0  0  0  0  0  0  0  0  0999 V3000
M  V30 BEGIN CTAB
M  V30 COUNTS 45 48 0 0 0
M  V30 BEGIN ATOM
M  V30 1 C 0.105446 -3.430328 3.114516 0
M  V30 2 N -0.687231 -2.323939 2.644592 0
M  V30 3 C -0.129220 -1.454634 1.789385 0
M  V30 4 N 1.208154 -1.434288 1.312822 0
M  V30 5 C 2.433492 -2.103186 1.629675 0
M  V30 6 C 2.841251 -3.016124 0.474802 0
M  V30 7 O 2.340201 -2.485084 -0.728723 0
M  V30 8 C 2.541828 -1.132358 -0.657176 0 CFG=1
M  V30 9 C 2.443419 -0.431795 -2.002198 0
M  V30 10 C 2.398729 1.050593 -1.830120 0
M  V30 11 C 2.617015 1.573291 -0.457558 0
M  V30 12 C 1.947634 0.810873 0.651319 0
M  V30 13 C 1.443244 -0.529774 0.184120 0 CFG=2
M  V30 14 N -0.963848 -0.481392 1.394158 0
M  V30 15 C -2.234320 -0.335845 1.777948 0
M  V30 16 C -3.022889 0.773384 1.264765 0
M  V30 17 C -2.514256 1.699830 0.385752 0
M  V30 18 C -3.193051 2.776566 -0.146378 0
M  V30 19 N -4.486656 2.873712 0.280727 0
M  V30 20 C -4.992424 1.972722 1.139952 0
M  V30 21 N -4.304918 0.911519 1.657118 0
M  V30 22 C -2.754857 -1.251503 2.654496 0
M  V30 23 C -1.949628 -2.270858 3.094123 0
M  V30 24 O -2.397107 -3.115845 3.890145 0
M  V30 25 H -0.593817 -4.251669 3.492746 0
M  V30 26 H 0.632532 -3.922723 2.273618 0
M  V30 27 H 0.734547 -3.185996 3.989457 0
M  V30 28 H 3.239824 -1.296614 1.703879 0
M  V30 29 H 2.488065 -2.616537 2.592310 0
M  V30 30 H 3.948410 -3.154749 0.433750 0
M  V30 31 H 2.423449 -4.018023 0.694165 0
M  V30 32 H 3.552352 -0.893311 -0.213912 0
M  V30 33 H 3.225557 -0.788535 -2.712814 0
M  V30 34 H 1.467587 -0.749709 -2.446445 0
M  V30 35 H 1.469880 1.505843 -2.252737 0
M  V30 36 H 3.224478 1.460804 -2.476183 0
M  V30 37 H 3.712174 1.738734 -0.291698 0
M  V30 38 H 2.166728 2.609565 -0.418392 0
M  V30 39 H 2.733544 0.624605 1.407929 0
M  V30 40 H 1.164878 1.390115 1.187186 0
M  V30 41 H 0.518580 -0.432467 -0.432169 0
M  V30 42 H -1.466725 1.588376 0.064350 0
M  V30 43 H -2.693515 3.445948 -0.832417 0
M  V30 44 H -6.043255 2.123315 1.433887 0
M  V30 45 H -3.766443 -1.195513 3.005375 0
M  V30 END ATOM
M  V30 BEGIN BOND
M  V30 1 1 1 2
M  V30 2 1 2 3
M  V30 3 1 3 4
M  V30 4 1 4 5
M  V30 5 1 5 6
M  V30 6 1 6 7
M  V30 7 1 7 8
M  V30 8 1 8 9
M  V30 9 1 9 10
M  V30 10 1 10 11
M  V30 11 1 11 12
M  V30 12 1 12 13
M  V30 13 2 3 14
M  V30 14 1 14 15
M  V30 15 1 15 16
M  V30 16 2 16 17
M  V30 17 1 17 18
M  V30 18 2 18 19
M  V30 19 1 19 20
M  V30 20 2 20 21
M  V30 21 2 15 22
M  V30 22 1 22 23
M  V30 23 2 23 24
M  V30 24 1 23 2
M  V30 25 1 13 4
M  V30 26 1 21 16
M  V30 27 1 13 8
M  V30 28 1 1 25
M  V30 29 1 1 26
M  V30 30 1 1 27
M  V30 31 1 5 28
M  V30 32 1 5 29
M  V30 33 1 6 30
M  V30 34 1 6 31
M  V30 35 1 8 32 CFG=1
M  V30 36 1 9 33
M  V30 37 1 9 34
M  V30 38 1 10 35
M  V30 39 1 10 36
M  V30 40 1 11 37
M  V30 41 1 11 38
M  V30 42 1 12 39
M  V30 43 1 12 40
M  V30 44 1 13 41 CFG=3
M  V30 45 1 17 42
M  V30 46 1 18 43
M  V30 47 1 20 44
M  V30 48 1 22 45
M  V30 END BOND
M  V30 END CTAB
M  END
>  <Dataset>  (548) 
ChEMBL_Kinases

>  <Ligand_Instance>  (548) 
nan

>  <PDB_ID>  (548) 
nan

>  <Standardized_SMILES>  (548) 
Cn1c(N2CCO[C@H]3CCCC[C@@H]32)nc(-c2ccncn2)cc1=O

>  <Name>  (548) 
nan

>  <Pocket>  (548) 
nan

>  <ATP_Site>  (548) 
nan

>  <Peripheral>  (548) 
nan

>  <Num_H_Atoms_ProtBoundConf>  (548) 
nan

>  <Num_Resolved_Atoms>  (548) 
nan

>  <Num_Not_Resolved_Atoms>  (548) 
nan

$$$$
CHEMBL3715971
     RDKit          3D

  0  0  0  0  0  0  0  0  0  0999 V3000
M  V30 BEGIN CTAB
M  V30 COUNTS 32 33 0 0 0
M  V30 BEGIN ATOM
M  V30 1 C -0.834086 -4.112767 3.742621 0
M  V30 2 O -1.990909 -3.496462 3.186571 0
M  V30 3 C -1.826405 -2.565453 2.159745 0
M  V30 4 C -0.578940 -2.229725 1.673257 0
M  V30 5 C -0.467528 -1.296198 0.649279 0
M  V30 6 C 0.811207 -0.886297 0.078894 0
M  V30 7 N 2.026020 -1.300915 0.407412 0
M  V30 8 N 2.946447 -0.692669 -0.341846 0
M  V30 9 C 2.286172 0.145564 -1.183574 0
M  V30 10 S 3.158312 1.159913 -2.367315 0
M  V30 11 C 3.598536 2.767437 -1.680913 0
M  V30 12 C 4.591900 2.537050 -0.598258 0
M  V30 13 O 5.845300 2.503246 -0.691330 0
M  V30 14 O 4.152908 2.323813 0.712212 0
M  V30 15 N 0.976757 0.012273 -0.909875 0
M  V30 16 C -1.648932 -0.761413 0.184520 0
M  V30 17 C -2.913293 -1.078249 0.651934 0
M  V30 18 N -4.072481 -0.448783 0.082015 0 CHG=1 VAL=4
M  V30 19 O -5.163210 -1.026228 0.003749 0
M  V30 20 O -3.895321 0.833108 -0.370524 0 CHG=-1 VAL=1
M  V30 21 C -3.005538 -2.011756 1.674047 0
M  V30 22 O -4.262132 -2.345648 2.159253 0
M  V30 23 H -0.113876 -3.342457 4.030116 0
M  V30 24 H -1.142831 -4.685715 4.643329 0
M  V30 25 H -0.392864 -4.788160 2.977087 0
M  V30 26 H 0.315598 -2.678462 2.072858 0
M  V30 27 H 2.713180 3.296799 -1.313431 0
M  V30 28 H 4.033659 3.373495 -2.502599 0
M  V30 29 H 4.656808 2.665356 1.518024 0
M  V30 30 H 0.237589 0.552975 -1.421596 0
M  V30 31 H -1.587329 -0.022781 -0.623160 0
M  V30 32 H -4.756827 -1.745189 2.804872 0
M  V30 END ATOM
M  V30 BEGIN BOND
M  V30 1 1 1 2
M  V30 2 1 2 3
M  V30 3 2 3 4
M  V30 4 1 4 5
M  V30 5 1 5 6
M  V30 6 2 6 7
M  V30 7 1 7 8
M  V30 8 2 8 9
M  V30 9 1 9 10
M  V30 10 1 10 11
M  V30 11 1 11 12
M  V30 12 2 12 13
M  V30 13 1 12 14
M  V30 14 1 9 15
M  V30 15 2 5 16
M  V30 16 1 16 17
M  V30 17 1 17 18
M  V30 18 2 18 19
M  V30 19 1 18 20
M  V30 20 2 17 21
M  V30 21 1 21 22
M  V30 22 1 21 3
M  V30 23 1 15 6
M  V30 24 1 1 23
M  V30 25 1 1 24
M  V30 26 1 1 25
M  V30 27 1 4 26
M  V30 28 1 11 27
M  V30 29 1 11 28
M  V30 30 1 14 29
M  V30 31 1 15 30
M  V30 32 1 16 31
M  V30 33 1 22 32
M  V30 END BOND
M  V30 END CTAB
M  END
>  <Dataset>  (549) 
ChEMBL_Kinases

>  <Ligand_Instance>  (549) 
nan

>  <PDB_ID>  (549) 
nan

>  <Standardized_SMILES>  (549) 
COc1cc(-c2nnc(SCC(=O)O)[nH]2)cc([N+](=O)[O-])c1O

>  <Name>  (549) 
nan

>  <Pocket>  (549) 
nan

>  <ATP_Site>  (549) 
nan

>  <Peripheral>  (549) 
nan

>  <Num_H_Atoms_ProtBoundConf>  (549) 
nan

>  <Num_Resolved_Atoms>  (549) 
nan

>  <Num_Not_Resolved_Atoms>  (549) 
nan

$$$$
CHEMBL569590
     RDKit          3D

  0  0  0  0  0  0  0  0  0  0999 V3000
M  V30 BEGIN CTAB
M  V30 COUNTS 65 70 0 0 0
M  V30 BEGIN ATOM
M  V30 1 C 2.886275 2.583352 4.632355 0
M  V30 2 C 1.791667 1.601565 4.634191 0
M  V30 3 C 1.822695 0.573251 3.727515 0
M  V30 4 N 2.793181 0.312383 2.742310 0
M  V30 5 C 3.499363 0.790084 1.641881 0
M  V30 6 C 4.828363 1.156727 1.892701 0
M  V30 7 C 5.444823 0.998581 3.203366 0
M  V30 8 N 5.943986 0.863743 4.249504 0
M  V30 9 C 5.685222 1.675242 0.943457 0
M  V30 10 N 5.169347 1.816819 -0.275935 0
M  V30 11 C 3.914737 1.496407 -0.618607 0
M  V30 12 C 3.074895 0.979892 0.345172 0
M  V30 13 C 1.711175 0.610009 0.000042 0
M  V30 14 C 1.181277 0.776261 -1.258785 0
M  V30 15 C -0.128018 0.354914 -1.351775 0
M  V30 16 C -1.088930 0.295380 -2.329664 0
M  V30 17 C -2.342031 -0.207737 -2.061480 0
M  V30 18 C -3.459029 -0.301588 -3.026894 0
M  V30 19 N -3.486896 -1.454886 -3.826300 0
M  V30 20 C -3.530916 -2.738830 -3.258727 0
M  V30 21 C -3.735157 -3.708915 -4.442339 0
M  V30 22 C -4.110135 -5.038780 -3.839669 0
M  V30 23 C -2.835945 -5.596012 -3.235936 0
M  V30 24 C -1.781780 -4.558898 -3.070263 0
M  V30 25 C -2.311623 -3.223531 -2.532740 0
M  V30 26 C -2.575394 -0.645803 -0.761554 0
M  V30 27 C -1.619280 -0.591637 0.230130 0
M  V30 28 C -0.357833 -0.080440 -0.057381 0
M  V30 29 O 0.717850 0.089908 0.657745 0
M  V30 30 C 0.741073 -0.311725 3.786297 0
M  V30 31 C -0.319700 -0.234649 4.655599 0
M  V30 32 C -0.230625 0.840056 5.511501 0
M  V30 33 N -1.081437 1.238372 6.497420 0
M  V30 34 C -0.651185 2.338476 7.116464 0
M  V30 35 C 0.535240 2.708936 6.536500 0
M  V30 36 C 0.777272 1.776294 5.552580 0
M  V30 37 H 3.703987 2.190592 5.274791 0
M  V30 38 H 3.266041 2.853065 3.628084 0
M  V30 39 H 2.510899 3.548492 5.072333 0
M  V30 40 H 3.174583 -0.663703 2.854771 0
M  V30 41 H 6.707834 1.958156 1.138172 0
M  V30 42 H 3.616566 1.653957 -1.624362 0
M  V30 43 H 1.696563 1.194170 -2.134595 0
M  V30 44 H -0.878783 0.639185 -3.318911 0
M  V30 45 H -4.440174 -0.050426 -2.555480 0
M  V30 46 H -3.294927 0.578029 -3.722722 0
M  V30 47 H -3.005113 -1.410009 -4.739591 0
M  V30 48 H -4.416614 -2.878475 -2.604360 0
M  V30 49 H -2.763527 -3.759919 -4.958297 0
M  V30 50 H -4.556987 -3.265523 -5.037808 0
M  V30 51 H -4.896875 -4.923588 -3.073357 0
M  V30 52 H -4.522734 -5.674452 -4.644583 0
M  V30 53 H -2.439529 -6.321110 -4.007719 0
M  V30 54 H -3.060342 -6.178798 -2.344572 0
M  V30 55 H -1.131293 -4.405933 -3.951765 0
M  V30 56 H -1.076889 -4.940018 -2.270402 0
M  V30 57 H -2.531992 -3.430563 -1.466412 0
M  V30 58 H -1.439292 -2.562813 -2.568330 0
M  V30 59 H -3.532206 -1.060095 -0.447253 0
M  V30 60 H -1.836443 -0.946326 1.247005 0
M  V30 61 H 0.700619 -1.165789 3.087961 0
M  V30 62 H -1.118869 -0.942530 4.652810 0
M  V30 63 H -1.974499 0.760455 6.763321 0
M  V30 64 H -1.153417 2.852659 7.937187 0
M  V30 65 H 1.139824 3.560285 6.810195 0
M  V30 END ATOM
M  V30 BEGIN BOND
M  V30 1 1 1 2
M  V30 2 2 2 3
M  V30 3 1 3 4
M  V30 4 1 4 5
M  V30 5 2 5 6
M  V30 6 1 6 7
M  V30 7 3 7 8
M  V30 8 1 6 9
M  V30 9 2 9 10
M  V30 10 1 10 11
M  V30 11 2 11 12
M  V30 12 1 12 13
M  V30 13 2 13 14
M  V30 14 1 14 15
M  V30 15 2 15 16
M  V30 16 1 16 17
M  V30 17 1 17 18
M  V30 18 1 18 19
M  V30 19 1 19 20
M  V30 20 1 20 21
M  V30 21 1 21 22
M  V30 22 1 22 23
M  V30 23 1 23 24
M  V30 24 1 24 25
M  V30 25 2 17 26
M  V30 26 1 26 27
M  V30 27 2 27 28
M  V30 28 1 28 29
M  V30 29 1 3 30
M  V30 30 2 30 31
M  V30 31 1 31 32
M  V30 32 1 32 33
M  V30 33 1 33 34
M  V30 34 2 34 35
M  V30 35 1 35 36
M  V30 36 1 36 2
M  V30 37 1 12 5
M  V30 38 1 29 13
M  V30 39 2 36 32
M  V30 40 1 28 15
M  V30 41 1 25 20
M  V30 42 1 1 37
M  V30 43 1 1 38
M  V30 44 1 1 39
M  V30 45 1 4 40
M  V30 46 1 9 41
M  V30 47 1 11 42
M  V30 48 1 14 43
M  V30 49 1 16 44
M  V30 50 1 18 45
M  V30 51 1 18 46
M  V30 52 1 19 47
M  V30 53 1 20 48
M  V30 54 1 21 49
M  V30 55 1 21 50
M  V30 56 1 22 51
M  V30 57 1 22 52
M  V30 58 1 23 53
M  V30 59 1 23 54
M  V30 60 1 24 55
M  V30 61 1 24 56
M  V30 62 1 25 57
M  V30 63 1 25 58
M  V30 64 1 26 59
M  V30 65 1 27 60
M  V30 66 1 30 61
M  V30 67 1 31 62
M  V30 68 1 33 63
M  V30 69 1 34 64
M  V30 70 1 35 65
M  V30 END BOND
M  V30 END CTAB
M  END
>  <Dataset>  (550) 
ChEMBL_Kinases

>  <Ligand_Instance>  (550) 
nan

>  <PDB_ID>  (550) 
nan

>  <Standardized_SMILES>  (550) 
Cc1c(Nc2c(C#N)cncc2-c2cc3cc(CNC4CCCCC4)ccc3o2)ccc2[nH]ccc12

>  <Name>  (550) 
nan

>  <Pocket>  (550) 
nan

>  <ATP_Site>  (550) 
nan

>  <Peripheral>  (550) 
nan

>  <Num_H_Atoms_ProtBoundConf>  (550) 
nan

>  <Num_Resolved_Atoms>  (550) 
nan

>  <Num_Not_Resolved_Atoms>  (550) 
nan

$$$$
CHEMBL3715951
     RDKit          3D

  0  0  0  0  0  0  0  0  0  0999 V3000
M  V30 BEGIN CTAB
M  V30 COUNTS 44 47 0 0 0
M  V30 BEGIN ATOM
M  V30 1 N 2.011045 1.282000 6.211747 0
M  V30 2 C 2.100639 1.533491 4.829925 0
M  V30 3 O 2.879672 2.516962 4.711728 0
M  V30 4 C 1.261742 0.563546 4.076256 0
M  V30 5 C 1.425596 0.916399 2.605650 0
M  V30 6 N 2.784796 0.819429 2.176216 0
M  V30 7 C 3.340608 1.191681 0.906998 0
M  V30 8 C 4.684284 1.027703 0.605404 0
M  V30 9 C 5.188550 1.399896 -0.600474 0
M  V30 10 C 4.383016 1.950950 -1.560277 0
M  V30 11 C 3.037317 2.147119 -1.338716 0
M  V30 12 O 2.195747 2.702720 -2.290816 0
M  V30 13 C 2.585249 1.753007 -0.105384 0
M  V30 14 C 0.551004 0.052495 1.763917 0
M  V30 15 O -0.660445 0.231204 2.143025 0
M  V30 16 N 0.801887 -0.860292 0.703209 0
M  V30 17 C -0.393589 -1.497752 0.157209 0
M  V30 18 N -0.942102 -2.494817 0.455085 0
M  V30 19 C -2.018584 -3.032235 -0.065456 0
M  V30 20 C -2.702670 -4.192120 0.240918 0
M  V30 21 C -3.831793 -4.559103 -0.458236 0
M  V30 22 C -4.383099 -3.841210 -1.498059 0
M  V30 23 N -5.409726 -3.878686 -2.364359 0
M  V30 24 N -5.405052 -2.832363 -3.174935 0
M  V30 25 C -4.349505 -2.013571 -2.891733 0
M  V30 26 C -3.758903 -2.671956 -1.863970 0
M  V30 27 C -2.618395 -2.334745 -1.131704 0
M  V30 28 S -1.445456 -0.856006 -1.259934 0
M  V30 29 H 1.642515 1.355617 7.196486 0
M  V30 30 H 1.960679 1.085274 7.223271 0
M  V30 31 H 1.575576 -0.458060 4.299333 0
M  V30 32 H 0.207992 0.769862 4.326372 0
M  V30 33 H 1.082429 1.956241 2.481431 0
M  V30 34 H 3.469032 0.429021 2.866611 0
M  V30 35 H 5.319214 0.583896 1.385757 0
M  V30 36 H 6.265669 1.225951 -0.735175 0
M  V30 37 H 4.823539 2.235337 -2.511037 0
M  V30 38 H 1.285055 2.256782 -2.410714 0
M  V30 39 H 1.529800 1.889936 0.111041 0
M  V30 40 H 1.798825 -0.920021 0.503345 0
M  V30 41 H -2.383396 -4.853804 1.034582 0
M  V30 42 H -4.374589 -5.488539 -0.208048 0
M  V30 43 H -6.108214 -4.677807 -2.351433 0
M  V30 44 H -4.008074 -1.084252 -3.317470 0
M  V30 END ATOM
M  V30 BEGIN BOND
M  V30 1 1 1 2
M  V30 2 2 2 3
M  V30 3 1 2 4
M  V30 4 1 4 5
M  V30 5 1 5 6
M  V30 6 1 6 7
M  V30 7 2 7 8
M  V30 8 1 8 9
M  V30 9 2 9 10
M  V30 10 1 10 11
M  V30 11 1 11 12
M  V30 12 2 11 13
M  V30 13 1 5 14
M  V30 14 2 14 15
M  V30 15 1 14 16
M  V30 16 1 16 17
M  V30 17 2 17 18
M  V30 18 1 18 19
M  V30 19 2 19 20
M  V30 20 1 20 21
M  V30 21 2 21 22
M  V30 22 1 22 23
M  V30 23 1 23 24
M  V30 24 2 24 25
M  V30 25 1 25 26
M  V30 26 2 26 27
M  V30 27 1 27 28
M  V30 28 1 13 7
M  V30 29 1 28 17
M  V30 30 1 27 19
M  V30 31 1 26 22
M  V30 32 1 1 29
M  V30 33 1 1 30
M  V30 34 1 4 31
M  V30 35 1 4 32
M  V30 36 1 5 33
M  V30 37 1 6 34
M  V30 38 1 8 35
M  V30 39 1 9 36
M  V30 40 1 10 37
M  V30 41 1 12 38
M  V30 42 1 13 39
M  V30 43 1 16 40
M  V30 44 1 20 41
M  V30 45 1 21 42
M  V30 46 1 23 43
M  V30 47 1 25 44
M  V30 END BOND
M  V30 END CTAB
M  END
>  <Dataset>  (551) 
ChEMBL_Kinases

>  <Ligand_Instance>  (551) 
nan

>  <PDB_ID>  (551) 
nan

>  <Standardized_SMILES>  (551) 
NC(=O)CC(Nc1cccc(O)c1)C(=O)Nc1nc2ccc3[nH]ncc3c2s1

>  <Name>  (551) 
nan

>  <Pocket>  (551) 
nan

>  <ATP_Site>  (551) 
nan

>  <Peripheral>  (551) 
nan

>  <Num_H_Atoms_ProtBoundConf>  (551) 
nan

>  <Num_Resolved_Atoms>  (551) 
nan

>  <Num_Not_Resolved_Atoms>  (551) 
nan

$$$$
CHEMBL569796
     RDKit          3D

  0  0  0  0  0  0  0  0  0  0999 V3000
M  V30 BEGIN CTAB
M  V30 COUNTS 59 64 0 0 0
M  V30 BEGIN ATOM
M  V30 1 C 4.807440 -2.412995 0.601132 0
M  V30 2 C 3.646256 -2.719144 1.438306 0
M  V30 3 C 2.918184 -1.777719 2.178369 0
M  V30 4 N 3.260084 -0.418281 2.143384 0
M  V30 5 C 3.541035 0.681957 1.354010 0
M  V30 6 C 4.921127 0.963962 1.435081 0
M  V30 7 C 5.856186 0.264140 2.285116 0
M  V30 8 N 6.602515 -0.317948 2.984263 0
M  V30 9 C 5.553077 1.981509 0.718275 0
M  V30 10 N 4.785263 2.717033 -0.082786 0
M  V30 11 C 3.480950 2.472663 -0.175529 0
M  V30 12 C 2.820592 1.483757 0.511137 0
M  V30 13 C 1.394196 1.276411 0.431279 0
M  V30 14 C 0.413018 0.575488 1.045834 0
M  V30 15 C -0.836350 0.785880 0.510831 0
M  V30 16 C -2.121898 0.351835 0.736557 0
M  V30 17 C -3.102948 0.858331 -0.090523 0
M  V30 18 C -4.490285 0.386931 0.156651 0
M  V30 19 N -4.854867 -0.786849 -0.571555 0
M  V30 20 C -6.226159 -1.122985 -0.229097 0
M  V30 21 C -6.993062 -0.052300 -0.997388 0
M  V30 22 C -6.146336 0.254687 -2.206525 0
M  V30 23 C -4.944938 -0.605310 -1.998075 0
M  V30 24 C -2.812295 1.759336 -1.099323 0
M  V30 25 C -1.515860 2.196697 -1.326544 0
M  V30 26 C -0.541964 1.682035 -0.491316 0
M  V30 27 O 0.738954 1.918922 -0.483111 0
M  V30 28 C 1.854500 -2.300448 2.875378 0
M  V30 29 C 1.434845 -3.599053 2.928565 0
M  V30 30 C 2.175668 -4.485764 2.190193 0
M  V30 31 N 2.070111 -5.813344 2.000695 0
M  V30 32 C 3.013508 -6.296407 1.191236 0
M  V30 33 C 3.763278 -5.207467 0.846449 0
M  V30 34 C 3.257469 -4.059129 1.460686 0
M  V30 35 H 5.759617 -2.368501 1.131129 0
M  V30 36 H 4.618462 -1.483568 -0.000173 0
M  V30 37 H 4.936345 -3.239942 -0.158125 0
M  V30 38 H 3.319593 -0.147374 3.173137 0
M  V30 39 H 6.600752 2.220782 0.757371 0
M  V30 40 H 2.922791 3.119359 -0.852169 0
M  V30 41 H 0.632732 -0.058145 1.877543 0
M  V30 42 H -2.234094 -0.343501 1.540544 0
M  V30 43 H -4.614597 0.137958 1.239185 0
M  V30 44 H -5.168572 1.246052 -0.015868 0
M  V30 45 H -6.528100 -2.126489 -0.577534 0
M  V30 46 H -6.390497 -1.000901 0.876020 0
M  V30 47 H -8.012393 -0.386096 -1.267372 0
M  V30 48 H -7.140337 0.820061 -0.324176 0
M  V30 49 H -5.916077 1.327522 -2.339074 0
M  V30 50 H -6.739062 -0.051119 -3.117446 0
M  V30 51 H -4.010908 -0.212880 -2.444319 0
M  V30 52 H -5.174308 -1.611463 -2.428098 0
M  V30 53 H -3.602299 2.142107 -1.735412 0
M  V30 54 H -1.231988 2.902719 -2.104916 0
M  V30 55 H 1.232857 -1.631978 3.496129 0
M  V30 56 H 0.584191 -3.936968 3.501494 0
M  V30 57 H 1.319489 -6.393627 2.449170 0
M  V30 58 H 3.152330 -7.330814 0.876865 0
M  V30 59 H 4.631648 -5.244565 0.183985 0
M  V30 END ATOM
M  V30 BEGIN BOND
M  V30 1 1 1 2
M  V30 2 2 2 3
M  V30 3 1 3 4
M  V30 4 1 4 5
M  V30 5 2 5 6
M  V30 6 1 6 7
M  V30 7 3 7 8
M  V30 8 1 6 9
M  V30 9 2 9 10
M  V30 10 1 10 11
M  V30 11 2 11 12
M  V30 12 1 12 13
M  V30 13 2 13 14
M  V30 14 1 14 15
M  V30 15 2 15 16
M  V30 16 1 16 17
M  V30 17 1 17 18
M  V30 18 1 18 19
M  V30 19 1 19 20
M  V30 20 1 20 21
M  V30 21 1 21 22
M  V30 22 1 22 23
M  V30 23 2 17 24
M  V30 24 1 24 25
M  V30 25 2 25 26
M  V30 26 1 26 27
M  V30 27 1 3 28
M  V30 28 2 28 29
M  V30 29 1 29 30
M  V30 30 1 30 31
M  V30 31 1 31 32
M  V30 32 2 32 33
M  V30 33 1 33 34
M  V30 34 1 34 2
M  V30 35 1 12 5
M  V30 36 1 27 13
M  V30 37 2 34 30
M  V30 38 1 26 15
M  V30 39 1 23 19
M  V30 40 1 1 35
M  V30 41 1 1 36
M  V30 42 1 1 37
M  V30 43 1 4 38
M  V30 44 1 9 39
M  V30 45 1 11 40
M  V30 46 1 14 41
M  V30 47 1 16 42
M  V30 48 1 18 43
M  V30 49 1 18 44
M  V30 50 1 20 45
M  V30 51 1 20 46
M  V30 52 1 21 47
M  V30 53 1 21 48
M  V30 54 1 22 49
M  V30 55 1 22 50
M  V30 56 1 23 51
M  V30 57 1 23 52
M  V30 58 1 24 53
M  V30 59 1 25 54
M  V30 60 1 28 55
M  V30 61 1 29 56
M  V30 62 1 31 57
M  V30 63 1 32 58
M  V30 64 1 33 59
M  V30 END BOND
M  V30 END CTAB
M  END
>  <Dataset>  (552) 
ChEMBL_Kinases

>  <Ligand_Instance>  (552) 
nan

>  <PDB_ID>  (552) 
nan

>  <Standardized_SMILES>  (552) 
Cc1c(Nc2c(C#N)cncc2-c2cc3cc(CN4CCCC4)ccc3o2)ccc2[nH]ccc12

>  <Name>  (552) 
nan

>  <Pocket>  (552) 
nan

>  <ATP_Site>  (552) 
nan

>  <Peripheral>  (552) 
nan

>  <Num_H_Atoms_ProtBoundConf>  (552) 
nan

>  <Num_Resolved_Atoms>  (552) 
nan

>  <Num_Not_Resolved_Atoms>  (552) 
nan

$$$$
CHEMBL3715939
     RDKit          3D

  0  0  0  0  0  0  0  0  0  0999 V3000
M  V30 BEGIN CTAB
M  V30 COUNTS 33 35 0 0 0
M  V30 BEGIN ATOM
M  V30 1 O 0.062611 0.594137 2.038646 0
M  V30 2 C 0.176765 0.440490 0.847482 0
M  V30 3 N -0.123845 -0.917223 0.478824 0
M  V30 4 C -0.526661 -1.953489 1.329049 0
M  V30 5 C 0.471599 -2.636984 2.207134 0
M  V30 6 C 1.082178 -3.884476 1.631949 0
M  V30 7 C -0.020088 -4.753186 1.031051 0
M  V30 8 N -0.597248 -3.976444 -0.056622 0
M  V30 9 C -1.398544 -2.923845 0.574489 0
M  V30 10 C 0.566873 1.387634 -0.248669 0
M  V30 11 C 1.354097 1.270268 -1.356653 0
M  V30 12 C 1.487481 2.310275 -2.249473 0
M  V30 13 N 0.813351 3.481814 -2.003455 0
M  V30 14 C 0.027457 3.601325 -0.890792 0
M  V30 15 N -0.651779 4.723138 -0.564618 0
M  V30 16 C -1.291311 4.488621 0.591417 0
M  V30 17 N -0.969913 3.193731 0.940572 0
M  V30 18 C -0.146237 2.570114 0.055491 0
M  V30 19 H -0.018562 -1.177540 -0.549974 0
M  V30 20 H -1.221924 -1.467686 2.092410 0
M  V30 21 H 1.194693 -1.954573 2.638911 0
M  V30 22 H -0.085990 -3.041338 3.110386 0
M  V30 23 H 1.831242 -3.737071 0.855957 0
M  V30 24 H 1.507439 -4.515246 2.447611 0
M  V30 25 H -0.836580 -4.925313 1.778831 0
M  V30 26 H 0.421492 -5.711796 0.705172 0
M  V30 27 H 0.148345 -3.625652 -0.660003 0
M  V30 28 H -1.975774 -2.442269 -0.221912 0
M  V30 29 H -2.064513 -3.471158 1.280628 0
M  V30 30 H 1.793739 0.293749 -1.356018 0
M  V30 31 H 2.147434 2.095827 -3.095165 0
M  V30 32 H -1.958417 5.026271 1.283295 0
M  V30 33 H -1.258431 2.655824 1.769156 0
M  V30 END ATOM
M  V30 BEGIN BOND
M  V30 1 2 1 2
M  V30 2 1 2 3
M  V30 3 1 3 4
M  V30 4 1 4 5
M  V30 5 1 5 6
M  V30 6 1 6 7
M  V30 7 1 7 8
M  V30 8 1 8 9
M  V30 9 1 2 10
M  V30 10 2 10 11
M  V30 11 1 11 12
M  V30 12 2 12 13
M  V30 13 1 13 14
M  V30 14 1 14 15
M  V30 15 2 15 16
M  V30 16 1 16 17
M  V30 17 1 17 18
M  V30 18 1 9 4
M  V30 19 1 18 10
M  V30 20 2 18 14
M  V30 21 1 3 19
M  V30 22 1 4 20
M  V30 23 1 5 21
M  V30 24 1 5 22
M  V30 25 1 6 23
M  V30 26 1 6 24
M  V30 27 1 7 25
M  V30 28 1 7 26
M  V30 29 1 8 27
M  V30 30 1 9 28
M  V30 31 1 9 29
M  V30 32 1 11 30
M  V30 33 1 12 31
M  V30 34 1 16 32
M  V30 35 1 17 33
M  V30 END BOND
M  V30 END CTAB
M  END
>  <Dataset>  (553) 
ChEMBL_Kinases

>  <Ligand_Instance>  (553) 
nan

>  <PDB_ID>  (553) 
nan

>  <Standardized_SMILES>  (553) 
O=C(NC1CCCNC1)c1ccnc2nc[nH]c12

>  <Name>  (553) 
nan

>  <Pocket>  (553) 
nan

>  <ATP_Site>  (553) 
nan

>  <Peripheral>  (553) 
nan

>  <Num_H_Atoms_ProtBoundConf>  (553) 
nan

>  <Num_Resolved_Atoms>  (553) 
nan

>  <Num_Not_Resolved_Atoms>  (553) 
nan

$$$$
CHEMBL3715933
     RDKit          3D

  0  0  0  0  0  0  0  0  0  0999 V3000
M  V30 BEGIN CTAB
M  V30 COUNTS 42 45 0 0 0
M  V30 BEGIN ATOM
M  V30 1 N 1.103107 -4.103854 3.283282 0
M  V30 2 C 2.155062 -3.111351 3.157757 0
M  V30 3 C 2.157216 -2.691087 1.709775 0
M  V30 4 C 2.981162 -3.424892 0.848732 0
M  V30 5 C 3.024743 -3.085814 -0.487577 0
M  V30 6 C 2.272100 -2.040920 -0.979420 0
M  V30 7 N 2.143531 -1.535642 -2.219298 0
M  V30 8 C 1.271952 -0.510922 -2.177472 0
M  V30 9 N 0.773788 0.333973 -3.106769 0
M  V30 10 C -0.113455 1.283091 -2.768265 0
M  V30 11 N -0.559574 2.102180 -3.827746 0
M  V30 12 N -0.519875 1.400238 -1.469803 0
M  V30 13 C -0.046662 0.575479 -0.504211 0
M  V30 14 N -0.558171 0.890178 0.781470 0
M  V30 15 C 0.309446 1.552259 1.766070 0
M  V30 16 C -0.314281 1.473001 3.114788 0
M  V30 17 C -1.445721 0.511401 3.253526 0
M  V30 18 C -2.492487 0.675314 2.174242 0
M  V30 19 C -1.912291 0.440833 0.794553 0
M  V30 20 C 0.856826 -0.384785 -0.880229 0
M  V30 21 C 1.464092 -1.323687 -0.123916 0
M  V30 22 C 1.413161 -1.650270 1.196431 0
M  V30 23 H 0.315093 -3.857432 2.627586 0
M  V30 24 H 1.484777 -5.017587 2.943589 0
M  V30 25 H 3.132814 -3.535850 3.391077 0
M  V30 26 H 1.919677 -2.235750 3.799821 0
M  V30 27 H 3.576929 -4.246275 1.218637 0
M  V30 28 H 3.672009 -3.672261 -1.130061 0
M  V30 29 H 2.653373 -1.900980 -3.068003 0
M  V30 30 H -1.203011 1.746322 -4.594077 0
M  V30 31 H -0.278761 3.100733 -3.911185 0
M  V30 32 H 1.333841 1.197795 1.704772 0
M  V30 33 H 0.335053 2.633159 1.471008 0
M  V30 34 H -0.607526 2.472003 3.538910 0
M  V30 35 H 0.492691 1.111292 3.817381 0
M  V30 36 H -1.060706 -0.508592 3.321992 0
M  V30 37 H -1.944141 0.725226 4.221225 0
M  V30 38 H -2.963196 1.665371 2.248073 0
M  V30 39 H -3.265011 -0.105642 2.332612 0
M  V30 40 H -2.025499 -0.631921 0.503999 0
M  V30 41 H -2.492908 1.081963 0.091169 0
M  V30 42 H 0.825727 -1.188840 1.967268 0
M  V30 END ATOM
M  V30 BEGIN BOND
M  V30 1 1 1 2
M  V30 2 1 2 3
M  V30 3 2 3 4
M  V30 4 1 4 5
M  V30 5 2 5 6
M  V30 6 1 6 7
M  V30 7 1 7 8
M  V30 8 2 8 9
M  V30 9 1 9 10
M  V30 10 1 10 11
M  V30 11 2 10 12
M  V30 12 1 12 13
M  V30 13 1 13 14
M  V30 14 1 14 15
M  V30 15 1 15 16
M  V30 16 1 16 17
M  V30 17 1 17 18
M  V30 18 1 18 19
M  V30 19 2 13 20
M  V30 20 1 20 21
M  V30 21 2 21 22
M  V30 22 1 22 3
M  V30 23 1 21 6
M  V30 24 1 20 8
M  V30 25 1 19 14
M  V30 26 1 1 23
M  V30 27 1 1 24
M  V30 28 1 2 25
M  V30 29 1 2 26
M  V30 30 1 4 27
M  V30 31 1 5 28
M  V30 32 1 7 29
M  V30 33 1 11 30
M  V30 34 1 11 31
M  V30 35 1 15 32
M  V30 36 1 15 33
M  V30 37 1 16 34
M  V30 38 1 16 35
M  V30 39 1 17 36
M  V30 40 1 17 37
M  V30 41 1 18 38
M  V30 42 1 18 39
M  V30 43 1 19 40
M  V30 44 1 19 41
M  V30 45 1 22 42
M  V30 END BOND
M  V30 END CTAB
M  END
>  <Dataset>  (554) 
ChEMBL_Kinases

>  <Ligand_Instance>  (554) 
nan

>  <PDB_ID>  (554) 
nan

>  <Standardized_SMILES>  (554) 
NCc1ccc2[nH]c3nc(N)nc(N4CCCCC4)c3c2c1

>  <Name>  (554) 
nan

>  <Pocket>  (554) 
nan

>  <ATP_Site>  (554) 
nan

>  <Peripheral>  (554) 
nan

>  <Num_H_Atoms_ProtBoundConf>  (554) 
nan

>  <Num_Resolved_Atoms>  (554) 
nan

>  <Num_Not_Resolved_Atoms>  (554) 
nan

$$$$
CHEMBL3715919
     RDKit          3D

  0  0  0  0  0  0  0  0  0  0999 V3000
M  V30 BEGIN CTAB
M  V30 COUNTS 43 46 0 0 0
M  V30 BEGIN ATOM
M  V30 1 C 0.649459 -5.633502 0.362930 0
M  V30 2 N 1.052860 -4.632473 1.296106 0
M  V30 3 C 0.019222 -4.383956 2.248047 0
M  V30 4 C -1.052179 -3.484404 1.728134 0
M  V30 5 C -0.453078 -2.186362 1.248448 0
M  V30 6 C 1.057958 -2.187723 1.326566 0
M  V30 7 N 1.525639 -1.029222 0.622128 0
M  V30 8 C 2.504544 -0.141988 1.199958 0
M  V30 9 O 2.804639 -0.595734 2.317484 0
M  V30 10 C 2.793245 0.964078 0.287185 0
M  V30 11 C 3.971193 1.207566 -0.434202 0
M  V30 12 C 3.967092 2.337170 -1.204518 0
M  V30 13 N 2.971831 3.220890 -1.336946 0
M  V30 14 C 1.790804 3.059712 -0.669032 0
M  V30 15 N 0.610321 3.700894 -0.542721 0
M  V30 16 C -0.146929 3.006059 0.292293 0
M  V30 17 C -1.539565 3.367725 0.705700 0
M  V30 18 C -2.339238 2.667227 1.514516 0
M  V30 19 C -3.575465 3.120888 1.811937 0
M  V30 20 C -3.933132 4.367999 1.207041 0
M  V30 21 S -2.358717 4.766196 0.223431 0
M  V30 22 N 0.541711 1.942196 0.689118 0
M  V30 23 C 1.784864 1.927951 0.106611 0
M  V30 24 C 1.627279 -3.455804 0.704699 0
M  V30 25 H -0.326886 -6.063551 0.623819 0
M  V30 26 H 0.545701 -5.174003 -0.644869 0
M  V30 27 H 1.376970 -6.490222 0.314828 0
M  V30 28 H 0.451804 -3.917028 3.162586 0
M  V30 29 H -0.420888 -5.356234 2.552769 0
M  V30 30 H -1.589916 -3.974085 0.899487 0
M  V30 31 H -1.803578 -3.299199 2.529175 0
M  V30 32 H -0.699238 -2.033644 0.154870 0
M  V30 33 H -0.867331 -1.365006 1.863523 0
M  V30 34 H 1.355856 -2.245740 2.392240 0
M  V30 35 H 1.065768 -0.926442 -0.332833 0
M  V30 36 H 4.725406 0.478818 -0.293123 0
M  V30 37 H 4.897292 2.522129 -1.772960 0
M  V30 38 H -1.990021 1.709869 1.943260 0
M  V30 39 H -4.301132 2.618017 2.463090 0
M  V30 40 H -5.015276 4.824337 1.433345 0
M  V30 41 H 0.096842 1.251189 1.370441 0
M  V30 42 H 2.718814 -3.431295 0.910258 0
M  V30 43 H 1.480418 -3.432672 -0.386026 0
M  V30 END ATOM
M  V30 BEGIN BOND
M  V30 1 1 1 2
M  V30 2 1 2 3
M  V30 3 1 3 4
M  V30 4 1 4 5
M  V30 5 1 5 6
M  V30 6 1 6 7
M  V30 7 1 7 8
M  V30 8 2 8 9
M  V30 9 1 8 10
M  V30 10 2 10 11
M  V30 11 1 11 12
M  V30 12 2 12 13
M  V30 13 1 13 14
M  V30 14 1 14 15
M  V30 15 2 15 16
M  V30 16 1 16 17
M  V30 17 2 17 18
M  V30 18 1 18 19
M  V30 19 2 19 20
M  V30 20 1 20 21
M  V30 21 1 16 22
M  V30 22 1 22 23
M  V30 23 1 6 24
M  V30 24 1 24 2
M  V30 25 1 23 10
M  V30 26 2 23 14
M  V30 27 1 21 17
M  V30 28 1 1 25
M  V30 29 1 1 26
M  V30 30 1 1 27
M  V30 31 1 3 28
M  V30 32 1 3 29
M  V30 33 1 4 30
M  V30 34 1 4 31
M  V30 35 1 5 32
M  V30 36 1 5 33
M  V30 37 1 6 34
M  V30 38 1 7 35
M  V30 39 1 11 36
M  V30 40 1 12 37
M  V30 41 1 18 38
M  V30 42 1 19 39
M  V30 43 1 20 40
M  V30 44 1 22 41
M  V30 45 1 24 42
M  V30 46 1 24 43
M  V30 END BOND
M  V30 END CTAB
M  END
>  <Dataset>  (555) 
ChEMBL_Kinases

>  <Ligand_Instance>  (555) 
nan

>  <PDB_ID>  (555) 
nan

>  <Standardized_SMILES>  (555) 
CN1CCCC(NC(=O)c2ccnc3nc(-c4cccs4)[nH]c23)C1

>  <Name>  (555) 
nan

>  <Pocket>  (555) 
nan

>  <ATP_Site>  (555) 
nan

>  <Peripheral>  (555) 
nan

>  <Num_H_Atoms_ProtBoundConf>  (555) 
nan

>  <Num_Resolved_Atoms>  (555) 
nan

>  <Num_Not_Resolved_Atoms>  (555) 
nan

$$$$
CHEMBL3715917
     RDKit          3D

  0  0  0  0  0  0  0  0  0  0999 V3000
M  V30 BEGIN CTAB
M  V30 COUNTS 63 66 0 0 0
M  V30 BEGIN ATOM
M  V30 1 C 0.894459 -4.206785 3.800555 0
M  V30 2 C 1.519281 -3.277638 2.777502 0
M  V30 3 C 2.389197 -2.268019 3.465931 0
M  V30 4 N 2.311726 -4.066577 1.855815 0
M  V30 5 C 3.068833 -3.592063 0.730571 0
M  V30 6 C 3.814402 -4.400412 -0.121503 0
M  V30 7 C 4.491303 -3.806682 -1.164010 0
M  V30 8 C 4.482567 -2.453144 -1.426314 0
M  V30 9 Cl 5.409084 -1.890018 -2.802602 0
M  V30 10 C 3.735671 -1.660016 -0.569360 0
M  V30 11 C 3.747639 -0.232224 -0.876275 0
M  V30 12 O 4.739673 0.562418 -0.880806 0
M  V30 13 N 2.504537 0.407679 -1.224525 0
M  V30 14 C 2.353400 1.820913 -1.556160 0
M  V30 15 C 0.912862 2.166986 -1.873731 0
M  V30 16 C 0.442051 1.342510 -3.059446 0
M  V30 17 S -1.264872 1.804716 -3.376165 0
M  V30 18 N -2.171971 1.453636 -1.972290 0
M  V30 19 O -1.359699 3.257478 -3.670588 0
M  V30 20 O -1.776001 1.031433 -4.566934 0
M  V30 21 C 3.047554 -2.230150 0.483770 0
M  V30 22 C 0.450710 -2.586856 1.975883 0
M  V30 23 O -0.057949 -2.402569 0.817381 0
M  V30 24 N -0.345490 -1.797664 2.851758 0
M  V30 25 C -1.453444 -1.015491 2.368969 0
M  V30 26 N -2.599556 -1.214470 2.211215 0
M  V30 27 C -3.520877 -0.395192 1.752416 0
M  V30 28 C -4.871369 -0.595861 1.554890 0
M  V30 29 C -5.556562 -1.902237 1.863472 0
M  V30 30 F -5.446950 -2.251428 3.173247 0
M  V30 31 F -4.821844 -2.855469 1.143549 0
M  V30 32 F -6.810656 -1.927284 1.341056 0
M  V30 33 C -5.649045 0.414330 1.059422 0
M  V30 34 C -5.220459 1.678608 0.715013 0
M  V30 35 N -5.687843 2.839077 0.229488 0
M  V30 36 N -4.702499 3.726167 0.122385 0
M  V30 37 C -3.538700 3.190137 0.533077 0
M  V30 38 C -3.877116 1.906774 0.901843 0
M  V30 39 C -3.074353 0.901215 1.400681 0
M  V30 40 S -1.305183 0.809418 1.779466 0
M  V30 41 H -0.140559 -3.903790 4.029037 0
M  V30 42 H 1.484013 -4.125409 4.720520 0
M  V30 43 H 0.956548 -5.254811 3.424918 0
M  V30 44 H 3.443362 -2.282336 3.116363 0
M  V30 45 H 2.467686 -2.488464 4.570707 0
M  V30 46 H 2.020238 -1.229647 3.383430 0
M  V30 47 H 2.378461 -5.121414 1.974991 0
M  V30 48 H 3.817977 -5.458868 0.088163 0
M  V30 49 H 5.064104 -4.480140 -1.807924 0
M  V30 50 H 1.647516 -0.185744 -1.240628 0
M  V30 51 H 2.649083 2.408140 -0.647202 0
M  V30 52 H 3.031560 2.141312 -2.364757 0
M  V30 53 H 0.903623 3.225821 -2.171979 0
M  V30 54 H 0.289288 2.001626 -0.988336 0
M  V30 55 H 0.533624 0.262617 -2.906456 0
M  V30 56 H 1.000565 1.617451 -3.975571 0
M  V30 57 H -3.019151 0.885740 -2.198858 0
M  V30 58 H -1.610267 1.081202 -1.192102 0
M  V30 59 H 2.519247 -1.485329 1.052725 0
M  V30 60 H -0.312821 -1.628345 3.901798 0
M  V30 61 H -6.728281 0.240463 0.906200 0
M  V30 62 H -6.710012 2.948722 -0.008630 0
M  V30 63 H -2.543778 3.613386 0.585240 0
M  V30 END ATOM
M  V30 BEGIN BOND
M  V30 1 1 1 2
M  V30 2 1 2 3
M  V30 3 1 2 4
M  V30 4 1 4 5
M  V30 5 2 5 6
M  V30 6 1 6 7
M  V30 7 2 7 8
M  V30 8 1 8 9
M  V30 9 1 8 10
M  V30 10 1 10 11
M  V30 11 2 11 12
M  V30 12 1 11 13
M  V30 13 1 13 14
M  V30 14 1 14 15
M  V30 15 1 15 16
M  V30 16 1 16 17
M  V30 17 1 17 18
M  V30 18 2 17 19
M  V30 19 2 17 20
M  V30 20 2 10 21
M  V30 21 1 2 22
M  V30 22 2 22 23
M  V30 23 1 22 24
M  V30 24 1 24 25
M  V30 25 2 25 26
M  V30 26 1 26 27
M  V30 27 2 27 28
M  V30 28 1 28 29
M  V30 29 1 29 30
M  V30 30 1 29 31
M  V30 31 1 29 32
M  V30 32 1 28 33
M  V30 33 2 33 34
M  V30 34 1 34 35
M  V30 35 1 35 36
M  V30 36 2 36 37
M  V30 37 1 37 38
M  V30 38 2 38 39
M  V30 39 1 39 40
M  V30 40 1 21 5
M  V30 41 1 40 25
M  V30 42 1 39 27
M  V30 43 1 38 34
M  V30 44 1 1 41
M  V30 45 1 1 42
M  V30 46 1 1 43
M  V30 47 1 3 44
M  V30 48 1 3 45
M  V30 49 1 3 46
M  V30 50 1 4 47
M  V30 51 1 6 48
M  V30 52 1 7 49
M  V30 53 1 13 50
M  V30 54 1 14 51
M  V30 55 1 14 52
M  V30 56 1 15 53
M  V30 57 1 15 54
M  V30 58 1 16 55
M  V30 59 1 16 56
M  V30 60 1 18 57
M  V30 61 1 18 58
M  V30 62 1 21 59
M  V30 63 1 24 60
M  V30 64 1 33 61
M  V30 65 1 35 62
M  V30 66 1 37 63
M  V30 END BOND
M  V30 END CTAB
M  END
>  <Dataset>  (556) 
ChEMBL_Kinases

>  <Ligand_Instance>  (556) 
nan

>  <PDB_ID>  (556) 
nan

>  <Standardized_SMILES>  (556) 
CC(C)(Nc1ccc(Cl)c(C(=O)NCCCS(N)(=O)=O)c1)C(=O)Nc1nc2c(C(F)(F)F)cc3[nH]ncc3c2s1

>  <Name>  (556) 
nan

>  <Pocket>  (556) 
nan

>  <ATP_Site>  (556) 
nan

>  <Peripheral>  (556) 
nan

>  <Num_H_Atoms_ProtBoundConf>  (556) 
nan

>  <Num_Resolved_Atoms>  (556) 
nan

>  <Num_Not_Resolved_Atoms>  (556) 
nan

$$$$
CHEMBL3716044
     RDKit          3D

  0  0  0  0  0  0  0  0  0  0999 V3000
M  V30 BEGIN CTAB
M  V30 COUNTS 40 43 0 0 0
M  V30 BEGIN ATOM
M  V30 1 O 2.801990 -2.606217 1.858214 0
M  V30 2 C 2.283478 -1.698220 1.099233 0
M  V30 3 N 1.282840 -1.970381 0.119391 0
M  V30 4 C 0.740165 -3.268116 -0.148938 0 CFG=1
M  V30 5 C -0.643343 -3.465182 0.468761 0
M  V30 6 C -1.588444 -2.374947 0.061476 0
M  V30 7 C -1.585215 -2.281899 -1.448229 0
M  V30 8 N -0.334792 -2.343280 -2.078006 0
M  V30 9 C 0.528788 -3.392454 -1.637091 0
M  V30 10 C 2.809123 -0.360905 1.325918 0
M  V30 11 C 4.193785 -0.265898 1.261296 0
M  V30 12 C 4.713359 1.002638 1.470548 0
M  V30 13 N 3.996032 2.106733 1.722428 0
M  V30 14 C 2.643011 2.006149 1.784860 0
M  V30 15 N 1.636767 2.880787 2.000559 0
M  V30 16 C 0.465063 2.178350 1.934705 0
M  V30 17 C -0.814266 2.756843 2.107297 0
M  V30 18 C -2.065942 2.102292 2.056291 0
M  V30 19 C -3.196764 2.821252 2.229802 0
M  V30 20 C -3.009598 4.255921 2.460772 0
M  V30 21 Br -4.665517 5.412043 2.724323 0
M  V30 22 S -1.134733 4.442837 2.406384 0
M  V30 23 N 0.736917 0.887394 1.678980 0
M  V30 24 C 2.073954 0.770483 1.586074 0
M  V30 25 H 0.966144 -1.101087 -0.402281 0
M  V30 26 H 1.339776 -4.087713 0.245781 0
M  V30 27 H -0.591145 -3.658201 1.551623 0
M  V30 28 H -1.036757 -4.413830 0.014472 0
M  V30 29 H -1.420837 -1.415731 0.565131 0
M  V30 30 H -2.613877 -2.753652 0.356318 0
M  V30 31 H -2.088088 -1.305433 -1.680058 0
M  V30 32 H -2.229351 -3.107033 -1.852006 0
M  V30 33 H 0.130610 -1.450185 -2.229339 0
M  V30 34 H 1.510957 -3.361419 -2.170665 0
M  V30 35 H -0.006041 -4.352017 -1.888680 0
M  V30 36 H 4.844875 -1.120763 1.068371 0
M  V30 37 H 5.800820 1.077343 1.408660 0
M  V30 38 H -2.081923 1.021831 1.884988 0
M  V30 39 H -4.178173 2.398630 2.203018 0
M  V30 40 H -0.010171 0.184591 1.585449 0
M  V30 END ATOM
M  V30 BEGIN BOND
M  V30 1 2 1 2
M  V30 2 1 2 3
M  V30 3 1 3 4
M  V30 4 1 4 5
M  V30 5 1 5 6
M  V30 6 1 6 7
M  V30 7 1 7 8
M  V30 8 1 8 9
M  V30 9 1 2 10
M  V30 10 2 10 11
M  V30 11 1 11 12
M  V30 12 2 12 13
M  V30 13 1 13 14
M  V30 14 1 14 15
M  V30 15 2 15 16
M  V30 16 1 16 17
M  V30 17 2 17 18
M  V30 18 1 18 19
M  V30 19 2 19 20
M  V30 20 1 20 21
M  V30 21 1 20 22
M  V30 22 1 16 23
M  V30 23 1 23 24
M  V30 24 1 9 4
M  V30 25 1 24 10
M  V30 26 2 24 14
M  V30 27 1 22 17
M  V30 28 1 3 25
M  V30 29 1 4 26 CFG=1
M  V30 30 1 5 27
M  V30 31 1 5 28
M  V30 32 1 6 29
M  V30 33 1 6 30
M  V30 34 1 7 31
M  V30 35 1 7 32
M  V30 36 1 8 33
M  V30 37 1 9 34
M  V30 38 1 9 35
M  V30 39 1 11 36
M  V30 40 1 12 37
M  V30 41 1 18 38
M  V30 42 1 19 39
M  V30 43 1 23 40
M  V30 END BOND
M  V30 END CTAB
M  END
>  <Dataset>  (557) 
ChEMBL_Kinases

>  <Ligand_Instance>  (557) 
nan

>  <PDB_ID>  (557) 
nan

>  <Standardized_SMILES>  (557) 
O=C(N[C@H]1CCCNC1)c1ccnc2nc(-c3ccc(Br)s3)[nH]c12

>  <Name>  (557) 
nan

>  <Pocket>  (557) 
nan

>  <ATP_Site>  (557) 
nan

>  <Peripheral>  (557) 
nan

>  <Num_H_Atoms_ProtBoundConf>  (557) 
nan

>  <Num_Resolved_Atoms>  (557) 
nan

>  <Num_Not_Resolved_Atoms>  (557) 
nan

$$$$
CHEMBL3716382
     RDKit          3D

  0  0  0  0  0  0  0  0  0  0999 V3000
M  V30 BEGIN CTAB
M  V30 COUNTS 39 41 0 0 0
M  V30 BEGIN ATOM
M  V30 1 C 1.187750 -4.591594 0.857748 0
M  V30 2 O 0.101312 -3.751784 1.193500 0
M  V30 3 C 0.053510 -2.410862 0.861723 0
M  V30 4 C 1.105827 -1.839692 0.169070 0
M  V30 5 C 1.041155 -0.490074 -0.156176 0
M  V30 6 C 2.102009 0.199653 -0.886450 0
M  V30 7 N 3.235797 -0.383946 -1.324940 0
M  V30 8 N 3.984994 0.531820 -1.953835 0
M  V30 9 C 3.307283 1.692526 -1.903150 0
M  V30 10 S 3.932576 3.182076 -2.615255 0
M  V30 11 C 2.801727 4.579845 -2.382560 0
M  V30 12 C 1.567176 4.318568 -3.155815 0
M  V30 13 O 1.277789 3.335163 -3.867171 0
M  V30 14 O 0.541405 5.241774 -3.142693 0
M  V30 15 N 2.129238 1.498788 -1.239031 0
M  V30 16 C -0.088975 0.196386 0.242426 0
M  V30 17 C -1.162093 -0.338009 0.935947 0
M  V30 18 C -1.062403 -1.683847 1.242181 0
M  V30 19 O -2.087489 -2.337514 1.942129 0
M  V30 20 C -2.139838 -2.400443 3.306299 0
M  V30 21 O -1.072564 -1.733576 3.216898 0
M  V30 22 C -2.248848 -2.501437 4.794315 0
M  V30 23 C -2.708154 -3.743987 5.442366 0
M  V30 24 C -3.566047 -2.484726 5.447174 0
M  V30 25 H 1.216925 -5.477733 1.530545 0
M  V30 26 H 1.178729 -4.936969 -0.191713 0
M  V30 27 H 2.139756 -4.042454 1.050675 0
M  V30 28 H 1.988427 -2.384984 -0.139804 0
M  V30 29 H 3.266685 5.498612 -2.791904 0
M  V30 30 H 2.603286 4.776055 -1.306505 0
M  V30 31 H -0.429485 5.045820 -3.352863 0
M  V30 32 H 1.400681 2.233955 -1.050797 0
M  V30 33 H -0.161352 1.258953 -0.001820 0
M  V30 34 H -2.014689 0.241953 1.220302 0
M  V30 35 H -1.399687 -1.982975 5.318314 0
M  V30 36 H -2.261620 -4.028963 6.437249 0
M  V30 37 H -3.065269 -4.598638 4.856952 0
M  V30 38 H -4.439299 -2.430343 4.764895 0
M  V30 39 H -3.669261 -1.898203 6.377888 0
M  V30 END ATOM
M  V30 BEGIN BOND
M  V30 1 1 1 2
M  V30 2 1 2 3
M  V30 3 2 3 4
M  V30 4 1 4 5
M  V30 5 1 5 6
M  V30 6 2 6 7
M  V30 7 1 7 8
M  V30 8 2 8 9
M  V30 9 1 9 10
M  V30 10 1 10 11
M  V30 11 1 11 12
M  V30 12 2 12 13
M  V30 13 1 12 14
M  V30 14 1 9 15
M  V30 15 2 5 16
M  V30 16 1 16 17
M  V30 17 2 17 18
M  V30 18 1 18 19
M  V30 19 1 19 20
M  V30 20 2 20 21
M  V30 21 1 20 22
M  V30 22 1 22 23
M  V30 23 1 23 24
M  V30 24 1 18 3
M  V30 25 1 24 22
M  V30 26 1 15 6
M  V30 27 1 1 25
M  V30 28 1 1 26
M  V30 29 1 1 27
M  V30 30 1 4 28
M  V30 31 1 11 29
M  V30 32 1 11 30
M  V30 33 1 14 31
M  V30 34 1 15 32
M  V30 35 1 16 33
M  V30 36 1 17 34
M  V30 37 1 22 35
M  V30 38 1 23 36
M  V30 39 1 23 37
M  V30 40 1 24 38
M  V30 41 1 24 39
M  V30 END BOND
M  V30 END CTAB
M  END
>  <Dataset>  (558) 
ChEMBL_Kinases

>  <Ligand_Instance>  (558) 
nan

>  <PDB_ID>  (558) 
nan

>  <Standardized_SMILES>  (558) 
COc1cc(-c2nnc(SCC(=O)O)[nH]2)ccc1OC(=O)C1CC1

>  <Name>  (558) 
nan

>  <Pocket>  (558) 
nan

>  <ATP_Site>  (558) 
nan

>  <Peripheral>  (558) 
nan

>  <Num_H_Atoms_ProtBoundConf>  (558) 
nan

>  <Num_Resolved_Atoms>  (558) 
nan

>  <Num_Not_Resolved_Atoms>  (558) 
nan

$$$$
CHEMBL568921
     RDKit          3D

  0  0  0  0  0  0  0  0  0  0999 V3000
M  V30 BEGIN CTAB
M  V30 COUNTS 67 70 0 0 0
M  V30 BEGIN ATOM
M  V30 1 C 2.327092 -2.749858 4.586765 0
M  V30 2 C 2.655713 -2.141113 3.269271 0
M  V30 3 C 2.689954 -2.984060 2.180925 0
M  V30 4 C 2.996144 -2.418545 0.951370 0
M  V30 5 C 3.245165 -1.061476 0.893635 0
M  V30 6 C 3.211217 -0.201911 1.998104 0
M  V30 7 C 3.512496 1.212480 1.700107 0
M  V30 8 N 2.359404 2.006885 1.361343 0
M  V30 9 C 1.788311 2.198798 0.046699 0
M  V30 10 C 0.755765 1.116067 -0.135180 0
M  V30 11 O 0.255420 0.124617 0.498319 0
M  V30 12 N 0.066494 1.129029 -1.394743 0
M  V30 13 C -0.891928 0.065964 -1.473064 0
M  V30 14 C -2.167975 0.350001 -1.032145 0
M  V30 15 C -3.147838 -0.619494 -1.072876 0
M  V30 16 C -2.814593 -1.864956 -1.561732 0
M  V30 17 C -1.539781 -2.152329 -2.003204 0
M  V30 18 C -0.534022 -1.179890 -1.968880 0
M  V30 19 C -1.515388 -3.566434 -2.460557 0
M  V30 20 C -2.947492 -3.861823 -2.728241 0
M  V30 21 C -3.682577 -3.063426 -1.704609 0
M  V30 22 C -3.406428 -3.457880 -4.075293 0
M  V30 23 O -3.197646 -2.486432 -4.875713 0
M  V30 24 N -4.316351 -4.436714 -4.568975 0
M  V30 25 C -4.251139 -5.598673 -3.716900 0
M  V30 26 O -4.751128 -6.738453 -3.589589 0
M  V30 27 N -3.272434 -5.265736 -2.708067 0
M  V30 28 C -2.575635 -6.070719 -1.704222 0
M  V30 29 C 1.710997 2.680091 2.418077 0
M  V30 30 O 2.250276 2.483765 3.522287 0
M  V30 31 C 0.797339 3.500899 3.209898 0
M  V30 32 C 1.180078 3.489023 4.677407 0
M  V30 33 C -0.603190 2.978754 3.082418 0
M  V30 34 C 0.899020 4.936252 2.731403 0
M  V30 35 C 2.905889 -0.788166 3.200459 0
M  V30 36 H 1.228066 -2.801805 4.653327 0
M  V30 37 H 2.776851 -3.765314 4.609196 0
M  V30 38 H 2.751108 -2.181204 5.431510 0
M  V30 39 H 2.498148 -4.039805 2.213372 0
M  V30 40 H 3.031868 -3.043038 0.081381 0
M  V30 41 H 3.478317 -0.692788 -0.107236 0
M  V30 42 H 4.246122 1.275443 0.864831 0
M  V30 43 H 4.037358 1.646435 2.594934 0
M  V30 44 H 2.621693 2.010849 -0.676070 0
M  V30 45 H 1.315737 3.171323 -0.081978 0
M  V30 46 H 0.203722 1.809871 -2.200924 0
M  V30 47 H -2.407044 1.337350 -0.651734 0
M  V30 48 H -4.158539 -0.413703 -0.729431 0
M  V30 49 H 0.479061 -1.387139 -2.313516 0
M  V30 50 H -0.891398 -3.706361 -3.357804 0
M  V30 51 H -1.178984 -4.177955 -1.597978 0
M  V30 52 H -4.679276 -2.791872 -2.138216 0
M  V30 53 H -3.811680 -3.564777 -0.720825 0
M  V30 54 H -5.010972 -4.560833 -5.358585 0
M  V30 55 H -2.987892 -7.102932 -1.658273 0
M  V30 56 H -1.493658 -6.167391 -1.929260 0
M  V30 57 H -2.657331 -5.623241 -0.693645 0
M  V30 58 H 2.207214 3.910538 4.805583 0
M  V30 59 H 0.481471 4.132389 5.227548 0
M  V30 60 H 1.110115 2.460406 5.064434 0
M  V30 61 H -1.060656 3.214256 2.092701 0
M  V30 62 H -1.209385 3.429855 3.913881 0
M  V30 63 H -0.582256 1.882756 3.287018 0
M  V30 64 H 0.547273 5.025678 1.692778 0
M  V30 65 H 1.976656 5.213877 2.824628 0
M  V30 66 H 0.273889 5.561841 3.375244 0
M  V30 67 H 2.883933 -0.127460 4.033389 0
M  V30 END ATOM
M  V30 BEGIN BOND
M  V30 1 1 1 2
M  V30 2 2 2 3
M  V30 3 1 3 4
M  V30 4 2 4 5
M  V30 5 1 5 6
M  V30 6 1 6 7
M  V30 7 1 7 8
M  V30 8 1 8 9
M  V30 9 1 9 10
M  V30 10 2 10 11
M  V30 11 1 10 12
M  V30 12 1 12 13
M  V30 13 2 13 14
M  V30 14 1 14 15
M  V30 15 2 15 16
M  V30 16 1 16 17
M  V30 17 2 17 18
M  V30 18 1 17 19
M  V30 19 1 19 20
M  V30 20 1 20 21
M  V30 21 1 20 22
M  V30 22 2 22 23
M  V30 23 1 22 24
M  V30 24 1 24 25
M  V30 25 2 25 26
M  V30 26 1 25 27
M  V30 27 1 27 28
M  V30 28 1 8 29
M  V30 29 2 29 30
M  V30 30 1 29 31
M  V30 31 1 31 32
M  V30 32 1 31 33
M  V30 33 1 31 34
M  V30 34 2 6 35
M  V30 35 1 35 2
M  V30 36 1 18 13
M  V30 37 1 27 20
M  V30 38 1 21 16
M  V30 39 1 1 36
M  V30 40 1 1 37
M  V30 41 1 1 38
M  V30 42 1 3 39
M  V30 43 1 4 40
M  V30 44 1 5 41
M  V30 45 1 7 42
M  V30 46 1 7 43
M  V30 47 1 9 44
M  V30 48 1 9 45
M  V30 49 1 12 46
M  V30 50 1 14 47
M  V30 51 1 15 48
M  V30 52 1 18 49
M  V30 53 1 19 50
M  V30 54 1 19 51
M  V30 55 1 21 52
M  V30 56 1 21 53
M  V30 57 1 24 54
M  V30 58 1 28 55
M  V30 59 1 28 56
M  V30 60 1 28 57
M  V30 61 1 32 58
M  V30 62 1 32 59
M  V30 63 1 32 60
M  V30 64 1 33 61
M  V30 65 1 33 62
M  V30 66 1 33 63
M  V30 67 1 34 64
M  V30 68 1 34 65
M  V30 69 1 34 66
M  V30 70 1 35 67
M  V30 END BOND
M  V30 END CTAB
M  END
>  <Dataset>  (559) 
ChEMBL_Kinases

>  <Ligand_Instance>  (559) 
nan

>  <PDB_ID>  (559) 
nan

>  <Standardized_SMILES>  (559) 
Cc1cccc(CN(CC(=O)Nc2ccc3c(c2)CC2(C3)C(=O)NC(=O)N2C)C(=O)C(C)(C)C)c1

>  <Name>  (559) 
nan

>  <Pocket>  (559) 
nan

>  <ATP_Site>  (559) 
nan

>  <Peripheral>  (559) 
nan

>  <Num_H_Atoms_ProtBoundConf>  (559) 
nan

>  <Num_Resolved_Atoms>  (559) 
nan

>  <Num_Not_Resolved_Atoms>  (559) 
nan

$$$$
CHEMBL3715259
     RDKit          3D

  0  0  0  0  0  0  0  0  0  0999 V3000
M  V30 BEGIN CTAB
M  V30 COUNTS 55 58 0 0 0
M  V30 BEGIN ATOM
M  V30 1 C 0.787680 -2.534545 0.762417 0
M  V30 2 C 1.649669 -2.017311 -0.373678 0
M  V30 3 C 3.042381 -2.628608 -0.155394 0
M  V30 4 C 1.790415 -0.542929 -0.287282 0
M  V30 5 C 1.060370 0.238990 -1.337378 0
M  V30 6 N -0.302310 0.534562 -0.934713 0
M  V30 7 C -1.201629 1.622705 -0.769978 0
M  V30 8 O -0.707066 2.760117 -1.080670 0
M  V30 9 C -2.545197 1.344925 -0.280765 0
M  V30 10 C -3.771745 1.329550 -0.947581 0
M  V30 11 C -4.915262 1.034360 -0.255495 0
M  V30 12 N -4.877812 0.755376 1.071623 0
M  V30 13 C -3.724224 0.753525 1.774774 0
M  V30 14 N -3.449230 0.514188 3.078523 0
M  V30 15 C -2.128346 0.656441 3.227072 0
M  V30 16 C -1.337855 0.529610 4.380153 0
M  V30 17 C 0.005793 0.696773 4.673326 0
M  V30 18 C 0.471725 0.477099 5.935173 0
M  V30 19 C -0.436671 0.068610 6.975273 0
M  V30 20 S -2.075597 0.008764 6.020589 0
M  V30 21 N -1.592027 0.976454 2.043979 0
M  V30 22 C -2.552815 1.051381 1.089915 0
M  V30 23 C 1.190442 -0.282306 -2.720176 0
M  V30 24 C 1.333412 -1.762513 -2.865339 0
M  V30 25 C 2.710772 -2.104295 -3.427206 0
M  V30 26 C 0.376211 -2.187845 -3.986590 0
M  V30 27 N 0.454224 -3.596189 -4.186617 0
M  V30 28 C 1.023180 -2.538635 -1.639324 0
M  V30 29 H 0.157633 -1.696618 1.115056 0
M  V30 30 H 0.179865 -3.412434 0.449607 0
M  V30 31 H 1.464641 -2.797891 1.599439 0
M  V30 32 H 3.037175 -3.712008 -0.279909 0
M  V30 33 H 3.827941 -2.067866 -0.659465 0
M  V30 34 H 3.233853 -2.465764 0.947496 0
M  V30 35 H 1.434751 -0.164522 0.701321 0
M  V30 36 H 2.873852 -0.232241 -0.306321 0
M  V30 37 H 1.541872 1.269533 -1.363902 0
M  V30 38 H -0.685640 -0.426198 -0.703323 0
M  V30 39 H -3.650206 1.566129 -1.984708 0
M  V30 40 H -5.816506 1.046891 -0.843506 0
M  V30 41 H 0.586432 1.006965 3.824419 0
M  V30 42 H 1.541131 0.625890 6.112382 0
M  V30 43 H 0.044036 -0.093669 8.011466 0
M  V30 44 H -0.555176 1.152456 1.857914 0
M  V30 45 H 0.341194 0.135082 -3.327612 0
M  V30 46 H 2.096948 0.203751 -3.195778 0
M  V30 47 H 2.872683 -3.190762 -3.375520 0
M  V30 48 H 2.725581 -1.867631 -4.532212 0
M  V30 49 H 3.495202 -1.479572 -2.995290 0
M  V30 50 H -0.642427 -1.800564 -3.806179 0
M  V30 51 H 0.757768 -1.684977 -4.901224 0
M  V30 52 H 0.099610 -4.180441 -3.415173 0
M  V30 53 H 0.118775 -3.874672 -5.133788 0
M  V30 54 H -0.066968 -2.600867 -1.485370 0
M  V30 55 H 1.402296 -3.583327 -1.757601 0
M  V30 END ATOM
M  V30 BEGIN BOND
M  V30 1 1 1 2
M  V30 2 1 2 3
M  V30 3 1 2 4
M  V30 4 1 4 5
M  V30 5 1 5 6
M  V30 6 1 6 7
M  V30 7 2 7 8
M  V30 8 1 7 9
M  V30 9 2 9 10
M  V30 10 1 10 11
M  V30 11 2 11 12
M  V30 12 1 12 13
M  V30 13 1 13 14
M  V30 14 2 14 15
M  V30 15 1 15 16
M  V30 16 2 16 17
M  V30 17 1 17 18
M  V30 18 2 18 19
M  V30 19 1 19 20
M  V30 20 1 15 21
M  V30 21 1 21 22
M  V30 22 1 5 23
M  V30 23 1 23 24
M  V30 24 1 24 25
M  V30 25 1 24 26
M  V30 26 1 26 27
M  V30 27 1 24 28
M  V30 28 1 28 2
M  V30 29 1 22 9
M  V30 30 2 22 13
M  V30 31 1 20 16
M  V30 32 1 1 29
M  V30 33 1 1 30
M  V30 34 1 1 31
M  V30 35 1 3 32
M  V30 36 1 3 33
M  V30 37 1 3 34
M  V30 38 1 4 35
M  V30 39 1 4 36
M  V30 40 1 5 37
M  V30 41 1 6 38
M  V30 42 1 10 39
M  V30 43 1 11 40
M  V30 44 1 17 41
M  V30 45 1 18 42
M  V30 46 1 19 43
M  V30 47 1 21 44
M  V30 48 1 23 45
M  V30 49 1 23 46
M  V30 50 1 25 47
M  V30 51 1 25 48
M  V30 52 1 25 49
M  V30 53 1 26 50
M  V30 54 1 26 51
M  V30 55 1 27 52
M  V30 56 1 27 53
M  V30 57 1 28 54
M  V30 58 1 28 55
M  V30 END BOND
M  V30 END CTAB
M  END
>  <Dataset>  (560) 
ChEMBL_Kinases

>  <Ligand_Instance>  (560) 
nan

>  <PDB_ID>  (560) 
nan

>  <Standardized_SMILES>  (560) 
CC1(C)CC(NC(=O)c2ccnc3nc(-c4cccs4)[nH]c23)CC(C)(CN)C1

>  <Name>  (560) 
nan

>  <Pocket>  (560) 
nan

>  <ATP_Site>  (560) 
nan

>  <Peripheral>  (560) 
nan

>  <Num_H_Atoms_ProtBoundConf>  (560) 
nan

>  <Num_Resolved_Atoms>  (560) 
nan

>  <Num_Not_Resolved_Atoms>  (560) 
nan

$$$$
CHEMBL3716367
     RDKit          3D

  0  0  0  0  0  0  0  0  0  0999 V3000
M  V30 BEGIN CTAB
M  V30 COUNTS 33 34 0 0 0
M  V30 BEGIN ATOM
M  V30 1 C -1.275766 -3.852254 2.841563 0
M  V30 2 O -1.136494 -2.571207 2.258950 0
M  V30 3 C -0.351038 -2.314063 1.144856 0
M  V30 4 C 0.381707 -3.272590 0.480262 0
M  V30 5 C 1.131586 -2.925037 -0.615168 0
M  V30 6 O 1.901273 -3.813231 -1.350599 0
M  V30 7 C 1.914356 -5.163110 -0.945802 0
M  V30 8 C 1.179809 -1.628628 -1.083896 0
M  V30 9 C 0.446146 -0.653446 -0.423335 0
M  V30 10 C 0.438971 0.754670 -0.857987 0
M  V30 11 N 1.139365 1.197133 -1.931026 0
M  V30 12 N 0.923788 2.517604 -2.064597 0
M  V30 13 C 0.093531 2.885745 -1.077037 0
M  V30 14 S -0.610922 4.460683 -0.642530 0
M  V30 15 C -1.669340 4.368727 0.802369 0
M  V30 16 C -0.944881 4.042225 2.045101 0
M  V30 17 O -1.571709 3.942453 3.154093 0
M  V30 18 O 0.149472 3.739930 2.831301 0
M  V30 19 N -0.220455 1.804816 -0.314872 0
M  V30 20 C -0.318258 -1.006077 0.692781 0
M  V30 21 H -0.360583 -4.198012 3.362626 0
M  V30 22 H -1.482333 -4.614835 2.055573 0
M  V30 23 H -2.087139 -3.792518 3.610336 0
M  V30 24 H 0.362756 -4.289649 0.821394 0
M  V30 25 H 2.077988 -5.155839 0.154927 0
M  V30 26 H 0.925122 -5.605675 -1.176972 0
M  V30 27 H 2.748358 -5.735574 -1.403166 0
M  V30 28 H 1.754459 -1.310333 -1.939265 0
M  V30 29 H -2.217584 5.306080 0.950746 0
M  V30 30 H -2.410993 3.548943 0.644629 0
M  V30 31 H 0.747416 2.913938 2.669641 0
M  V30 32 H -0.825381 1.679113 0.529893 0
M  V30 33 H -0.892250 -0.242053 1.210320 0
M  V30 END ATOM
M  V30 BEGIN BOND
M  V30 1 1 1 2
M  V30 2 1 2 3
M  V30 3 2 3 4
M  V30 4 1 4 5
M  V30 5 1 5 6
M  V30 6 1 6 7
M  V30 7 2 5 8
M  V30 8 1 8 9
M  V30 9 1 9 10
M  V30 10 2 10 11
M  V30 11 1 11 12
M  V30 12 2 12 13
M  V30 13 1 13 14
M  V30 14 1 14 15
M  V30 15 1 15 16
M  V30 16 2 16 17
M  V30 17 1 16 18
M  V30 18 1 13 19
M  V30 19 2 9 20
M  V30 20 1 20 3
M  V30 21 1 19 10
M  V30 22 1 1 21
M  V30 23 1 1 22
M  V30 24 1 1 23
M  V30 25 1 4 24
M  V30 26 1 7 25
M  V30 27 1 7 26
M  V30 28 1 7 27
M  V30 29 1 8 28
M  V30 30 1 15 29
M  V30 31 1 15 30
M  V30 32 1 18 31
M  V30 33 1 19 32
M  V30 34 1 20 33
M  V30 END BOND
M  V30 END CTAB
M  END
>  <Dataset>  (561) 
ChEMBL_Kinases

>  <Ligand_Instance>  (561) 
nan

>  <PDB_ID>  (561) 
nan

>  <Standardized_SMILES>  (561) 
COc1cc(OC)cc(-c2nnc(SCC(=O)O)[nH]2)c1

>  <Name>  (561) 
nan

>  <Pocket>  (561) 
nan

>  <ATP_Site>  (561) 
nan

>  <Peripheral>  (561) 
nan

>  <Num_H_Atoms_ProtBoundConf>  (561) 
nan

>  <Num_Resolved_Atoms>  (561) 
nan

>  <Num_Not_Resolved_Atoms>  (561) 
nan

$$$$
CHEMBL3716349
     RDKit          3D

  0  0  0  0  0  0  0  0  0  0999 V3000
M  V30 BEGIN CTAB
M  V30 COUNTS 31 33 0 0 0
M  V30 BEGIN ATOM
M  V30 1 O 2.634923 -3.502108 3.803508 0
M  V30 2 C 2.705408 -3.736236 2.548294 0
M  V30 3 O 1.362879 -3.992052 2.343900 0
M  V30 4 C 4.083562 -3.629786 1.958149 0
M  V30 5 S 4.424932 -1.893055 1.506446 0
M  V30 6 C 3.347971 -1.369240 0.181152 0
M  V30 7 N 3.477489 -1.388684 -1.168332 0
M  V30 8 N 2.373252 -0.868561 -1.712949 0
M  V30 9 C 1.536252 -0.515906 -0.718561 0
M  V30 10 C 0.221084 0.084160 -0.912895 0
M  V30 11 C -0.322962 0.390334 -2.141867 0
M  V30 12 C -1.576618 0.951684 -2.244402 0
M  V30 13 C -2.368696 1.245073 -1.150998 0
M  V30 14 C -1.801836 0.929137 0.067746 0
M  V30 15 N -2.530025 1.178919 1.268788 0
M  V30 16 C -2.880529 2.091780 2.192008 0
M  V30 17 N -3.667989 1.546534 3.134527 0
M  V30 18 C -3.813035 0.253716 2.788922 0
M  V30 19 N -3.116626 0.029800 1.647554 0
M  V30 20 C -0.549393 0.367681 0.192179 0
M  V30 21 N 2.137473 -0.824789 0.456593 0
M  V30 22 H 0.885052 -4.816041 2.666915 0
M  V30 23 H 4.807957 -3.978191 2.716441 0
M  V30 24 H 4.114550 -4.238299 1.023597 0
M  V30 25 H 0.305924 0.157092 -2.999426 0
M  V30 26 H -1.971701 1.179405 -3.236815 0
M  V30 27 H -3.346187 1.681119 -1.208768 0
M  V30 28 H -2.425858 3.060962 1.932536 0
M  V30 29 H -4.421876 -0.413258 3.410839 0
M  V30 30 H -0.166589 0.144953 1.186940 0
M  V30 31 H 1.695849 -0.650456 1.383442 0
M  V30 END ATOM
M  V30 BEGIN BOND
M  V30 1 2 1 2
M  V30 2 1 2 3
M  V30 3 1 2 4
M  V30 4 1 4 5
M  V30 5 1 5 6
M  V30 6 2 6 7
M  V30 7 1 7 8
M  V30 8 2 8 9
M  V30 9 1 9 10
M  V30 10 2 10 11
M  V30 11 1 11 12
M  V30 12 2 12 13
M  V30 13 1 13 14
M  V30 14 1 14 15
M  V30 15 1 15 16
M  V30 16 2 16 17
M  V30 17 1 17 18
M  V30 18 2 18 19
M  V30 19 2 14 20
M  V30 20 1 9 21
M  V30 21 1 21 6
M  V30 22 1 20 10
M  V30 23 1 19 15
M  V30 24 1 3 22
M  V30 25 1 4 23
M  V30 26 1 4 24
M  V30 27 1 11 25
M  V30 28 1 12 26
M  V30 29 1 13 27
M  V30 30 1 16 28
M  V30 31 1 18 29
M  V30 32 1 20 30
M  V30 33 1 21 31
M  V30 END BOND
M  V30 END CTAB
M  END
>  <Dataset>  (562) 
ChEMBL_Kinases

>  <Ligand_Instance>  (562) 
nan

>  <PDB_ID>  (562) 
nan

>  <Standardized_SMILES>  (562) 
O=C(O)CSc1nnc(-c2cccc(-n3cncn3)c2)[nH]1

>  <Name>  (562) 
nan

>  <Pocket>  (562) 
nan

>  <ATP_Site>  (562) 
nan

>  <Peripheral>  (562) 
nan

>  <Num_H_Atoms_ProtBoundConf>  (562) 
nan

>  <Num_Resolved_Atoms>  (562) 
nan

>  <Num_Not_Resolved_Atoms>  (562) 
nan

$$$$
CHEMBL3716347
     RDKit          3D

  0  0  0  0  0  0  0  0  0  0999 V3000
M  V30 BEGIN CTAB
M  V30 COUNTS 40 43 0 0 0
M  V30 BEGIN ATOM
M  V30 1 C 0.190642 -4.249557 0.518001 0
M  V30 2 C 0.786795 -3.332286 1.584138 0
M  V30 3 N 2.194549 -3.222708 1.545989 0
M  V30 4 C 3.028368 -2.714605 0.518044 0
M  V30 5 C 2.595060 -2.181908 -0.676948 0
M  V30 6 C 3.465572 -1.713437 -1.666189 0
M  V30 7 C 4.817375 -1.789409 -1.430916 0
M  V30 8 C 5.317872 -2.302363 -0.276133 0
M  V30 9 O 6.689859 -2.380071 -0.038726 0
M  V30 10 C 4.407164 -2.744669 0.653398 0
M  V30 11 C 0.010555 -2.086634 1.503366 0
M  V30 12 O -1.257833 -2.246213 1.525374 0
M  V30 13 N 0.451417 -0.775554 1.406995 0
M  V30 14 C -0.708587 0.141358 1.350053 0
M  V30 15 N -1.832874 0.193676 1.344814 0
M  V30 16 C -2.640707 1.242103 1.274947 0
M  V30 17 C -4.023600 1.284708 1.267739 0
M  V30 18 C -4.638160 2.514877 1.184888 0
M  V30 19 C -4.028499 3.752224 1.105810 0
M  V30 20 N -4.314205 5.058287 1.017363 0
M  V30 21 N -3.205652 5.755794 0.974822 0
M  V30 22 C -2.125788 4.982273 1.030621 0
M  V30 23 C -2.629886 3.695927 1.114164 0
M  V30 24 C -2.016642 2.451003 1.197703 0
M  V30 25 S -0.265758 1.984588 1.231201 0
M  V30 26 H -0.891113 -4.045267 0.431734 0
M  V30 27 H 0.754561 -4.288216 -0.408142 0
M  V30 28 H 0.262446 -5.293747 0.945853 0
M  V30 29 H 0.474457 -3.803204 2.549793 0
M  V30 30 H 2.722533 -3.567618 2.407472 0
M  V30 31 H 1.535200 -2.112956 -0.866842 0
M  V30 32 H 3.088690 -1.301467 -2.594210 0
M  V30 33 H 5.523655 -1.432427 -2.186168 0
M  V30 34 H 6.992967 -3.039265 0.693666 0
M  V30 35 H 4.862632 -3.150279 1.568777 0
M  V30 36 H 1.435783 -0.550951 1.383093 0
M  V30 37 H -4.688097 0.424458 1.320744 0
M  V30 38 H -5.742070 2.559075 1.177808 0
M  V30 39 H -5.333447 5.288269 0.998338 0
M  V30 40 H -1.061756 5.147746 1.023393 0
M  V30 END ATOM
M  V30 BEGIN BOND
M  V30 1 1 1 2
M  V30 2 1 2 3
M  V30 3 1 3 4
M  V30 4 2 4 5
M  V30 5 1 5 6
M  V30 6 2 6 7
M  V30 7 1 7 8
M  V30 8 1 8 9
M  V30 9 2 8 10
M  V30 10 1 2 11
M  V30 11 2 11 12
M  V30 12 1 11 13
M  V30 13 1 13 14
M  V30 14 2 14 15
M  V30 15 1 15 16
M  V30 16 2 16 17
M  V30 17 1 17 18
M  V30 18 2 18 19
M  V30 19 1 19 20
M  V30 20 1 20 21
M  V30 21 2 21 22
M  V30 22 1 22 23
M  V30 23 2 23 24
M  V30 24 1 24 25
M  V30 25 1 10 4
M  V30 26 1 25 14
M  V30 27 1 24 16
M  V30 28 1 23 19
M  V30 29 1 1 26
M  V30 30 1 1 27
M  V30 31 1 1 28
M  V30 32 1 2 29
M  V30 33 1 3 30
M  V30 34 1 5 31
M  V30 35 1 6 32
M  V30 36 1 7 33
M  V30 37 1 9 34
M  V30 38 1 10 35
M  V30 39 1 13 36
M  V30 40 1 17 37
M  V30 41 1 18 38
M  V30 42 1 20 39
M  V30 43 1 22 40
M  V30 END BOND
M  V30 END CTAB
M  END
>  <Dataset>  (563) 
ChEMBL_Kinases

>  <Ligand_Instance>  (563) 
nan

>  <PDB_ID>  (563) 
nan

>  <Standardized_SMILES>  (563) 
CC(Nc1cccc(O)c1)C(=O)Nc1nc2ccc3[nH]ncc3c2s1

>  <Name>  (563) 
nan

>  <Pocket>  (563) 
nan

>  <ATP_Site>  (563) 
nan

>  <Peripheral>  (563) 
nan

>  <Num_H_Atoms_ProtBoundConf>  (563) 
nan

>  <Num_Resolved_Atoms>  (563) 
nan

>  <Num_Not_Resolved_Atoms>  (563) 
nan

$$$$
CHEMBL568923
     RDKit          3D

  0  0  0  0  0  0  0  0  0  0999 V3000
M  V30 BEGIN CTAB
M  V30 COUNTS 67 72 0 0 0
M  V30 BEGIN ATOM
M  V30 1 C 3.891306 -1.131269 1.576438 0
M  V30 2 C 3.723142 0.208377 2.167668 0
M  V30 3 C 3.258513 1.211046 1.308970 0
M  V30 4 N 2.965614 0.927887 -0.078474 0
M  V30 5 C 2.508584 2.079146 -0.772403 0
M  V30 6 C 3.494254 2.887964 -1.277507 0
M  V30 7 C 4.885240 2.582729 -1.117668 0
M  V30 8 N 6.010570 2.352801 -0.979397 0
M  V30 9 C 3.180557 4.030737 -1.961228 0
M  V30 10 N 1.869286 4.295887 -2.098084 0
M  V30 11 C 0.909292 3.498604 -1.600675 0
M  V30 12 C 1.166917 2.338310 -0.905774 0
M  V30 13 C 0.106185 1.491466 -0.395821 0
M  V30 14 C 0.086108 0.292713 0.271545 0
M  V30 15 C -1.213669 -0.093472 0.533093 0
M  V30 16 C -1.848712 -1.155161 1.146430 0
M  V30 17 C -3.243664 -1.228507 1.237294 0
M  V30 18 C -3.879838 -2.370176 1.895805 0
M  V30 19 N -4.196804 -3.486095 1.096009 0
M  V30 20 C -5.076205 -3.336841 0.012194 0
M  V30 21 C -4.495529 -3.601763 -1.338075 0
M  V30 22 N -3.600760 -4.713791 -1.408437 0
M  V30 23 S -2.883701 -4.819987 -2.949331 0
M  V30 24 C -1.913146 -3.392534 -3.354147 0
M  V30 25 O -2.078795 -6.065346 -3.136286 0
M  V30 26 O -4.010645 -4.869544 -3.962895 0
M  V30 27 C -2.652159 -4.800885 -0.325486 0
M  V30 28 C -3.240221 -4.529690 1.011214 0
M  V30 29 C -3.922833 -0.167232 0.671397 0
M  V30 30 C -3.340079 0.917109 0.047342 0
M  V30 31 C -1.959461 0.933347 -0.011261 0
M  V30 32 O -1.157463 1.810690 -0.528086 0
M  V30 33 C 3.103923 2.461020 1.869921 0
M  V30 34 C 3.386112 2.720908 3.194210 0
M  V30 35 C 3.841940 1.707266 4.008855 0
M  V30 36 N 4.198184 1.625343 5.302027 0
M  V30 37 C 4.577257 0.384324 5.611711 0
M  V30 38 C 4.469814 -0.404467 4.470000 0
M  V30 39 C 4.005897 0.461968 3.488154 0
M  V30 40 H 4.591716 -1.172293 0.723011 0
M  V30 41 H 4.297108 -1.803544 2.357860 0
M  V30 42 H 2.884139 -1.547801 1.313819 0
M  V30 43 H 3.119205 -0.045756 -0.397133 0
M  V30 44 H 3.861183 4.744058 -2.403440 0
M  V30 45 H -0.132233 3.811652 -1.771219 0
M  V30 46 H 0.942690 -0.265379 0.547332 0
M  V30 47 H -1.231397 -1.918644 1.549003 0
M  V30 48 H -3.196186 -2.698966 2.706852 0
M  V30 49 H -4.810095 -2.044181 2.447618 0
M  V30 50 H -5.896578 -4.103608 0.141132 0
M  V30 51 H -5.588745 -2.378133 0.004755 0
M  V30 52 H -4.004383 -2.722150 -1.794320 0
M  V30 53 H -5.349078 -3.843030 -2.030198 0
M  V30 54 H -2.303077 -2.824523 -4.224333 0
M  V30 55 H -1.845217 -2.692413 -2.501833 0
M  V30 56 H -0.864374 -3.674238 -3.615562 0
M  V30 57 H -1.813153 -4.113558 -0.506193 0
M  V30 58 H -2.228335 -5.823698 -0.333717 0
M  V30 59 H -3.760582 -5.479011 1.333694 0
M  V30 60 H -2.441322 -4.387254 1.749418 0
M  V30 61 H -5.003150 -0.161698 0.707488 0
M  V30 62 H -3.954168 1.709444 -0.371461 0
M  V30 63 H 2.748612 3.276441 1.258564 0
M  V30 64 H 3.255683 3.714239 3.611138 0
M  V30 65 H 4.186740 2.406247 5.979711 0
M  V30 66 H 4.928789 -0.068717 6.543352 0
M  V30 67 H 4.691958 -1.446586 4.360199 0
M  V30 END ATOM
M  V30 BEGIN BOND
M  V30 1 1 1 2
M  V30 2 2 2 3
M  V30 3 1 3 4
M  V30 4 1 4 5
M  V30 5 2 5 6
M  V30 6 1 6 7
M  V30 7 3 7 8
M  V30 8 1 6 9
M  V30 9 2 9 10
M  V30 10 1 10 11
M  V30 11 2 11 12
M  V30 12 1 12 13
M  V30 13 2 13 14
M  V30 14 1 14 15
M  V30 15 2 15 16
M  V30 16 1 16 17
M  V30 17 1 17 18
M  V30 18 1 18 19
M  V30 19 1 19 20
M  V30 20 1 20 21
M  V30 21 1 21 22
M  V30 22 1 22 23
M  V30 23 1 23 24
M  V30 24 2 23 25
M  V30 25 2 23 26
M  V30 26 1 22 27
M  V30 27 1 27 28
M  V30 28 2 17 29
M  V30 29 1 29 30
M  V30 30 2 30 31
M  V30 31 1 31 32
M  V30 32 1 3 33
M  V30 33 2 33 34
M  V30 34 1 34 35
M  V30 35 1 35 36
M  V30 36 1 36 37
M  V30 37 2 37 38
M  V30 38 1 38 39
M  V30 39 1 39 2
M  V30 40 1 12 5
M  V30 41 1 32 13
M  V30 42 2 39 35
M  V30 43 1 31 15
M  V30 44 1 28 19
M  V30 45 1 1 40
M  V30 46 1 1 41
M  V30 47 1 1 42
M  V30 48 1 4 43
M  V30 49 1 9 44
M  V30 50 1 11 45
M  V30 51 1 14 46
M  V30 52 1 16 47
M  V30 53 1 18 48
M  V30 54 1 18 49
M  V30 55 1 20 50
M  V30 56 1 20 51
M  V30 57 1 21 52
M  V30 58 1 21 53
M  V30 59 1 24 54
M  V30 60 1 24 55
M  V30 61 1 24 56
M  V30 62 1 27 57
M  V30 63 1 27 58
M  V30 64 1 28 59
M  V30 65 1 28 60
M  V30 66 1 29 61
M  V30 67 1 30 62
M  V30 68 1 33 63
M  V30 69 1 34 64
M  V30 70 1 36 65
M  V30 71 1 37 66
M  V30 72 1 38 67
M  V30 END BOND
M  V30 END CTAB
M  END
>  <Dataset>  (564) 
ChEMBL_Kinases

>  <Ligand_Instance>  (564) 
nan

>  <PDB_ID>  (564) 
nan

>  <Standardized_SMILES>  (564) 
Cc1c(Nc2c(C#N)cncc2-c2cc3cc(CN4CCN(S(C)(=O)=O)CC4)ccc3o2)ccc2[nH]ccc12

>  <Name>  (564) 
nan

>  <Pocket>  (564) 
nan

>  <ATP_Site>  (564) 
nan

>  <Peripheral>  (564) 
nan

>  <Num_H_Atoms_ProtBoundConf>  (564) 
nan

>  <Num_Resolved_Atoms>  (564) 
nan

>  <Num_Not_Resolved_Atoms>  (564) 
nan

$$$$
CHEMBL3715283
     RDKit          3D

  0  0  0  0  0  0  0  0  0  0999 V3000
M  V30 BEGIN CTAB
M  V30 COUNTS 29 31 0 0 0
M  V30 BEGIN ATOM
M  V30 1 C -1.588394 -0.710044 3.863053 0
M  V30 2 N -1.148685 -0.378847 2.504545 0
M  V30 3 C -0.026866 -1.030082 1.965179 0
M  V30 4 N 0.593323 -1.937262 2.737178 0
M  V30 5 C 1.672138 -2.631064 2.350574 0
M  V30 6 C 2.319927 -3.624734 3.247235 0
M  V30 7 N 2.176574 -2.420947 1.124299 0
M  V30 8 C 1.634103 -1.536773 0.271693 0
M  V30 9 N 1.932952 -1.147920 -0.971782 0
M  V30 10 C 1.047709 -0.222231 -1.351497 0
M  V30 11 C 0.922222 0.483169 -2.528205 0
M  V30 12 C -0.091665 1.403542 -2.689553 0
M  V30 13 C -0.982750 1.596794 -1.627381 0
M  V30 14 O -1.980839 2.548476 -1.875483 0
M  V30 15 C -0.834469 0.877948 -0.461214 0
M  V30 16 C 0.172789 -0.034959 -0.303756 0
M  V30 17 C 0.537384 -0.862423 0.725292 0
M  V30 18 H -2.589443 -1.147915 3.907889 0
M  V30 19 H -0.876364 -1.469631 4.310368 0
M  V30 20 H -1.519730 0.148032 4.561659 0
M  V30 21 H -1.864504 0.310413 2.313274 0
M  V30 22 H 3.342099 -3.335130 3.549945 0
M  V30 23 H 2.429346 -4.614769 2.731311 0
M  V30 24 H 1.697522 -3.753680 4.153176 0
M  V30 25 H 2.729009 -1.501568 -1.566676 0
M  V30 26 H 1.609320 0.334262 -3.347434 0
M  V30 27 H -0.174628 1.941857 -3.608244 0
M  V30 28 H -1.821981 3.517420 -1.578191 0
M  V30 29 H -1.593207 1.145666 0.241441 0
M  V30 END ATOM
M  V30 BEGIN BOND
M  V30 1 1 1 2
M  V30 2 1 2 3
M  V30 3 2 3 4
M  V30 4 1 4 5
M  V30 5 1 5 6
M  V30 6 2 5 7
M  V30 7 1 7 8
M  V30 8 1 8 9
M  V30 9 1 9 10
M  V30 10 2 10 11
M  V30 11 1 11 12
M  V30 12 2 12 13
M  V30 13 1 13 14
M  V30 14 1 13 15
M  V30 15 2 15 16
M  V30 16 1 16 17
M  V30 17 1 17 3
M  V30 18 2 17 8
M  V30 19 1 16 10
M  V30 20 1 1 18
M  V30 21 1 1 19
M  V30 22 1 1 20
M  V30 23 1 2 21
M  V30 24 1 6 22
M  V30 25 1 6 23
M  V30 26 1 6 24
M  V30 27 1 9 25
M  V30 28 1 11 26
M  V30 29 1 12 27
M  V30 30 1 14 28
M  V30 31 1 15 29
M  V30 END BOND
M  V30 END CTAB
M  END
>  <Dataset>  (565) 
ChEMBL_Kinases

>  <Ligand_Instance>  (565) 
nan

>  <PDB_ID>  (565) 
nan

>  <Standardized_SMILES>  (565) 
CNc1nc(C)nc2[nH]c3ccc(O)cc3c12

>  <Name>  (565) 
nan

>  <Pocket>  (565) 
nan

>  <ATP_Site>  (565) 
nan

>  <Peripheral>  (565) 
nan

>  <Num_H_Atoms_ProtBoundConf>  (565) 
nan

>  <Num_Resolved_Atoms>  (565) 
nan

>  <Num_Not_Resolved_Atoms>  (565) 
nan

$$$$
CHEMBL568973
     RDKit          3D

  0  0  0  0  0  0  0  0  0  0999 V3000
M  V30 BEGIN CTAB
M  V30 COUNTS 41 44 0 0 0
M  V30 BEGIN ATOM
M  V30 1 N 1.730035 -5.737304 1.239014 0
M  V30 2 C 2.144293 -4.662854 1.390856 0
M  V30 3 C 2.644077 -3.328886 1.565704 0
M  V30 4 C 3.720095 -3.093424 2.395037 0
M  V30 5 N 4.175293 -1.836996 2.547174 0
M  V30 6 C 3.582976 -0.821445 1.893947 0
M  V30 7 C 2.507275 -0.968475 1.049678 0
M  V30 8 C 1.857131 0.121457 0.336929 0
M  V30 9 C 2.208297 1.390119 0.402870 0
M  V30 10 C 1.557165 2.480651 -0.310784 0
M  V30 11 C 0.480393 2.333992 -1.155999 0
M  V30 12 C -0.139858 3.345004 -1.831035 0
M  V30 13 C 0.325704 4.632134 -1.675790 0
M  V30 14 C 1.403541 4.834714 -0.839321 0
M  V30 15 C 1.997350 3.779149 -0.178002 0
M  V30 16 C 2.067632 -2.265935 0.917164 0
M  V30 17 O 0.986049 -2.541832 0.090278 0
M  V30 18 C -0.331452 -2.551550 0.480326 0
M  V30 19 C -1.341874 -2.840705 -0.426803 0
M  V30 20 C -2.624727 -2.825422 0.058974 0
M  V30 21 C -2.891753 -2.534521 1.392141 0
M  V30 22 N -4.065914 -2.472761 2.041330 0
M  V30 23 C -3.798084 -2.150257 3.334571 0
M  V30 24 C -2.431287 -1.999477 3.532383 0
M  V30 25 C -1.874701 -2.247424 2.288282 0
M  V30 26 C -0.574203 -2.256763 1.822176 0
M  V30 27 H 4.218596 -3.875908 2.932390 0
M  V30 28 H 3.995149 0.163905 2.057866 0
M  V30 29 H 1.018374 -0.121137 -0.299395 0
M  V30 30 H 3.046385 1.634828 1.038289 0
M  V30 31 H 0.070168 1.350266 -1.318628 0
M  V30 32 H -0.972479 3.196611 -2.478594 0
M  V30 33 H -0.104620 5.491593 -2.171265 0
M  V30 34 H 1.821642 5.838173 -0.673709 0
M  V30 35 H 2.846661 3.992323 0.471916 0
M  V30 36 H -1.022813 -3.051746 -1.435044 0
M  V30 37 H -3.408929 -3.051394 -0.651701 0
M  V30 38 H -5.007341 -2.642146 1.624486 0
M  V30 39 H -4.551183 -2.023007 4.126207 0
M  V30 40 H -1.923905 -1.745456 4.453853 0
M  V30 41 H 0.213678 -2.034143 2.517314 0
M  V30 END ATOM
M  V30 BEGIN BOND
M  V30 1 3 1 2
M  V30 2 1 2 3
M  V30 3 2 3 4
M  V30 4 1 4 5
M  V30 5 2 5 6
M  V30 6 1 6 7
M  V30 7 1 7 8
M  V30 8 2 8 9
M  V30 9 1 9 10
M  V30 10 2 10 11
M  V30 11 1 11 12
M  V30 12 2 12 13
M  V30 13 1 13 14
M  V30 14 2 14 15
M  V30 15 2 7 16
M  V30 16 1 16 17
M  V30 17 1 17 18
M  V30 18 2 18 19
M  V30 19 1 19 20
M  V30 20 2 20 21
M  V30 21 1 21 22
M  V30 22 1 22 23
M  V30 23 2 23 24
M  V30 24 1 24 25
M  V30 25 2 25 26
M  V30 26 1 16 3
M  V30 27 1 26 18
M  V30 28 1 15 10
M  V30 29 1 25 21
M  V30 30 1 4 27
M  V30 31 1 6 28
M  V30 32 1 8 29
M  V30 33 1 9 30
M  V30 34 1 11 31
M  V30 35 1 12 32
M  V30 36 1 13 33
M  V30 37 1 14 34
M  V30 38 1 15 35
M  V30 39 1 19 36
M  V30 40 1 20 37
M  V30 41 1 22 38
M  V30 42 1 23 39
M  V30 43 1 24 40
M  V30 44 1 26 41
M  V30 END BOND
M  V30 END CTAB
M  END
>  <Dataset>  (566) 
ChEMBL_Kinases

>  <Ligand_Instance>  (566) 
nan

>  <PDB_ID>  (566) 
nan

>  <Standardized_SMILES>  (566) 
N#Cc1cncc(/C=C/c2ccccc2)c1Oc1ccc2[nH]ccc2c1

>  <Name>  (566) 
nan

>  <Pocket>  (566) 
nan

>  <ATP_Site>  (566) 
nan

>  <Peripheral>  (566) 
nan

>  <Num_H_Atoms_ProtBoundConf>  (566) 
nan

>  <Num_Resolved_Atoms>  (566) 
nan

>  <Num_Not_Resolved_Atoms>  (566) 
nan

$$$$
CHEMBL3716342
     RDKit          3D

  0  0  0  0  0  0  0  0  0  0999 V3000
M  V30 BEGIN CTAB
M  V30 COUNTS 53 56 0 0 0
M  V30 BEGIN ATOM
M  V30 1 O 0.239811 -2.054043 5.263836 0
M  V30 2 C 0.294834 -2.327683 4.016145 0
M  V30 3 O -0.904761 -2.535343 3.312496 0
M  V30 4 C 1.608833 -2.417303 3.338117 0
M  V30 5 C 2.345703 -1.115921 3.597985 0
M  V30 6 C 3.717154 -1.107202 2.948604 0
M  V30 7 C 3.639230 -1.293611 1.443813 0
M  V30 8 C 2.860087 -0.221454 0.770224 0
M  V30 9 N 2.766964 -0.426526 -0.667390 0
M  V30 10 C 2.307538 0.793348 -1.276163 0
M  V30 11 C 0.917703 0.812761 -1.788442 0
M  V30 12 N 0.079191 -0.047190 -0.923516 0
M  V30 13 C -0.808362 0.651654 -0.053906 0
M  V30 14 N -0.148601 1.558541 0.680152 0
M  V30 15 C -0.761964 2.322146 1.604013 0
M  V30 16 N -2.076068 2.175889 1.802518 0
M  V30 17 C -2.799557 1.289979 1.103818 0
M  V30 18 N -4.086763 0.918110 1.059555 0
M  V30 19 C -4.264562 -0.042987 0.137211 0
M  V30 20 C -5.371808 -0.742731 -0.285575 0
M  V30 21 C -5.263213 -1.699502 -1.284337 0
M  V30 22 C -4.012653 -1.948441 -1.859237 0
M  V30 23 O -4.086722 -2.928233 -2.834792 0
M  V30 24 C -2.914742 -1.242684 -1.425008 0
M  V30 25 C -3.034570 -0.300604 -0.437919 0
M  V30 26 C -2.138427 0.529515 0.170038 0
M  V30 27 C 0.523737 -1.379895 -1.286534 0
M  V30 28 C 1.939741 -1.550510 -0.896675 0
M  V30 29 H -1.734079 -2.890253 3.789818 0
M  V30 30 H 2.184287 -3.234093 3.870700 0
M  V30 31 H 1.443603 -2.653760 2.289007 0
M  V30 32 H 1.734941 -0.244546 3.324298 0
M  V30 33 H 2.527949 -1.061344 4.688260 0
M  V30 34 H 4.302121 -1.931611 3.394795 0
M  V30 35 H 4.180124 -0.141973 3.185651 0
M  V30 36 H 3.406445 -2.314557 1.171932 0
M  V30 37 H 4.714019 -1.145490 1.096780 0
M  V30 38 H 3.183384 0.796615 1.024763 0
M  V30 39 H 1.801824 -0.313673 1.169113 0
M  V30 40 H 3.000684 0.999039 -2.139276 0
M  V30 41 H 2.533585 1.656884 -0.574938 0
M  V30 42 H 0.536144 1.856715 -1.705883 0
M  V30 43 H 0.844448 0.546937 -2.844385 0
M  V30 44 H -0.265089 3.061551 2.216664 0
M  V30 45 H -4.789911 1.370935 1.698029 0
M  V30 46 H -6.319493 -0.504750 0.198050 0
M  V30 47 H -6.183780 -2.191963 -1.546157 0
M  V30 48 H -4.605082 -2.772138 -3.663045 0
M  V30 49 H -2.079464 -1.547584 -1.967081 0
M  V30 50 H -0.091412 -2.154951 -0.752171 0
M  V30 51 H 0.333968 -1.513974 -2.390927 0
M  V30 52 H 2.417552 -2.158601 -1.719726 0
M  V30 53 H 1.941544 -2.197477 0.024303 0
M  V30 END ATOM
M  V30 BEGIN BOND
M  V30 1 2 1 2
M  V30 2 1 2 3
M  V30 3 1 2 4
M  V30 4 1 4 5
M  V30 5 1 5 6
M  V30 6 1 6 7
M  V30 7 1 7 8
M  V30 8 1 8 9
M  V30 9 1 9 10
M  V30 10 1 10 11
M  V30 11 1 11 12
M  V30 12 1 12 13
M  V30 13 2 13 14
M  V30 14 1 14 15
M  V30 15 2 15 16
M  V30 16 1 16 17
M  V30 17 1 17 18
M  V30 18 1 18 19
M  V30 19 2 19 20
M  V30 20 1 20 21
M  V30 21 2 21 22
M  V30 22 1 22 23
M  V30 23 1 22 24
M  V30 24 2 24 25
M  V30 25 1 25 26
M  V30 26 1 12 27
M  V30 27 1 27 28
M  V30 28 1 28 9
M  V30 29 1 26 13
M  V30 30 2 26 17
M  V30 31 1 25 19
M  V30 32 1 3 29
M  V30 33 1 4 30
M  V30 34 1 4 31
M  V30 35 1 5 32
M  V30 36 1 5 33
M  V30 37 1 6 34
M  V30 38 1 6 35
M  V30 39 1 7 36
M  V30 40 1 7 37
M  V30 41 1 8 38
M  V30 42 1 8 39
M  V30 43 1 10 40
M  V30 44 1 10 41
M  V30 45 1 11 42
M  V30 46 1 11 43
M  V30 47 1 15 44
M  V30 48 1 18 45
M  V30 49 1 20 46
M  V30 50 1 21 47
M  V30 51 1 23 48
M  V30 52 1 24 49
M  V30 53 1 27 50
M  V30 54 1 27 51
M  V30 55 1 28 52
M  V30 56 1 28 53
M  V30 END BOND
M  V30 END CTAB
M  END
>  <Dataset>  (567) 
ChEMBL_Kinases

>  <Ligand_Instance>  (567) 
nan

>  <PDB_ID>  (567) 
nan

>  <Standardized_SMILES>  (567) 
O=C(O)CCCCCN1CCN(c2ncnc3[nH]c4ccc(O)cc4c23)CC1

>  <Name>  (567) 
nan

>  <Pocket>  (567) 
nan

>  <ATP_Site>  (567) 
nan

>  <Peripheral>  (567) 
nan

>  <Num_H_Atoms_ProtBoundConf>  (567) 
nan

>  <Num_Resolved_Atoms>  (567) 
nan

>  <Num_Not_Resolved_Atoms>  (567) 
nan

$$$$
CHEMBL3716223
     RDKit          3D

  0  0  0  0  0  0  0  0  0  0999 V3000
M  V30 BEGIN CTAB
M  V30 COUNTS 45 48 0 0 0
M  V30 BEGIN ATOM
M  V30 1 O 1.259047 -2.866401 3.075643 0
M  V30 2 C 1.137341 -1.644246 2.819184 0
M  V30 3 N 1.599824 -1.393895 1.483596 0
M  V30 4 C 2.090385 -2.561211 0.735419 0
M  V30 5 C 2.513174 -2.049129 -0.631864 0
M  V30 6 C 1.286766 -1.425743 -1.279788 0
M  V30 7 C 1.354870 -1.546615 -2.791754 0
M  V30 8 C 2.791935 -1.456331 -3.273781 0
M  V30 9 C 3.629639 -2.538339 -2.634538 0
M  V30 10 N 3.017858 -3.123939 -1.461657 0
M  V30 11 C 0.665242 -0.404575 3.476061 0
M  V30 12 C 1.322927 0.301373 4.430926 0
M  V30 13 C 0.753592 1.444768 4.938371 0
M  V30 14 C -0.493769 1.874981 4.474320 0
M  V30 15 O -1.048130 3.031285 5.003148 0
M  V30 16 C -1.138192 1.127692 3.495922 0
M  V30 17 N -2.345330 1.413336 2.948105 0
M  V30 18 C -2.523291 0.413329 2.077285 0
M  V30 19 C -3.687155 0.234274 1.174761 0
M  V30 20 C -3.481490 1.024629 -0.140856 0
M  V30 21 C -4.633367 1.286031 0.830183 0
M  V30 22 N -1.459219 -0.436655 2.106836 0
M  V30 23 C -0.564212 -0.001322 3.002253 0
M  V30 24 H 1.597115 -0.432690 1.043467 0
M  V30 25 H 1.350778 -3.353542 0.681332 0
M  V30 26 H 2.995653 -2.989114 1.257076 0
M  V30 27 H 3.317736 -1.320621 -0.500074 0
M  V30 28 H 1.268505 -0.331499 -1.021707 0
M  V30 29 H 0.357682 -1.927870 -0.960056 0
M  V30 30 H 0.767138 -0.691624 -3.180605 0
M  V30 31 H 0.853624 -2.474880 -3.089378 0
M  V30 32 H 2.804158 -1.477305 -4.368439 0
M  V30 33 H 3.161632 -0.441970 -2.962362 0
M  V30 34 H 4.603568 -2.076589 -2.305833 0
M  V30 35 H 3.859929 -3.335277 -3.382092 0
M  V30 36 H 2.334267 -3.857742 -1.648878 0
M  V30 37 H 2.272590 -0.078488 4.740260 0
M  V30 38 H 1.285323 2.005336 5.703056 0
M  V30 39 H -0.470748 3.849414 5.203813 0
M  V30 40 H -2.983188 2.191565 3.133103 0
M  V30 41 H -3.936764 -0.845919 0.993499 0
M  V30 42 H -3.670625 0.447756 -1.066319 0
M  V30 43 H -2.709097 1.821445 -0.158039 0
M  V30 44 H -4.657844 2.292091 1.295869 0
M  V30 45 H -5.621046 0.951223 0.454678 0
M  V30 END ATOM
M  V30 BEGIN BOND
M  V30 1 2 1 2
M  V30 2 1 2 3
M  V30 3 1 3 4
M  V30 4 1 4 5
M  V30 5 1 5 6
M  V30 6 1 6 7
M  V30 7 1 7 8
M  V30 8 1 8 9
M  V30 9 1 9 10
M  V30 10 1 2 11
M  V30 11 2 11 12
M  V30 12 1 12 13
M  V30 13 2 13 14
M  V30 14 1 14 15
M  V30 15 1 14 16
M  V30 16 1 16 17
M  V30 17 1 17 18
M  V30 18 1 18 19
M  V30 19 1 19 20
M  V30 20 1 20 21
M  V30 21 2 18 22
M  V30 22 1 22 23
M  V30 23 1 10 5
M  V30 24 1 23 11
M  V30 25 2 23 16
M  V30 26 1 21 19
M  V30 27 1 3 24
M  V30 28 1 4 25
M  V30 29 1 4 26
M  V30 30 1 5 27
M  V30 31 1 6 28
M  V30 32 1 6 29
M  V30 33 1 7 30
M  V30 34 1 7 31
M  V30 35 1 8 32
M  V30 36 1 8 33
M  V30 37 1 9 34
M  V30 38 1 9 35
M  V30 39 1 10 36
M  V30 40 1 12 37
M  V30 41 1 13 38
M  V30 42 1 15 39
M  V30 43 1 17 40
M  V30 44 1 19 41
M  V30 45 1 20 42
M  V30 46 1 20 43
M  V30 47 1 21 44
M  V30 48 1 21 45
M  V30 END BOND
M  V30 END CTAB
M  END
>  <Dataset>  (568) 
ChEMBL_Kinases

>  <Ligand_Instance>  (568) 
nan

>  <PDB_ID>  (568) 
nan

>  <Standardized_SMILES>  (568) 
O=C(NCC1CCCCN1)c1ccc(O)c2[nH]c(C3CC3)nc12

>  <Name>  (568) 
nan

>  <Pocket>  (568) 
nan

>  <ATP_Site>  (568) 
nan

>  <Peripheral>  (568) 
nan

>  <Num_H_Atoms_ProtBoundConf>  (568) 
nan

>  <Num_Resolved_Atoms>  (568) 
nan

>  <Num_Not_Resolved_Atoms>  (568) 
nan

$$$$
CHEMBL568974
     RDKit          3D

  0  0  0  0  0  0  0  0  0  0999 V3000
M  V30 BEGIN CTAB
M  V30 COUNTS 45 48 0 0 0
M  V30 BEGIN ATOM
M  V30 1 C -1.161129 -1.869676 0.250906 0
M  V30 2 C 0.191154 -2.246861 0.664294 0
M  V30 3 C 1.252180 -1.390564 0.617149 0
M  V30 4 N 1.265314 -0.043129 0.190674 0
M  V30 5 C 1.012010 0.705319 -0.966892 0
M  V30 6 C 0.789138 0.197847 -2.213320 0
M  V30 7 C 0.723749 -1.215531 -2.395931 0
M  V30 8 N 0.690024 -2.358686 -2.549920 0
M  V30 9 C 0.647667 0.976286 -3.332262 0
M  V30 10 N 0.739500 2.301208 -3.163103 0
M  V30 11 C 0.958816 2.809142 -1.940580 0
M  V30 12 C 1.110600 2.062198 -0.746781 0
M  V30 13 C 1.172661 3.000444 0.322136 0
M  V30 14 C 0.704692 3.237072 1.509693 0
M  V30 15 C -0.250689 2.323309 2.098556 0
M  V30 16 C -0.343328 2.313677 3.455011 0
M  V30 17 C -1.281549 1.569823 4.093203 0
M  V30 18 C -2.199478 0.782199 3.477103 0
M  V30 19 C -2.131138 0.772779 2.109113 0
M  V30 20 C -1.178705 1.527391 1.466586 0
M  V30 21 C 2.439909 -1.975282 1.053422 0
M  V30 22 C 2.647952 -3.283143 1.511510 0
M  V30 23 C 1.496031 -4.038774 1.507572 0
M  V30 24 N 1.369552 -5.325355 1.888175 0
M  V30 25 C 0.090011 -5.715745 1.741547 0
M  V30 26 C -0.583538 -4.618465 1.251908 0
M  V30 27 C 0.285201 -3.548865 1.096734 0
M  V30 28 H -1.879041 -1.929922 1.099463 0
M  V30 29 H -1.200972 -0.835626 -0.135747 0
M  V30 30 H -1.571688 -2.600251 -0.491472 0
M  V30 31 H 1.562304 0.403582 1.091784 0
M  V30 32 H 0.469758 0.526556 -4.296277 0
M  V30 33 H 0.996981 3.907693 -2.053833 0
M  V30 34 H 1.878630 3.860715 0.165532 0
M  V30 35 H 0.991140 4.118184 2.115399 0
M  V30 36 H 0.355455 2.920013 4.056872 0
M  V30 37 H -1.281391 1.616274 5.171887 0
M  V30 38 H -2.950913 0.185604 3.973561 0
M  V30 39 H -2.836299 0.174830 1.550882 0
M  V30 40 H -1.202684 1.493567 0.407264 0
M  V30 41 H 3.326151 -1.338978 1.039347 0
M  V30 42 H 3.641388 -3.577733 1.814555 0
M  V30 43 H 2.089537 -5.969612 2.244187 0
M  V30 44 H -0.375015 -6.679193 1.948361 0
M  V30 45 H -1.641113 -4.597326 1.021878 0
M  V30 END ATOM
M  V30 BEGIN BOND
M  V30 1 1 1 2
M  V30 2 2 2 3
M  V30 3 1 3 4
M  V30 4 1 4 5
M  V30 5 2 5 6
M  V30 6 1 6 7
M  V30 7 3 7 8
M  V30 8 1 6 9
M  V30 9 2 9 10
M  V30 10 1 10 11
M  V30 11 2 11 12
M  V30 12 1 12 13
M  V30 13 2 13 14
M  V30 14 1 14 15
M  V30 15 2 15 16
M  V30 16 1 16 17
M  V30 17 2 17 18
M  V30 18 1 18 19
M  V30 19 2 19 20
M  V30 20 1 3 21
M  V30 21 2 21 22
M  V30 22 1 22 23
M  V30 23 1 23 24
M  V30 24 1 24 25
M  V30 25 2 25 26
M  V30 26 1 26 27
M  V30 27 1 27 2
M  V30 28 1 12 5
M  V30 29 1 20 15
M  V30 30 2 27 23
M  V30 31 1 1 28
M  V30 32 1 1 29
M  V30 33 1 1 30
M  V30 34 1 4 31
M  V30 35 1 9 32
M  V30 36 1 11 33
M  V30 37 1 13 34
M  V30 38 1 14 35
M  V30 39 1 16 36
M  V30 40 1 17 37
M  V30 41 1 18 38
M  V30 42 1 19 39
M  V30 43 1 20 40
M  V30 44 1 21 41
M  V30 45 1 22 42
M  V30 46 1 24 43
M  V30 47 1 25 44
M  V30 48 1 26 45
M  V30 END BOND
M  V30 END CTAB
M  END
>  <Dataset>  (569) 
ChEMBL_Kinases

>  <Ligand_Instance>  (569) 
nan

>  <PDB_ID>  (569) 
nan

>  <Standardized_SMILES>  (569) 
Cc1c(Nc2c(C#N)cncc2/C=C\c2ccccc2)ccc2[nH]ccc12

>  <Name>  (569) 
nan

>  <Pocket>  (569) 
nan

>  <ATP_Site>  (569) 
nan

>  <Peripheral>  (569) 
nan

>  <Num_H_Atoms_ProtBoundConf>  (569) 
nan

>  <Num_Resolved_Atoms>  (569) 
nan

>  <Num_Not_Resolved_Atoms>  (569) 
nan

$$$$
CHEMBL569108
     RDKit          3D

  0  0  0  0  0  0  0  0  0  0999 V3000
M  V30 BEGIN CTAB
M  V30 COUNTS 62 67 0 0 0
M  V30 BEGIN ATOM
M  V30 1 C 0.578311 0.905552 4.434147 0
M  V30 2 C 1.074303 1.941661 3.486136 0
M  V30 3 C 2.079186 1.661487 2.585358 0
M  V30 4 N 2.599908 0.359245 2.616032 0
M  V30 5 C 3.631589 -0.193047 1.809353 0
M  V30 6 C 4.940509 -0.107391 2.237645 0
M  V30 7 C 5.203197 0.551937 3.508013 0
M  V30 8 N 5.414663 1.091750 4.532533 0
M  V30 9 C 6.036377 -0.602364 1.552125 0
M  V30 10 N 5.767483 -1.216265 0.365460 0
M  V30 11 C 4.497697 -1.296678 -0.045019 0
M  V30 12 C 3.381586 -0.818104 0.606127 0
M  V30 13 C 2.035204 -0.939910 0.102876 0
M  V30 14 C 1.640950 -1.539450 -1.077268 0
M  V30 15 C 0.256154 -1.374499 -1.062731 0
M  V30 16 C -0.726131 -1.764565 -1.980744 0
M  V30 17 C -2.062278 -1.462163 -1.703990 0
M  V30 18 C -3.082299 -1.904210 -2.722304 0
M  V30 19 N -3.590667 -3.184642 -2.498594 0
M  V30 20 C -4.263015 -3.417626 -1.267166 0
M  V30 21 C -5.076385 -4.660513 -1.220767 0
M  V30 22 C -4.429920 -5.866072 -1.838056 0
M  V30 23 C -3.711346 -5.553248 -3.127253 0
M  V30 24 C -2.915772 -4.290276 -3.068304 0
M  V30 25 C -2.437895 -0.793174 -0.556796 0
M  V30 26 C -1.432314 -0.428205 0.320199 0
M  V30 27 C -0.103802 -0.697443 0.102701 0
M  V30 28 O 1.003327 -0.460564 0.766471 0
M  V30 29 C 2.598587 2.565684 1.670839 0
M  V30 30 C 2.054430 3.855602 1.671627 0
M  V30 31 C 1.032773 4.158242 2.579811 0
M  V30 32 N 0.374757 5.343974 2.740963 0
M  V30 33 C -0.526180 5.138641 3.744092 0
M  V30 34 C -0.438963 3.843504 4.209538 0
M  V30 35 C 0.548789 3.223696 3.471254 0
M  V30 36 H 0.310352 -0.036657 3.908648 0
M  V30 37 H -0.374138 1.291719 4.854525 0
M  V30 38 H 1.259850 0.749696 5.283404 0
M  V30 39 H 2.295648 -0.397126 3.247221 0
M  V30 40 H 7.033009 -0.493453 1.958282 0
M  V30 41 H 4.309971 -1.797322 -1.006241 0
M  V30 42 H 2.262126 -2.021592 -1.831828 0
M  V30 43 H -0.391680 -2.282364 -2.859688 0
M  V30 44 H -3.936228 -1.175778 -2.728838 0
M  V30 45 H -2.641849 -1.858936 -3.739119 0
M  V30 46 H -3.520987 -3.362070 -0.443008 0
M  V30 47 H -4.960056 -2.555841 -1.097020 0
M  V30 48 H -6.116328 -4.510102 -1.630843 0
M  V30 49 H -5.261476 -4.902720 -0.133593 0
M  V30 50 H -5.231459 -6.596911 -2.074666 0
M  V30 51 H -3.725533 -6.381009 -1.149642 0
M  V30 52 H -2.972164 -6.395440 -3.273606 0
M  V30 53 H -4.416511 -5.598426 -3.966283 0
M  V30 54 H -2.651199 -4.020442 -4.128337 0
M  V30 55 H -1.941502 -4.424485 -2.556447 0
M  V30 56 H -3.476375 -0.566460 -0.357197 0
M  V30 57 H -1.759008 0.090860 1.202865 0
M  V30 58 H 3.389954 2.281710 0.988241 0
M  V30 59 H 2.418749 4.605867 0.980287 0
M  V30 60 H 0.558072 6.215874 2.182264 0
M  V30 61 H -1.213612 5.897559 4.118252 0
M  V30 62 H -1.001620 3.351043 4.991770 0
M  V30 END ATOM
M  V30 BEGIN BOND
M  V30 1 1 1 2
M  V30 2 2 2 3
M  V30 3 1 3 4
M  V30 4 1 4 5
M  V30 5 2 5 6
M  V30 6 1 6 7
M  V30 7 3 7 8
M  V30 8 1 6 9
M  V30 9 2 9 10
M  V30 10 1 10 11
M  V30 11 2 11 12
M  V30 12 1 12 13
M  V30 13 2 13 14
M  V30 14 1 14 15
M  V30 15 2 15 16
M  V30 16 1 16 17
M  V30 17 1 17 18
M  V30 18 1 18 19
M  V30 19 1 19 20
M  V30 20 1 20 21
M  V30 21 1 21 22
M  V30 22 1 22 23
M  V30 23 1 23 24
M  V30 24 2 17 25
M  V30 25 1 25 26
M  V30 26 2 26 27
M  V30 27 1 27 28
M  V30 28 1 3 29
M  V30 29 2 29 30
M  V30 30 1 30 31
M  V30 31 1 31 32
M  V30 32 1 32 33
M  V30 33 2 33 34
M  V30 34 1 34 35
M  V30 35 1 35 2
M  V30 36 1 12 5
M  V30 37 1 28 13
M  V30 38 2 35 31
M  V30 39 1 27 15
M  V30 40 1 24 19
M  V30 41 1 1 36
M  V30 42 1 1 37
M  V30 43 1 1 38
M  V30 44 1 4 39
M  V30 45 1 9 40
M  V30 46 1 11 41
M  V30 47 1 14 42
M  V30 48 1 16 43
M  V30 49 1 18 44
M  V30 50 1 18 45
M  V30 51 1 20 46
M  V30 52 1 20 47
M  V30 53 1 21 48
M  V30 54 1 21 49
M  V30 55 1 22 50
M  V30 56 1 22 51
M  V30 57 1 23 52
M  V30 58 1 23 53
M  V30 59 1 24 54
M  V30 60 1 24 55
M  V30 61 1 25 56
M  V30 62 1 26 57
M  V30 63 1 29 58
M  V30 64 1 30 59
M  V30 65 1 32 60
M  V30 66 1 33 61
M  V30 67 1 34 62
M  V30 END BOND
M  V30 END CTAB
M  END
>  <Dataset>  (570) 
ChEMBL_Kinases

>  <Ligand_Instance>  (570) 
nan

>  <PDB_ID>  (570) 
nan

>  <Standardized_SMILES>  (570) 
Cc1c(Nc2c(C#N)cncc2-c2cc3cc(CN4CCCCC4)ccc3o2)ccc2[nH]ccc12

>  <Name>  (570) 
nan

>  <Pocket>  (570) 
nan

>  <ATP_Site>  (570) 
nan

>  <Peripheral>  (570) 
nan

>  <Num_H_Atoms_ProtBoundConf>  (570) 
nan

>  <Num_Resolved_Atoms>  (570) 
nan

>  <Num_Not_Resolved_Atoms>  (570) 
nan

$$$$
CHEMBL3716327
     RDKit          3D

  0  0  0  0  0  0  0  0  0  0999 V3000
M  V30 BEGIN CTAB
M  V30 COUNTS 41 45 0 0 0
M  V30 BEGIN ATOM
M  V30 1 N 2.012231 -1.703494 4.930805 0
M  V30 2 C 2.286258 -1.163934 3.917737 0
M  V30 3 C 2.609070 -0.480962 2.671348 0
M  V30 4 C 3.287622 0.652601 2.766731 0
M  V30 5 N 3.705662 1.218994 4.011527 0
M  V30 6 O 3.620821 1.342952 1.608820 0
M  V30 7 C 3.214681 0.791407 0.403295 0
M  V30 8 C 3.575807 1.527182 -0.718990 0
M  V30 9 C 3.255485 1.130689 -2.001129 0
M  V30 10 N 3.638421 1.902319 -3.105786 0
M  V30 11 C 2.548766 -0.050752 -2.103365 0
M  V30 12 C 2.171988 -0.811026 -0.998408 0
M  V30 13 C 2.507321 -0.389687 0.287947 0
M  V30 14 C 2.126234 -1.165721 1.473945 0
M  V30 15 C 0.709808 -1.577143 1.479518 0
M  V30 16 C -0.313611 -0.669622 1.169022 0
M  V30 17 C -1.626687 -1.090869 1.175845 0
M  V30 18 C -2.679109 -0.228297 0.871201 0
M  V30 19 C -3.978939 -0.680950 0.884382 0
M  V30 20 C -4.304221 -2.004667 1.198425 0
M  V30 21 C -3.277047 -2.885223 1.505703 0
M  V30 22 C -1.991777 -2.385464 1.479023 0
M  V30 23 N -1.007468 -3.258964 1.778179 0
M  V30 24 C 0.299435 -2.870493 1.779041 0
M  V30 25 Cl 1.526542 -4.084547 2.185439 0
M  V30 26 O -5.697684 -2.152971 1.126684 0
M  V30 27 C -6.167009 -1.024673 0.376556 0
M  V30 28 O -5.188483 -0.011989 0.616507 0
M  V30 29 H 3.924793 0.668961 4.887127 0
M  V30 30 H 3.813220 2.259521 4.096025 0
M  V30 31 H 4.139518 2.468531 -0.635550 0
M  V30 32 H 3.816366 2.939061 -2.950553 0
M  V30 33 H 3.772170 1.567149 -4.087529 0
M  V30 34 H 2.302130 -0.351488 -3.124268 0
M  V30 35 H 1.615699 -1.730980 -1.166338 0
M  V30 36 H 2.708699 -2.135136 1.385489 0
M  V30 37 H -0.080181 0.375741 0.919483 0
M  V30 38 H -2.460365 0.818941 0.619848 0
M  V30 39 H -3.483435 -3.919029 1.755142 0
M  V30 40 H -6.248043 -1.247583 -0.710164 0
M  V30 41 H -7.131852 -0.684436 0.796370 0
M  V30 END ATOM
M  V30 BEGIN BOND
M  V30 1 3 1 2
M  V30 2 1 2 3
M  V30 3 2 3 4
M  V30 4 1 4 5
M  V30 5 1 4 6
M  V30 6 1 6 7
M  V30 7 2 7 8
M  V30 8 1 8 9
M  V30 9 1 9 10
M  V30 10 2 9 11
M  V30 11 1 11 12
M  V30 12 2 12 13
M  V30 13 1 13 14
M  V30 14 1 14 15
M  V30 15 2 15 16
M  V30 16 1 16 17
M  V30 17 2 17 18
M  V30 18 1 18 19
M  V30 19 2 19 20
M  V30 20 1 20 21
M  V30 21 2 21 22
M  V30 22 1 22 23
M  V30 23 2 23 24
M  V30 24 1 24 25
M  V30 25 1 20 26
M  V30 26 1 26 27
M  V30 27 1 27 28
M  V30 28 1 14 3
M  V30 29 1 24 15
M  V30 30 1 13 7
M  V30 31 1 22 17
M  V30 32 1 28 19
M  V30 33 1 5 29
M  V30 34 1 5 30
M  V30 35 1 8 31
M  V30 36 1 10 32
M  V30 37 1 10 33
M  V30 38 1 11 34
M  V30 39 1 12 35
M  V30 40 1 14 36
M  V30 41 1 16 37
M  V30 42 1 18 38
M  V30 43 1 21 39
M  V30 44 1 27 40
M  V30 45 1 27 41
M  V30 END BOND
M  V30 END CTAB
M  END
>  <Dataset>  (571) 
ChEMBL_Kinases

>  <Ligand_Instance>  (571) 
nan

>  <PDB_ID>  (571) 
nan

>  <Standardized_SMILES>  (571) 
N#CC1=C(N)Oc2cc(N)ccc2C1c1cc2cc3c(cc2nc1Cl)OCO3

>  <Name>  (571) 
nan

>  <Pocket>  (571) 
nan

>  <ATP_Site>  (571) 
nan

>  <Peripheral>  (571) 
nan

>  <Num_H_Atoms_ProtBoundConf>  (571) 
nan

>  <Num_Resolved_Atoms>  (571) 
nan

>  <Num_Not_Resolved_Atoms>  (571) 
nan

$$$$
CHEMBL3716318
     RDKit          3D

  0  0  0  0  0  0  0  0  0  0999 V3000
M  V30 BEGIN CTAB
M  V30 COUNTS 65 67 0 0 0
M  V30 BEGIN ATOM
M  V30 1 C 6.168414 3.272779 7.738011 0
M  V30 2 C 5.686165 2.178424 6.801062 0
M  V30 3 C 5.880292 2.577412 5.339856 0
M  V30 4 C 5.396191 1.480147 4.441650 0
M  V30 5 C 5.562625 1.813022 2.976048 0
M  V30 6 C 4.813944 3.036917 2.572105 0
M  V30 7 O 3.457780 3.046642 2.736368 0
M  V30 8 C 2.503837 2.248989 2.171279 0
M  V30 9 C 2.491922 1.206081 1.276284 0
M  V30 10 C 1.327610 0.584906 0.892704 0
M  V30 11 C 0.100965 0.971750 1.383194 0
M  V30 12 C -1.150324 0.331159 0.993123 0
M  V30 13 O -2.257152 0.692859 1.449398 0
M  V30 14 N -1.142175 -0.740497 0.066838 0
M  V30 15 C -2.085911 -1.592944 -0.546823 0
M  V30 16 C -1.935444 -3.059494 -0.307661 0
M  V30 17 C -2.189043 -1.397841 -2.030887 0
M  V30 18 O -1.446815 -0.526537 -2.494737 0
M  V30 19 N -3.126961 -2.242935 -2.698836 0
M  V30 20 C -3.314299 -2.145879 -4.132932 0
M  V30 21 C -2.988377 -3.495662 -4.779205 0
M  V30 22 C -3.576680 -4.593645 -3.930925 0
M  V30 23 C -5.042433 -4.390376 -3.719560 0
M  V30 24 C -5.898313 -5.386013 -3.304866 0
M  V30 25 C -7.248006 -5.175617 -3.116332 0
M  V30 26 C -7.727287 -3.901192 -3.363220 0
M  V30 27 C -6.861765 -2.897857 -3.781790 0
M  V30 28 C -5.517165 -3.119855 -3.966235 0
M  V30 29 C -4.784796 -1.906763 -4.415850 0
M  V30 30 C 0.060516 2.012248 2.282277 0
M  V30 31 C 1.252632 2.646028 2.673197 0
M  V30 32 H 5.429838 4.099772 7.798183 0
M  V30 33 H 6.270762 2.797871 8.737684 0
M  V30 34 H 7.177499 3.632849 7.471121 0
M  V30 35 H 6.270535 1.260366 7.036296 0
M  V30 36 H 4.617304 1.994843 7.034628 0
M  V30 37 H 5.346710 3.538308 5.207001 0
M  V30 38 H 6.971725 2.744461 5.198444 0
M  V30 39 H 6.044508 0.594285 4.651605 0
M  V30 40 H 4.372780 1.180836 4.682824 0
M  V30 41 H 5.287461 0.926737 2.387778 0
M  V30 42 H 6.668856 1.927302 2.818288 0
M  V30 43 H 5.132281 3.338912 1.527680 0
M  V30 44 H 5.237253 3.878246 3.199162 0
M  V30 45 H 3.482688 0.967387 0.931229 0
M  V30 46 H 1.421315 -0.222146 0.186963 0
M  V30 47 H -0.288841 -1.134902 -0.385075 0
M  V30 48 H -3.122103 -1.331568 -0.181778 0
M  V30 49 H -1.244889 -3.550170 -1.025593 0
M  V30 50 H -2.903816 -3.603716 -0.370557 0
M  V30 51 H -1.488757 -3.260911 0.705410 0
M  V30 52 H -3.693914 -2.943559 -2.174851 0
M  V30 53 H -2.666794 -1.363432 -4.580945 0
M  V30 54 H -1.912471 -3.642000 -4.857885 0
M  V30 55 H -3.539656 -3.519246 -5.753549 0
M  V30 56 H -3.429132 -5.544328 -4.490129 0
M  V30 57 H -3.029597 -4.695584 -2.980800 0
M  V30 58 H -5.441243 -6.353495 -3.134626 0
M  V30 59 H -7.875994 -6.008240 -2.785848 0
M  V30 60 H -8.792763 -3.784674 -3.201064 0
M  V30 61 H -7.392721 -1.970893 -3.928577 0
M  V30 62 H -4.980243 -1.827624 -5.504213 0
M  V30 63 H -5.143063 -1.013014 -3.866296 0
M  V30 64 H -0.915643 2.304593 2.658645 0
M  V30 65 H 1.039119 3.448670 3.390099 0
M  V30 END ATOM
M  V30 BEGIN BOND
M  V30 1 1 1 2
M  V30 2 1 2 3
M  V30 3 1 3 4
M  V30 4 1 4 5
M  V30 5 1 5 6
M  V30 6 1 6 7
M  V30 7 1 7 8
M  V30 8 2 8 9
M  V30 9 1 9 10
M  V30 10 2 10 11
M  V30 11 1 11 12
M  V30 12 2 12 13
M  V30 13 1 12 14
M  V30 14 1 14 15
M  V30 15 1 15 16
M  V30 16 1 15 17
M  V30 17 2 17 18
M  V30 18 1 17 19
M  V30 19 1 19 20
M  V30 20 1 20 21
M  V30 21 1 21 22
M  V30 22 1 22 23
M  V30 23 2 23 24
M  V30 24 1 24 25
M  V30 25 2 25 26
M  V30 26 1 26 27
M  V30 27 2 27 28
M  V30 28 1 28 29
M  V30 29 1 11 30
M  V30 30 2 30 31
M  V30 31 1 31 8
M  V30 32 1 29 20
M  V30 33 1 28 23
M  V30 34 1 1 32
M  V30 35 1 1 33
M  V30 36 1 1 34
M  V30 37 1 2 35
M  V30 38 1 2 36
M  V30 39 1 3 37
M  V30 40 1 3 38
M  V30 41 1 4 39
M  V30 42 1 4 40
M  V30 43 1 5 41
M  V30 44 1 5 42
M  V30 45 1 6 43
M  V30 46 1 6 44
M  V30 47 1 9 45
M  V30 48 1 10 46
M  V30 49 1 14 47
M  V30 50 1 15 48
M  V30 51 1 16 49
M  V30 52 1 16 50
M  V30 53 1 16 51
M  V30 54 1 19 52
M  V30 55 1 20 53
M  V30 56 1 21 54
M  V30 57 1 21 55
M  V30 58 1 22 56
M  V30 59 1 22 57
M  V30 60 1 24 58
M  V30 61 1 25 59
M  V30 62 1 26 60
M  V30 63 1 27 61
M  V30 64 1 29 62
M  V30 65 1 29 63
M  V30 66 1 30 64
M  V30 67 1 31 65
M  V30 END BOND
M  V30 END CTAB
M  END
>  <Dataset>  (572) 
ChEMBL_Kinases

>  <Ligand_Instance>  (572) 
nan

>  <PDB_ID>  (572) 
nan

>  <Standardized_SMILES>  (572) 
CCCCCCOc1ccc(C(=O)NC(C)C(=O)NC2CCc3ccccc3C2)cc1

>  <Name>  (572) 
nan

>  <Pocket>  (572) 
nan

>  <ATP_Site>  (572) 
nan

>  <Peripheral>  (572) 
nan

>  <Num_H_Atoms_ProtBoundConf>  (572) 
nan

>  <Num_Resolved_Atoms>  (572) 
nan

>  <Num_Not_Resolved_Atoms>  (572) 
nan

$$$$
CHEMBL3716312
     RDKit          3D

  0  0  0  0  0  0  0  0  0  0999 V3000
M  V30 BEGIN CTAB
M  V30 COUNTS 48 51 0 0 0
M  V30 BEGIN ATOM
M  V30 1 C -2.188946 1.188754 0.967920 0
M  V30 2 C -0.964279 1.440734 1.816721 0 CFG=2
M  V30 3 C 0.171489 2.019610 1.013188 0
M  V30 4 N 1.440712 1.521820 1.498108 0
M  V30 5 C 2.529122 1.060262 0.722886 0
M  V30 6 N 3.647102 0.625125 1.342770 0
M  V30 7 C 4.700564 0.179533 0.635791 0
M  V30 8 C 4.656893 0.159365 -0.742372 0
M  V30 9 C 3.512358 0.605690 -1.350886 0
M  V30 10 N 2.478278 1.044185 -0.611319 0
M  V30 11 C 1.518604 1.534052 2.946609 0
M  V30 12 C 0.493164 0.580140 3.528371 0
M  V30 13 N -0.474385 0.242548 2.477796 0
M  V30 14 C -1.033100 -0.982654 1.962807 0
M  V30 15 N -0.895298 -1.187986 0.632654 0
M  V30 16 C -1.355907 -2.270581 -0.005906 0
M  V30 17 C -1.193403 -2.458281 -1.429972 0
M  V30 18 C -1.645632 -3.558300 -2.128457 0
M  V30 19 C -1.446887 -3.654028 -3.492441 0
M  V30 20 N -0.813752 -2.693769 -4.187993 0
M  V30 21 C -0.341398 -1.579281 -3.558416 0
M  V30 22 C -0.554085 -1.506943 -2.185257 0
M  V30 23 F -0.077384 -0.397060 -1.598684 0
M  V30 24 C -1.996681 -3.189925 0.793223 0
M  V30 25 C -2.167074 -3.030379 2.167110 0
M  V30 26 O -2.752979 -3.884520 2.858535 0
M  V30 27 N -1.666912 -1.910724 2.698421 0
M  V30 28 C -1.820715 -1.698152 4.117835 0
M  V30 29 H -2.672940 0.241206 1.334896 0
M  V30 30 H -2.979403 1.975115 1.143127 0
M  V30 31 H -1.982188 1.104013 -0.099505 0
M  V30 32 H -1.249192 2.165618 2.590852 0
M  V30 33 H 0.125069 1.808665 -0.057313 0
M  V30 34 H 0.146216 3.131755 1.109575 0
M  V30 35 H 5.552009 -0.148731 1.209860 0
M  V30 36 H 5.553658 -0.215478 -1.201557 0
M  V30 37 H 3.535323 0.566517 -2.438936 0
M  V30 38 H 1.349301 2.590440 3.256102 0
M  V30 39 H 2.537598 1.242619 3.282421 0
M  V30 40 H 0.982405 -0.292234 3.957180 0
M  V30 41 H -0.053660 1.188543 4.302089 0
M  V30 42 H -2.151927 -4.340362 -1.614044 0
M  V30 43 H -1.808217 -4.526254 -4.029372 0
M  V30 44 H 0.170067 -0.797231 -4.102931 0
M  V30 45 H -2.408966 -4.101587 0.384817 0
M  V30 46 H -1.281811 -0.841145 4.514799 0
M  V30 47 H -2.901376 -1.520707 4.376318 0
M  V30 48 H -1.477409 -2.597208 4.687308 0
M  V30 END ATOM
M  V30 BEGIN BOND
M  V30 1 1 1 2
M  V30 2 1 2 3
M  V30 3 1 3 4
M  V30 4 1 4 5
M  V30 5 2 5 6
M  V30 6 1 6 7
M  V30 7 2 7 8
M  V30 8 1 8 9
M  V30 9 2 9 10
M  V30 10 1 4 11
M  V30 11 1 11 12
M  V30 12 1 12 13
M  V30 13 1 13 14
M  V30 14 2 14 15
M  V30 15 1 15 16
M  V30 16 1 16 17
M  V30 17 2 17 18
M  V30 18 1 18 19
M  V30 19 2 19 20
M  V30 20 1 20 21
M  V30 21 2 21 22
M  V30 22 1 22 23
M  V30 23 2 16 24
M  V30 24 1 24 25
M  V30 25 2 25 26
M  V30 26 1 25 27
M  V30 27 1 27 28
M  V30 28 1 13 2
M  V30 29 1 27 14
M  V30 30 1 10 5
M  V30 31 1 22 17
M  V30 32 1 1 29
M  V30 33 1 1 30
M  V30 34 1 1 31
M  V30 35 1 2 32 CFG=1
M  V30 36 1 3 33
M  V30 37 1 3 34
M  V30 38 1 7 35
M  V30 39 1 8 36
M  V30 40 1 9 37
M  V30 41 1 11 38
M  V30 42 1 11 39
M  V30 43 1 12 40
M  V30 44 1 12 41
M  V30 45 1 18 42
M  V30 46 1 19 43
M  V30 47 1 21 44
M  V30 48 1 24 45
M  V30 49 1 28 46
M  V30 50 1 28 47
M  V30 51 1 28 48
M  V30 END BOND
M  V30 END CTAB
M  END
>  <Dataset>  (573) 
ChEMBL_Kinases

>  <Ligand_Instance>  (573) 
nan

>  <PDB_ID>  (573) 
nan

>  <Standardized_SMILES>  (573) 
C[C@@H]1CN(c2ncccn2)CCN1c1nc(-c2ccncc2F)cc(=O)n1C

>  <Name>  (573) 
nan

>  <Pocket>  (573) 
nan

>  <ATP_Site>  (573) 
nan

>  <Peripheral>  (573) 
nan

>  <Num_H_Atoms_ProtBoundConf>  (573) 
nan

>  <Num_Resolved_Atoms>  (573) 
nan

>  <Num_Not_Resolved_Atoms>  (573) 
nan

$$$$
CHEMBL3716309
     RDKit          3D

  0  0  0  0  0  0  0  0  0  0999 V3000
M  V30 BEGIN CTAB
M  V30 COUNTS 42 45 0 0 0
M  V30 BEGIN ATOM
M  V30 1 O -1.130164 -5.081065 3.486312 0
M  V30 2 C -0.740875 -3.978862 3.050910 0
M  V30 3 C -0.676454 -3.687931 1.639671 0
M  V30 4 N -0.959883 -4.723418 0.815558 0
M  V30 5 C -0.857313 -4.285747 -0.474034 0
M  V30 6 N -1.018027 -4.846069 -1.682885 0
M  V30 7 C -0.841380 -4.135569 -2.826851 0
M  V30 8 C -0.485046 -2.790546 -2.773405 0
M  V30 9 C -0.305206 -2.159540 -1.553058 0
M  V30 10 C 0.055669 -0.768050 -1.531825 0
M  V30 11 O -0.545848 -0.041697 -2.376749 0
M  V30 12 N 0.979980 -0.040799 -0.727465 0
M  V30 13 C 1.168326 1.393234 -0.906942 0 CFG=1
M  V30 14 C 0.465862 2.117864 0.251014 0
M  V30 15 C 0.613771 3.594307 0.001475 0
M  V30 16 C 2.083326 3.935955 0.134043 0
M  V30 17 N 2.926337 2.783999 0.108548 0
M  V30 18 C 2.588035 1.829561 -0.926527 0
M  V30 19 C -0.505712 -2.961295 -0.449630 0
M  V30 20 N -0.408834 -2.646571 0.848943 0
M  V30 21 C -0.317954 -2.901296 4.067276 0
M  V30 22 C -0.358286 -3.015485 5.373150 0
M  V30 23 C 0.048941 -2.015656 6.161462 0
M  V30 24 C 0.509296 -0.870422 5.496566 0
M  V30 25 S 0.301930 -1.362438 3.674447 0
M  V30 26 H -1.012158 -4.761832 -3.679616 0
M  V30 27 H -0.376508 -2.338048 -3.731069 0
M  V30 28 H 1.478089 -0.627055 -0.037211 0
M  V30 29 H 0.631080 1.729595 -1.808478 0
M  V30 30 H 0.999185 1.846662 1.176939 0
M  V30 31 H -0.584950 1.781040 0.222543 0
M  V30 32 H 0.220861 3.823578 -0.999438 0
M  V30 33 H -0.018372 4.165453 0.729413 0
M  V30 34 H 2.201240 4.422527 1.134884 0
M  V30 35 H 2.408937 4.681861 -0.622991 0
M  V30 36 H 2.987175 2.358832 1.039609 0
M  V30 37 H 2.918304 2.278004 -1.897169 0
M  V30 38 H 3.301399 0.966506 -0.784059 0
M  V30 39 H -0.168713 -1.737970 1.252523 0
M  V30 40 H -0.716623 -3.920266 5.857475 0
M  V30 41 H 0.081446 -1.951935 7.245081 0
M  V30 42 H 0.924010 0.148038 6.053272 0
M  V30 END ATOM
M  V30 BEGIN BOND
M  V30 1 2 1 2
M  V30 2 1 2 3
M  V30 3 2 3 4
M  V30 4 1 4 5
M  V30 5 2 5 6
M  V30 6 1 6 7
M  V30 7 2 7 8
M  V30 8 1 8 9
M  V30 9 1 9 10
M  V30 10 2 10 11
M  V30 11 1 10 12
M  V30 12 1 12 13
M  V30 13 1 13 14
M  V30 14 1 14 15
M  V30 15 1 15 16
M  V30 16 1 16 17
M  V30 17 1 17 18
M  V30 18 2 9 19
M  V30 19 1 19 20
M  V30 20 1 2 21
M  V30 21 2 21 22
M  V30 22 1 22 23
M  V30 23 2 23 24
M  V30 24 1 24 25
M  V30 25 1 20 3
M  V30 26 1 25 21
M  V30 27 1 19 5
M  V30 28 1 18 13
M  V30 29 1 7 26
M  V30 30 1 8 27
M  V30 31 1 12 28
M  V30 32 1 13 29 CFG=3
M  V30 33 1 14 30
M  V30 34 1 14 31
M  V30 35 1 15 32
M  V30 36 1 15 33
M  V30 37 1 16 34
M  V30 38 1 16 35
M  V30 39 1 17 36
M  V30 40 1 18 37
M  V30 41 1 18 38
M  V30 42 1 20 39
M  V30 43 1 22 40
M  V30 44 1 23 41
M  V30 45 1 24 42
M  V30 END BOND
M  V30 END CTAB
M  END
>  <Dataset>  (574) 
ChEMBL_Kinases

>  <Ligand_Instance>  (574) 
nan

>  <PDB_ID>  (574) 
nan

>  <Standardized_SMILES>  (574) 
O=C(c1nc2nccc(C(=O)N[C@H]3CCCNC3)c2[nH]1)c1cccs1

>  <Name>  (574) 
nan

>  <Pocket>  (574) 
nan

>  <ATP_Site>  (574) 
nan

>  <Peripheral>  (574) 
nan

>  <Num_H_Atoms_ProtBoundConf>  (574) 
nan

>  <Num_Resolved_Atoms>  (574) 
nan

>  <Num_Not_Resolved_Atoms>  (574) 
nan

$$$$
CHEMBL569114
     RDKit          3D

  0  0  0  0  0  0  0  0  0  0999 V3000
M  V30 BEGIN CTAB
M  V30 COUNTS 58 61 0 0 0
M  V30 BEGIN ATOM
M  V30 1 C 2.819939 -1.365318 9.370505 0
M  V30 2 O 3.697858 -1.930148 8.442545 0
M  V30 3 C 3.556171 -1.896028 7.064491 0
M  V30 4 C 4.514689 -2.499414 6.292081 0
M  V30 5 C 4.331394 -2.438634 4.933151 0
M  V30 6 C 3.242328 -1.804733 4.407821 0
M  V30 7 C 3.233680 -1.811547 2.961658 0
M  V30 8 C 2.576577 -1.504399 1.878526 0
M  V30 9 C 2.160625 -1.313517 0.561462 0
M  V30 10 O 3.004430 -1.735302 -0.302802 0
M  V30 11 N 0.982027 -0.739300 0.054054 0
M  V30 12 C 0.880497 -0.697558 -1.363668 0
M  V30 13 C -0.292883 -0.111010 -1.803259 0
M  V30 14 C -0.565159 0.033066 -3.145895 0
M  V30 15 C -1.801552 0.653256 -3.577112 0
M  V30 16 N -1.639663 1.880341 -4.144640 0
M  V30 17 C -2.868028 2.326969 -4.476158 0
M  V30 18 S -3.466461 3.851307 -5.253390 0
M  V30 19 C -3.506624 3.664787 -7.059603 0
M  V30 20 N -3.810338 1.412679 -4.133048 0
M  V30 21 C -3.154824 0.358581 -3.568816 0
M  V30 22 C -3.523647 -0.930827 -3.000283 0
M  V30 23 C -3.047817 -2.023791 -3.725144 0
M  V30 24 C -3.288587 -3.341356 -3.361964 0
M  V30 25 C -4.039786 -3.604442 -2.219912 0
M  V30 26 F -4.297207 -4.871993 -1.827054 0
M  V30 27 C -4.505386 -2.511824 -1.510554 0
M  V30 28 C -4.269084 -1.206997 -1.868181 0
M  V30 29 C 0.424618 -0.454777 -4.006238 0
M  V30 30 C 1.594868 -1.039138 -3.578075 0
M  V30 31 N 1.767408 -1.133281 -2.236430 0
M  V30 32 C 2.261424 -1.189988 5.148039 0
M  V30 33 O 1.172724 -0.555018 4.587108 0
M  V30 34 C 0.143031 0.089453 5.260912 0
M  V30 35 C 2.470290 -1.265731 6.504478 0
M  V30 36 H 1.842211 -1.854112 9.423142 0
M  V30 37 H 3.313154 -1.460084 10.369244 0
M  V30 38 H 2.736607 -0.246294 9.232655 0
M  V30 39 H 5.367040 -2.996522 6.730521 0
M  V30 40 H 5.116487 -2.932444 4.349191 0
M  V30 41 H 4.075824 -2.217645 2.346166 0
M  V30 42 H 1.720661 -1.097958 2.500731 0
M  V30 43 H 0.292398 -0.399917 0.727899 0
M  V30 44 H -1.065288 0.268758 -1.114315 0
M  V30 45 H -0.880692 2.568227 -4.398135 0
M  V30 46 H -3.312634 2.590112 -7.282605 0
M  V30 47 H -4.476864 3.915665 -7.501287 0
M  V30 48 H -2.666338 4.238140 -7.492328 0
M  V30 49 H -2.457442 -1.901982 -4.625291 0
M  V30 50 H -2.890347 -4.160273 -3.963295 0
M  V30 51 H -5.098611 -2.639858 -0.605688 0
M  V30 52 H -4.610816 -0.330001 -1.344038 0
M  V30 53 H 0.237742 -0.358350 -5.068474 0
M  V30 54 H 2.342667 -1.409668 -4.270326 0
M  V30 55 H -0.828260 0.113287 4.717508 0
M  V30 56 H 0.435671 1.170048 5.382745 0
M  V30 57 H 0.031929 -0.374162 6.269423 0
M  V30 58 H 1.761974 -0.817187 7.199215 0
M  V30 END ATOM
M  V30 BEGIN BOND
M  V30 1 1 1 2
M  V30 2 1 2 3
M  V30 3 2 3 4
M  V30 4 1 4 5
M  V30 5 2 5 6
M  V30 6 1 6 7
M  V30 7 2 7 8
M  V30 8 1 8 9
M  V30 9 2 9 10
M  V30 10 1 9 11
M  V30 11 1 11 12
M  V30 12 2 12 13
M  V30 13 1 13 14
M  V30 14 1 14 15
M  V30 15 1 15 16
M  V30 16 1 16 17
M  V30 17 1 17 18
M  V30 18 1 18 19
M  V30 19 2 17 20
M  V30 20 1 20 21
M  V30 21 1 21 22
M  V30 22 2 22 23
M  V30 23 1 23 24
M  V30 24 2 24 25
M  V30 25 1 25 26
M  V30 26 1 25 27
M  V30 27 2 27 28
M  V30 28 2 14 29
M  V30 29 1 29 30
M  V30 30 2 30 31
M  V30 31 1 6 32
M  V30 32 1 32 33
M  V30 33 1 33 34
M  V30 34 2 32 35
M  V30 35 1 35 3
M  V30 36 1 31 12
M  V30 37 2 21 15
M  V30 38 1 28 22
M  V30 39 1 1 36
M  V30 40 1 1 37
M  V30 41 1 1 38
M  V30 42 1 4 39
M  V30 43 1 5 40
M  V30 44 1 7 41
M  V30 45 1 8 42
M  V30 46 1 11 43
M  V30 47 1 13 44
M  V30 48 1 16 45
M  V30 49 1 19 46
M  V30 50 1 19 47
M  V30 51 1 19 48
M  V30 52 1 23 49
M  V30 53 1 24 50
M  V30 54 1 27 51
M  V30 55 1 28 52
M  V30 56 1 29 53
M  V30 57 1 30 54
M  V30 58 1 34 55
M  V30 59 1 34 56
M  V30 60 1 34 57
M  V30 61 1 35 58
M  V30 END BOND
M  V30 END CTAB
M  END
>  <Dataset>  (575) 
ChEMBL_Kinases

>  <Ligand_Instance>  (575) 
nan

>  <PDB_ID>  (575) 
nan

>  <Standardized_SMILES>  (575) 
COc1ccc(/C=C/C(=O)Nc2cc(-c3[nH]c(SC)nc3-c3ccc(F)cc3)ccn2)c(OC)c1

>  <Name>  (575) 
nan

>  <Pocket>  (575) 
nan

>  <ATP_Site>  (575) 
nan

>  <Peripheral>  (575) 
nan

>  <Num_H_Atoms_ProtBoundConf>  (575) 
nan

>  <Num_Resolved_Atoms>  (575) 
nan

>  <Num_Not_Resolved_Atoms>  (575) 
nan

$$$$
CHEMBL569143
     RDKit          3D

  0  0  0  0  0  0  0  0  0  0999 V3000
M  V30 BEGIN CTAB
M  V30 COUNTS 36 38 0 0 0
M  V30 BEGIN ATOM
M  V30 1 N -0.071253 -2.255941 0.305296 0
M  V30 2 C -0.246034 -0.829892 0.279673 0
M  V30 3 C 0.673931 0.077724 0.689808 0
M  V30 4 C 1.939996 -0.441934 1.176175 0
M  V30 5 O 2.110466 -1.694565 1.079265 0
M  V30 6 C 3.131446 0.114127 1.776230 0
M  V30 7 C 4.400143 -0.177950 1.260978 0
M  V30 8 C 5.590295 0.300530 1.708982 0
M  V30 9 C 5.530736 1.161933 2.782573 0
M  V30 10 C 4.338007 1.513317 3.362989 0
M  V30 11 C 3.182148 0.979042 2.842401 0
M  V30 12 Cl 1.706321 1.432656 3.640246 0
M  V30 13 C 0.327671 1.404097 0.589334 0
M  V30 14 C -0.872632 1.879860 0.108792 0
M  V30 15 N -1.766700 0.958296 -0.290731 0 CHG=1 VAL=4
M  V30 16 O -2.981374 1.387123 -0.778718 0 CHG=-1 VAL=1
M  V30 17 C -1.462761 -0.349394 -0.207770 0
M  V30 18 C -2.478035 -1.307971 -0.658918 0
M  V30 19 C -2.416263 -1.664020 -2.002606 0
M  V30 20 C -3.346669 -2.564509 -2.488967 0
M  V30 21 C -4.319631 -3.106126 -1.673795 0
M  V30 22 C -4.381709 -2.752662 -0.337834 0
M  V30 23 C -3.456905 -1.854572 0.155593 0
M  V30 24 Cl -3.472263 -1.358103 1.839536 0
M  V30 25 H -0.456978 -2.977729 0.976478 0
M  V30 26 H 0.462647 -2.891025 -0.316345 0
M  V30 27 H 4.444563 -0.865723 0.404333 0
M  V30 28 H 6.517372 0.011295 1.238501 0
M  V30 29 H 6.467830 1.565713 3.168152 0
M  V30 30 H 4.334780 2.192567 4.204339 0
M  V30 31 H 1.033213 2.156707 0.890496 0
M  V30 32 H -1.079895 2.936591 0.057574 0
M  V30 33 H -1.681074 -1.276644 -2.690969 0
M  V30 34 H -3.335864 -2.872283 -3.536333 0
M  V30 35 H -5.021090 -3.801156 -2.093834 0
M  V30 36 H -5.130767 -3.156249 0.334060 0
M  V30 END ATOM
M  V30 BEGIN BOND
M  V30 1 1 1 2
M  V30 2 2 2 3
M  V30 3 1 3 4
M  V30 4 2 4 5
M  V30 5 1 4 6
M  V30 6 2 6 7
M  V30 7 1 7 8
M  V30 8 2 8 9
M  V30 9 1 9 10
M  V30 10 2 10 11
M  V30 11 1 11 12
M  V30 12 1 3 13
M  V30 13 2 13 14
M  V30 14 1 14 15
M  V30 15 1 15 16
M  V30 16 2 15 17
M  V30 17 1 17 18
M  V30 18 2 18 19
M  V30 19 1 19 20
M  V30 20 2 20 21
M  V30 21 1 21 22
M  V30 22 2 22 23
M  V30 23 1 23 24
M  V30 24 1 17 2
M  V30 25 1 23 18
M  V30 26 1 11 6
M  V30 27 1 1 25
M  V30 28 1 1 26
M  V30 29 1 7 27
M  V30 30 1 8 28
M  V30 31 1 9 29
M  V30 32 1 10 30
M  V30 33 1 13 31
M  V30 34 1 14 32
M  V30 35 1 19 33
M  V30 36 1 20 34
M  V30 37 1 21 35
M  V30 38 1 22 36
M  V30 END BOND
M  V30 END CTAB
M  END
>  <Dataset>  (576) 
ChEMBL_Kinases

>  <Ligand_Instance>  (576) 
nan

>  <PDB_ID>  (576) 
nan

>  <Standardized_SMILES>  (576) 
Nc1c(C(=O)c2ccccc2Cl)cc[n+]([O-])c1-c1ccccc1Cl

>  <Name>  (576) 
nan

>  <Pocket>  (576) 
nan

>  <ATP_Site>  (576) 
nan

>  <Peripheral>  (576) 
nan

>  <Num_H_Atoms_ProtBoundConf>  (576) 
nan

>  <Num_Resolved_Atoms>  (576) 
nan

>  <Num_Not_Resolved_Atoms>  (576) 
nan

$$$$
CHEMBL569151
     RDKit          3D

  0  0  0  0  0  0  0  0  0  0999 V3000
M  V30 BEGIN CTAB
M  V30 COUNTS 53 56 0 0 0
M  V30 BEGIN ATOM
M  V30 1 C 0.030873 -1.116882 3.410921 0
M  V30 2 C 1.310707 -1.214279 2.617689 0
M  V30 3 C 2.270930 -2.076712 3.412396 0
M  V30 4 C 1.895197 0.106178 2.277250 0
M  V30 5 O 2.732882 0.795572 2.979109 0
M  V30 6 N 3.051899 1.919889 2.393981 0
M  V30 7 C 2.380196 1.987405 1.217621 0
M  V30 8 C 2.386965 3.018919 0.207553 0
M  V30 9 C 3.481357 3.448748 -0.509504 0
M  V30 10 C 3.383073 4.454925 -1.467371 0
M  V30 11 C 2.152520 5.033896 -1.700444 0
M  V30 12 F 2.073580 6.006897 -2.630979 0
M  V30 13 C 1.017833 4.635182 -1.002897 0
M  V30 14 C 1.190346 3.638345 -0.074270 0
M  V30 15 C 1.619918 0.826477 1.110042 0
M  V30 16 C 0.739285 0.428415 0.046240 0
M  V30 17 C 1.174811 0.181488 -1.240064 0
M  V30 18 C 0.406673 -0.203753 -2.322133 0
M  V30 19 N -0.924752 -0.345686 -2.051288 0
M  V30 20 C -1.377558 -0.108243 -0.793169 0
M  V30 21 N -2.804485 -0.300599 -0.665119 0
M  V30 22 C -2.936418 -1.659410 -0.304972 0
M  V30 23 O -2.197593 -2.677913 -0.080560 0
M  V30 24 C -4.019510 -2.656474 0.013121 0
M  V30 25 C -3.350739 -3.948015 0.316985 0
M  V30 26 C -3.031014 -4.929426 -0.580889 0
M  V30 27 C -2.408558 -6.108844 -0.231884 0
M  V30 28 C -2.070195 -6.351105 1.101638 0
M  V30 29 F -1.460123 -7.477743 1.526321 0
M  V30 30 C -2.385172 -5.370461 2.025992 0
M  V30 31 C -3.000322 -4.218496 1.642233 0
M  V30 32 C -0.611325 0.276816 0.289301 0
M  V30 33 H 0.067528 -1.704467 4.349194 0
M  V30 34 H -0.212222 -0.069537 3.725874 0
M  V30 35 H -0.820914 -1.536607 2.820705 0
M  V30 36 H 1.110117 -1.814969 1.681761 0
M  V30 37 H 1.719440 -2.959233 3.779060 0
M  V30 38 H 2.591770 -1.483168 4.291116 0
M  V30 39 H 3.159000 -2.364622 2.812202 0
M  V30 40 H 4.428225 2.951703 -0.279880 0
M  V30 41 H 4.261773 4.767449 -2.011208 0
M  V30 42 H 0.087151 5.115049 -1.220309 0
M  V30 43 H 0.288262 3.349215 0.452923 0
M  V30 44 H 2.255592 0.308445 -1.411797 0
M  V30 45 H 0.888686 -0.360111 -3.267861 0
M  V30 46 H -3.789739 0.018751 -0.693933 0
M  V30 47 H -4.629273 -2.760859 -0.905049 0
M  V30 48 H -4.617310 -2.326604 0.888458 0
M  V30 49 H -3.296905 -4.738848 -1.626950 0
M  V30 50 H -2.170596 -6.861617 -0.964365 0
M  V30 51 H -2.146450 -5.505084 3.071781 0
M  V30 52 H -3.230830 -3.468156 2.414090 0
M  V30 53 H -1.078521 0.434180 1.228943 0
M  V30 END ATOM
M  V30 BEGIN BOND
M  V30 1 1 1 2
M  V30 2 1 2 3
M  V30 3 1 2 4
M  V30 4 1 4 5
M  V30 5 1 5 6
M  V30 6 2 6 7
M  V30 7 1 7 8
M  V30 8 2 8 9
M  V30 9 1 9 10
M  V30 10 2 10 11
M  V30 11 1 11 12
M  V30 12 1 11 13
M  V30 13 2 13 14
M  V30 14 1 7 15
M  V30 15 1 15 16
M  V30 16 2 16 17
M  V30 17 1 17 18
M  V30 18 2 18 19
M  V30 19 1 19 20
M  V30 20 1 20 21
M  V30 21 1 21 22
M  V30 22 2 22 23
M  V30 23 1 22 24
M  V30 24 1 24 25
M  V30 25 2 25 26
M  V30 26 1 26 27
M  V30 27 2 27 28
M  V30 28 1 28 29
M  V30 29 1 28 30
M  V30 30 2 30 31
M  V30 31 2 20 32
M  V30 32 2 15 4
M  V30 33 1 32 16
M  V30 34 1 14 8
M  V30 35 1 31 25
M  V30 36 1 1 33
M  V30 37 1 1 34
M  V30 38 1 1 35
M  V30 39 1 2 36
M  V30 40 1 3 37
M  V30 41 1 3 38
M  V30 42 1 3 39
M  V30 43 1 9 40
M  V30 44 1 10 41
M  V30 45 1 13 42
M  V30 46 1 14 43
M  V30 47 1 17 44
M  V30 48 1 18 45
M  V30 49 1 21 46
M  V30 50 1 24 47
M  V30 51 1 24 48
M  V30 52 1 26 49
M  V30 53 1 27 50
M  V30 54 1 30 51
M  V30 55 1 31 52
M  V30 56 1 32 53
M  V30 END BOND
M  V30 END CTAB
M  END
>  <Dataset>  (577) 
ChEMBL_Kinases

>  <Ligand_Instance>  (577) 
nan

>  <PDB_ID>  (577) 
nan

>  <Standardized_SMILES>  (577) 
CC(C)c1onc(-c2ccc(F)cc2)c1-c1ccnc(NC(=O)Cc2ccc(F)cc2)c1

>  <Name>  (577) 
nan

>  <Pocket>  (577) 
nan

>  <ATP_Site>  (577) 
nan

>  <Peripheral>  (577) 
nan

>  <Num_H_Atoms_ProtBoundConf>  (577) 
nan

>  <Num_Resolved_Atoms>  (577) 
nan

>  <Num_Not_Resolved_Atoms>  (577) 
nan

$$$$
CHEMBL3716245
     RDKit          3D

  0  0  0  0  0  0  0  0  0  0999 V3000
M  V30 BEGIN CTAB
M  V30 COUNTS 48 51 0 0 0
M  V30 BEGIN ATOM
M  V30 1 O 2.135790 -0.672029 2.327460 0
M  V30 2 C 1.268155 -0.774797 1.403680 0
M  V30 3 N 1.200984 -1.955524 0.639888 0
M  V30 4 C 2.025558 -3.127643 0.730451 0
M  V30 5 C 3.446314 -2.804083 0.334741 0
M  V30 6 C 3.375915 -2.323842 -1.102251 0
M  V30 7 C 3.501960 -0.854029 -1.275539 0
M  V30 8 C 4.698473 -0.336904 -0.546563 0
M  V30 9 C 4.940594 -0.926789 0.800287 0
M  V30 10 N 4.052506 -1.933745 1.249937 0
M  V30 11 C 0.518833 0.464019 1.383613 0
M  V30 12 C 1.143099 1.702387 1.438456 0
M  V30 13 C 0.509278 2.922592 1.437953 0
M  V30 14 C -0.862393 2.882314 1.379573 0
M  V30 15 O -1.552186 4.089050 1.375850 0
M  V30 16 C -1.523612 1.655431 1.324685 0
M  V30 17 N -2.830658 1.357105 1.252524 0
M  V30 18 C -3.011369 0.029394 1.203732 0
M  V30 19 C -4.340285 -0.590110 1.110571 0
M  V30 20 C -5.445570 0.245359 1.125167 0
M  V30 21 C -6.723279 -0.277157 1.020434 0
M  V30 22 C -6.791308 -1.646064 0.905017 0
M  V30 23 C -5.762066 -2.558789 0.880448 0
M  V30 24 C -4.515255 -1.943416 0.992162 0
M  V30 25 N -1.794652 -0.537603 1.248952 0
M  V30 26 C -0.869037 0.429369 1.323611 0
M  V30 27 H 0.422214 -1.895639 -0.064003 0
M  V30 28 H 1.594118 -3.957604 0.113665 0
M  V30 29 H 2.015669 -3.427103 1.807900 0
M  V30 30 H 3.972217 -3.820675 0.346222 0
M  V30 31 H 2.440496 -2.670305 -1.616114 0
M  V30 32 H 4.222429 -2.826285 -1.655410 0
M  V30 33 H 2.570026 -0.291326 -1.089257 0
M  V30 34 H 3.702117 -0.679482 -2.372918 0
M  V30 35 H 4.626789 0.777036 -0.570042 0
M  V30 36 H 5.600783 -0.548948 -1.196485 0
M  V30 37 H 6.017857 -1.217431 0.973798 0
M  V30 38 H 4.819017 -0.058799 1.533421 0
M  V30 39 H 4.514345 -2.479582 2.012936 0
M  V30 40 H 2.246630 1.671283 1.488293 0
M  V30 41 H 1.065566 3.852063 1.484779 0
M  V30 42 H -1.965223 4.398911 2.263448 0
M  V30 43 H -3.555505 2.130757 1.241745 0
M  V30 44 H -5.416117 1.330628 1.221262 0
M  V30 45 H -7.619530 0.322405 1.024225 0
M  V30 46 H -7.806840 -2.063013 0.815806 0
M  V30 47 H -5.887723 -3.625829 0.785099 0
M  V30 48 H -3.631099 -2.602770 0.981517 0
M  V30 END ATOM
M  V30 BEGIN BOND
M  V30 1 2 1 2
M  V30 2 1 2 3
M  V30 3 1 3 4
M  V30 4 1 4 5
M  V30 5 1 5 6
M  V30 6 1 6 7
M  V30 7 1 7 8
M  V30 8 1 8 9
M  V30 9 1 9 10
M  V30 10 1 2 11
M  V30 11 2 11 12
M  V30 12 1 12 13
M  V30 13 2 13 14
M  V30 14 1 14 15
M  V30 15 1 14 16
M  V30 16 1 16 17
M  V30 17 1 17 18
M  V30 18 1 18 19
M  V30 19 2 19 20
M  V30 20 1 20 21
M  V30 21 2 21 22
M  V30 22 1 22 23
M  V30 23 2 23 24
M  V30 24 2 18 25
M  V30 25 1 25 26
M  V30 26 1 10 5
M  V30 27 1 26 11
M  V30 28 2 26 16
M  V30 29 1 24 19
M  V30 30 1 3 27
M  V30 31 1 4 28
M  V30 32 1 4 29
M  V30 33 1 5 30
M  V30 34 1 6 31
M  V30 35 1 6 32
M  V30 36 1 7 33
M  V30 37 1 7 34
M  V30 38 1 8 35
M  V30 39 1 8 36
M  V30 40 1 9 37
M  V30 41 1 9 38
M  V30 42 1 10 39
M  V30 43 1 12 40
M  V30 44 1 13 41
M  V30 45 1 15 42
M  V30 46 1 17 43
M  V30 47 1 20 44
M  V30 48 1 21 45
M  V30 49 1 22 46
M  V30 50 1 23 47
M  V30 51 1 24 48
M  V30 END BOND
M  V30 END CTAB
M  END
>  <Dataset>  (578) 
ChEMBL_Kinases

>  <Ligand_Instance>  (578) 
nan

>  <PDB_ID>  (578) 
nan

>  <Standardized_SMILES>  (578) 
O=C(NCC1CCCCN1)c1ccc(O)c2[nH]c(-c3ccccc3)nc12

>  <Name>  (578) 
nan

>  <Pocket>  (578) 
nan

>  <ATP_Site>  (578) 
nan

>  <Peripheral>  (578) 
nan

>  <Num_H_Atoms_ProtBoundConf>  (578) 
nan

>  <Num_Resolved_Atoms>  (578) 
nan

>  <Num_Not_Resolved_Atoms>  (578) 
nan

$$$$
CHEMBL569203
     RDKit          3D

  0  0  0  0  0  0  0  0  0  0999 V3000
M  V30 BEGIN CTAB
M  V30 COUNTS 45 48 0 0 0
M  V30 BEGIN ATOM
M  V30 1 C -3.127674 -5.865440 0.914671 0
M  V30 2 C -2.444304 -4.598241 0.492464 0
M  V30 3 C -1.070275 -4.403622 0.406351 0
M  V30 4 C -0.943466 -3.099451 -0.018544 0
M  V30 5 C 0.169176 -2.333009 -0.285657 0
M  V30 6 C 0.171368 -1.008061 -0.715212 0
M  V30 7 N 1.384526 -0.306701 -0.962871 0
M  V30 8 C 1.213310 1.028596 -1.392875 0
M  V30 9 C 1.008140 1.158786 -2.748378 0
M  V30 10 C 0.979008 0.046126 -3.644342 0
M  V30 11 N 0.941765 -0.857655 -4.365731 0
M  V30 12 C 0.824792 2.432909 -3.239903 0
M  V30 13 N 0.853800 3.472102 -2.390499 0
M  V30 14 C 1.056740 3.300192 -1.078794 0
M  V30 15 C 1.249583 2.065050 -0.499452 0
M  V30 16 C 1.480599 1.998673 0.923456 0
M  V30 17 C 1.740298 1.052734 1.772368 0
M  V30 18 C 1.950225 1.144245 3.201773 0
M  V30 19 C 2.217689 0.005984 3.934432 0
M  V30 20 C 2.424040 0.046114 5.296522 0
M  V30 21 C 2.372090 1.235007 5.993984 0
M  V30 22 C 2.107438 2.396158 5.299274 0
M  V30 23 C 1.908619 2.300663 3.937598 0
M  V30 24 C -1.094143 -0.484651 -0.863677 0
M  V30 25 C -2.247191 -1.196570 -0.613564 0
M  V30 26 C -2.172575 -2.506212 -0.190256 0
M  V30 27 N -3.066323 -3.459758 0.133829 0
M  V30 28 H -2.363247 -6.561770 1.295952 0
M  V30 29 H -3.605172 -6.345034 0.022017 0
M  V30 30 H -3.898270 -5.675573 1.663510 0
M  V30 31 H -0.284702 -5.115167 0.623854 0
M  V30 32 H 1.149726 -2.811051 -0.147121 0
M  V30 33 H 2.274946 -0.827972 -0.815153 0
M  V30 34 H 0.660007 2.625799 -4.273894 0
M  V30 35 H 1.058059 4.228265 -0.491963 0
M  V30 36 H 1.438156 2.943323 1.475843 0
M  V30 37 H 1.806025 0.087187 1.310321 0
M  V30 38 H 2.269471 -0.966890 3.423250 0
M  V30 39 H 2.631848 -0.873010 5.835682 0
M  V30 40 H 2.533034 1.275271 7.064108 0
M  V30 41 H 2.062557 3.338643 5.828364 0
M  V30 42 H 1.706436 3.237489 3.449904 0
M  V30 43 H -1.169761 0.559823 -1.200999 0
M  V30 44 H -3.224865 -0.728987 -0.748756 0
M  V30 45 H -4.102673 -3.327318 0.108262 0
M  V30 END ATOM
M  V30 BEGIN BOND
M  V30 1 1 1 2
M  V30 2 2 2 3
M  V30 3 1 3 4
M  V30 4 2 4 5
M  V30 5 1 5 6
M  V30 6 1 6 7
M  V30 7 1 7 8
M  V30 8 2 8 9
M  V30 9 1 9 10
M  V30 10 3 10 11
M  V30 11 1 9 12
M  V30 12 2 12 13
M  V30 13 1 13 14
M  V30 14 2 14 15
M  V30 15 1 15 16
M  V30 16 2 16 17
M  V30 17 1 17 18
M  V30 18 2 18 19
M  V30 19 1 19 20
M  V30 20 2 20 21
M  V30 21 1 21 22
M  V30 22 2 22 23
M  V30 23 2 6 24
M  V30 24 1 24 25
M  V30 25 2 25 26
M  V30 26 1 26 27
M  V30 27 1 27 2
M  V30 28 1 26 4
M  V30 29 1 15 8
M  V30 30 1 23 18
M  V30 31 1 1 28
M  V30 32 1 1 29
M  V30 33 1 1 30
M  V30 34 1 3 31
M  V30 35 1 5 32
M  V30 36 1 7 33
M  V30 37 1 12 34
M  V30 38 1 14 35
M  V30 39 1 16 36
M  V30 40 1 17 37
M  V30 41 1 19 38
M  V30 42 1 20 39
M  V30 43 1 21 40
M  V30 44 1 22 41
M  V30 45 1 23 42
M  V30 46 1 24 43
M  V30 47 1 25 44
M  V30 48 1 27 45
M  V30 END BOND
M  V30 END CTAB
M  END
>  <Dataset>  (579) 
ChEMBL_Kinases

>  <Ligand_Instance>  (579) 
nan

>  <PDB_ID>  (579) 
nan

>  <Standardized_SMILES>  (579) 
Cc1cc2cc(Nc3c(C#N)cncc3/C=C/c3ccccc3)ccc2[nH]1

>  <Name>  (579) 
nan

>  <Pocket>  (579) 
nan

>  <ATP_Site>  (579) 
nan

>  <Peripheral>  (579) 
nan

>  <Num_H_Atoms_ProtBoundConf>  (579) 
nan

>  <Num_Resolved_Atoms>  (579) 
nan

>  <Num_Not_Resolved_Atoms>  (579) 
nan

$$$$
CHEMBL3716337
     RDKit          3D

  0  0  0  0  0  0  0  0  0  0999 V3000
M  V30 BEGIN CTAB
M  V30 COUNTS 32 33 0 0 0
M  V30 BEGIN ATOM
M  V30 1 C -0.696583 -4.258249 4.495377 0
M  V30 2 O -1.273411 -3.659635 3.346365 0
M  V30 3 C -0.563291 -2.739779 2.606850 0
M  V30 4 C 0.718860 -2.386329 2.972809 0
M  V30 5 C 1.520877 -1.480112 2.310395 0
M  V30 6 C 0.984397 -0.869786 1.170861 0
M  V30 7 C 1.767745 0.099096 0.410601 0
M  V30 8 N 3.021806 0.486925 0.711472 0
M  V30 9 N 3.440113 1.373410 -0.178647 0
M  V30 10 C 2.452723 1.571729 -1.074295 0
M  V30 11 S 2.418754 2.658297 -2.518311 0
M  V30 12 C 0.783773 2.447363 -3.299292 0
M  V30 13 C -0.295698 2.954483 -2.402917 0
M  V30 14 O -0.529387 4.194888 -2.592392 0
M  V30 15 O -1.291351 3.065730 -1.455001 0
M  V30 16 N 1.409716 0.772237 -0.700741 0
M  V30 17 C -0.305224 -1.186518 0.752301 0
M  V30 18 C -1.070796 -2.114275 1.466208 0
M  V30 19 C -2.454100 -2.489398 1.064435 0
M  V30 20 H 0.226230 -4.787981 4.213770 0
M  V30 21 H -1.414370 -4.988642 4.929424 0
M  V30 22 H -0.449223 -3.521235 5.287149 0
M  V30 23 H 1.217203 -2.815532 3.851155 0
M  V30 24 H 2.507439 -1.214957 2.603243 0
M  V30 25 H 0.630038 1.340556 -3.359986 0
M  V30 26 H 0.738256 2.900531 -4.290592 0
M  V30 27 H -1.133316 3.084201 -0.464847 0
M  V30 28 H 0.473579 0.650902 -1.145046 0
M  V30 29 H -0.726082 -0.719679 -0.127887 0
M  V30 30 H -3.207374 -2.057239 1.754942 0
M  V30 31 H -2.682806 -2.060596 0.050755 0
M  V30 32 H -2.520609 -3.594707 1.019216 0
M  V30 END ATOM
M  V30 BEGIN BOND
M  V30 1 1 1 2
M  V30 2 1 2 3
M  V30 3 2 3 4
M  V30 4 1 4 5
M  V30 5 2 5 6
M  V30 6 1 6 7
M  V30 7 2 7 8
M  V30 8 1 8 9
M  V30 9 2 9 10
M  V30 10 1 10 11
M  V30 11 1 11 12
M  V30 12 1 12 13
M  V30 13 2 13 14
M  V30 14 1 13 15
M  V30 15 1 10 16
M  V30 16 1 6 17
M  V30 17 2 17 18
M  V30 18 1 18 19
M  V30 19 1 18 3
M  V30 20 1 16 7
M  V30 21 1 1 20
M  V30 22 1 1 21
M  V30 23 1 1 22
M  V30 24 1 4 23
M  V30 25 1 5 24
M  V30 26 1 12 25
M  V30 27 1 12 26
M  V30 28 1 15 27
M  V30 29 1 16 28
M  V30 30 1 17 29
M  V30 31 1 19 30
M  V30 32 1 19 31
M  V30 33 1 19 32
M  V30 END BOND
M  V30 END CTAB
M  END
>  <Dataset>  (580) 
ChEMBL_Kinases

>  <Ligand_Instance>  (580) 
nan

>  <PDB_ID>  (580) 
nan

>  <Standardized_SMILES>  (580) 
COc1ccc(-c2nnc(SCC(=O)O)[nH]2)cc1C

>  <Name>  (580) 
nan

>  <Pocket>  (580) 
nan

>  <ATP_Site>  (580) 
nan

>  <Peripheral>  (580) 
nan

>  <Num_H_Atoms_ProtBoundConf>  (580) 
nan

>  <Num_Resolved_Atoms>  (580) 
nan

>  <Num_Not_Resolved_Atoms>  (580) 
nan

$$$$
CHEMBL3715546
     RDKit          3D

  0  0  0  0  0  0  0  0  0  0999 V3000
M  V30 BEGIN CTAB
M  V30 COUNTS 55 58 0 0 0
M  V30 BEGIN ATOM
M  V30 1 O -1.058383 -1.681264 1.870300 0
M  V30 2 C 0.184217 -1.906216 1.823808 0
M  V30 3 C 1.430960 -1.111111 1.685757 0
M  V30 4 C 1.137858 0.370274 1.574043 0
M  V30 5 N 2.394309 1.122293 1.438275 0
M  V30 6 C 2.660147 1.834563 0.242843 0
M  V30 7 O 1.815515 1.814144 -0.688952 0
M  V30 8 C 3.899878 2.611834 0.034267 0
M  V30 9 C 4.020835 3.252714 -1.186334 0
M  V30 10 C 5.143225 4.017441 -1.504385 0
M  V30 11 C 6.137637 4.102983 -0.528568 0
M  V30 12 C 6.017999 3.465598 0.686150 0
M  V30 13 C 4.881084 2.709388 0.969033 0
M  V30 14 C 0.328743 0.873251 2.684666 0
M  V30 15 C 1.068260 1.058182 3.842459 0
M  V30 16 C 0.480599 1.533651 5.012478 0
M  V30 17 C -0.881466 1.843160 5.062804 0
M  V30 18 C -1.585898 1.643371 3.880089 0
M  V30 19 C -1.015668 1.178889 2.734315 0
M  V30 20 N 0.389527 -3.314867 1.938963 0
M  V30 21 C -0.791521 -4.143143 2.075226 0
M  V30 22 C -1.618212 -3.918885 0.848574 0
M  V30 23 O -1.530237 -3.223338 -0.204784 0
M  V30 24 N -2.854185 -4.658562 0.783611 0
M  V30 25 C -3.553460 -4.338676 -0.468299 0
M  V30 26 N -3.544132 -4.783323 -1.523729 0
M  V30 27 C -4.184203 -4.469185 -2.619763 0
M  V30 28 C -4.188524 -4.987897 -3.896341 0
M  V30 29 C -4.962761 -4.467321 -4.880876 0
M  V30 30 C -5.808551 -3.390900 -4.719023 0
M  V30 31 C -5.914877 -2.763413 -3.499262 0
M  V30 32 C -5.059394 -3.371225 -2.490959 0
M  V30 33 S -4.822930 -2.907238 -0.673756 0
M  V30 34 H 2.047714 -1.223991 2.613923 0
M  V30 35 H 2.053839 -1.468517 0.844131 0
M  V30 36 H 0.592275 0.526167 0.623547 0
M  V30 37 H 3.082697 1.131384 2.213492 0
M  V30 38 H 3.288898 3.234084 -1.998673 0
M  V30 39 H 5.260069 4.530546 -2.458229 0
M  V30 40 H 7.014325 4.692292 -0.760004 0
M  V30 41 H 6.803401 3.551367 1.418182 0
M  V30 42 H 4.785113 2.211211 1.915784 0
M  V30 43 H 2.123913 0.875162 3.994839 0
M  V30 44 H 0.997553 1.700287 5.947202 0
M  V30 45 H -1.398755 2.212970 5.928656 0
M  V30 46 H -2.656189 1.875473 3.882048 0
M  V30 47 H -1.529603 1.013752 1.798156 0
M  V30 48 H 1.358488 -3.747713 1.926722 0
M  V30 49 H -0.466191 -5.202044 2.040396 0
M  V30 50 H -1.342528 -3.944515 2.992209 0
M  V30 51 H -3.232286 -5.325221 1.488529 0
M  V30 52 H -3.575131 -5.831250 -4.166620 0
M  V30 53 H -4.959698 -4.888685 -5.898970 0
M  V30 54 H -6.455946 -2.912014 -5.436089 0
M  V30 55 H -6.463271 -1.946854 -3.104614 0
M  V30 END ATOM
M  V30 BEGIN BOND
M  V30 1 2 1 2
M  V30 2 1 2 3
M  V30 3 1 3 4
M  V30 4 1 4 5
M  V30 5 1 5 6
M  V30 6 2 6 7
M  V30 7 1 6 8
M  V30 8 2 8 9
M  V30 9 1 9 10
M  V30 10 2 10 11
M  V30 11 1 11 12
M  V30 12 2 12 13
M  V30 13 1 4 14
M  V30 14 2 14 15
M  V30 15 1 15 16
M  V30 16 2 16 17
M  V30 17 1 17 18
M  V30 18 2 18 19
M  V30 19 1 2 20
M  V30 20 1 20 21
M  V30 21 1 21 22
M  V30 22 2 22 23
M  V30 23 1 22 24
M  V30 24 1 24 25
M  V30 25 2 25 26
M  V30 26 1 26 27
M  V30 27 2 27 28
M  V30 28 1 28 29
M  V30 29 2 29 30
M  V30 30 1 30 31
M  V30 31 2 31 32
M  V30 32 1 32 33
M  V30 33 1 13 8
M  V30 34 1 19 14
M  V30 35 1 33 25
M  V30 36 1 32 27
M  V30 37 1 3 34
M  V30 38 1 3 35
M  V30 39 1 4 36
M  V30 40 1 5 37
M  V30 41 1 9 38
M  V30 42 1 10 39
M  V30 43 1 11 40
M  V30 44 1 12 41
M  V30 45 1 13 42
M  V30 46 1 15 43
M  V30 47 1 16 44
M  V30 48 1 17 45
M  V30 49 1 18 46
M  V30 50 1 19 47
M  V30 51 1 20 48
M  V30 52 1 21 49
M  V30 53 1 21 50
M  V30 54 1 24 51
M  V30 55 1 28 52
M  V30 56 1 29 53
M  V30 57 1 30 54
M  V30 58 1 31 55
M  V30 END BOND
M  V30 END CTAB
M  END
>  <Dataset>  (581) 
ChEMBL_Kinases

>  <Ligand_Instance>  (581) 
nan

>  <PDB_ID>  (581) 
nan

>  <Standardized_SMILES>  (581) 
O=C(CC(NC(=O)c1ccccc1)c1ccccc1)NCC(=O)Nc1nc2ccccc2s1

>  <Name>  (581) 
nan

>  <Pocket>  (581) 
nan

>  <ATP_Site>  (581) 
nan

>  <Peripheral>  (581) 
nan

>  <Num_H_Atoms_ProtBoundConf>  (581) 
nan

>  <Num_Resolved_Atoms>  (581) 
nan

>  <Num_Not_Resolved_Atoms>  (581) 
nan

$$$$
CHEMBL3715542
     RDKit          3D

  0  0  0  0  0  0  0  0  0  0999 V3000
M  V30 BEGIN CTAB
M  V30 COUNTS 51 54 0 0 0
M  V30 BEGIN ATOM
M  V30 1 O 2.311859 0.159153 2.988846 0
M  V30 2 C 1.207410 -0.341353 2.594255 0
M  V30 3 N 1.263940 -1.621065 1.996316 0
M  V30 4 C 2.468043 -2.391723 1.812137 0
M  V30 5 C 3.460570 -1.644122 0.950959 0
M  V30 6 C 2.944046 -1.327254 -0.415718 0
M  V30 7 C 3.892157 -0.309855 -1.049354 0
M  V30 8 C 5.288214 -0.554069 -0.579224 0
M  V30 9 N 5.484860 -1.944575 -0.311968 0
M  V30 10 C 4.720590 -2.468742 0.782817 0
M  V30 11 C -0.041845 0.435483 2.785218 0
M  V30 12 C -0.088376 1.118717 3.976026 0
M  V30 13 C -1.276798 1.836654 4.148527 0
M  V30 14 C -2.288047 1.835813 3.189607 0
M  V30 15 O -3.458138 2.557300 3.384922 0
M  V30 16 C -2.104088 1.089976 2.014477 0
M  V30 17 N -2.971149 0.976268 0.991739 0
M  V30 18 C -2.349178 0.156483 0.100048 0
M  V30 19 C -2.748459 -0.386710 -1.216051 0
M  V30 20 C -4.178216 -0.039882 -1.481250 0
M  V30 21 C -4.949084 -1.027930 -0.643276 0
M  V30 22 C -4.107927 -2.260316 -0.601195 0
M  V30 23 C -2.776907 -1.913493 -1.204704 0
M  V30 24 N -1.132696 -0.215994 0.574828 0
M  V30 25 C -0.944203 0.341948 1.759772 0
M  V30 26 H 0.326801 -1.987071 1.680157 0
M  V30 27 H 2.225428 -3.318643 1.264809 0
M  V30 28 H 2.938937 -2.584754 2.797055 0
M  V30 29 H 3.796073 -0.684469 1.404061 0
M  V30 30 H 1.949125 -0.862544 -0.445479 0
M  V30 31 H 2.966681 -2.255530 -1.044761 0
M  V30 32 H 3.551491 0.713797 -0.785052 0
M  V30 33 H 3.781506 -0.397256 -2.155887 0
M  V30 34 H 5.434501 0.021140 0.355734 0
M  V30 35 H 6.035139 -0.257076 -1.345379 0
M  V30 36 H 5.416439 -2.523095 -1.165406 0
M  V30 37 H 4.414712 -3.500738 0.579420 0
M  V30 38 H 5.276530 -2.376401 1.742849 0
M  V30 39 H 0.715464 1.093659 4.692283 0
M  V30 40 H -1.403181 2.408901 5.063660 0
M  V30 41 H -3.636833 3.416061 2.842711 0
M  V30 42 H -3.906998 1.378749 0.825423 0
M  V30 43 H -2.031268 -0.036528 -2.002373 0
M  V30 44 H -4.426881 1.013880 -1.213711 0
M  V30 45 H -4.402479 -0.237581 -2.561752 0
M  V30 46 H -5.944835 -1.250463 -1.098769 0
M  V30 47 H -5.102810 -0.611341 0.382280 0
M  V30 48 H -4.614504 -3.074387 -1.187470 0
M  V30 49 H -3.986248 -2.671630 0.425196 0
M  V30 50 H -2.803502 -2.253517 -2.250232 0
M  V30 51 H -1.948158 -2.350580 -0.622459 0
M  V30 END ATOM
M  V30 BEGIN BOND
M  V30 1 2 1 2
M  V30 2 1 2 3
M  V30 3 1 3 4
M  V30 4 1 4 5
M  V30 5 1 5 6
M  V30 6 1 6 7
M  V30 7 1 7 8
M  V30 8 1 8 9
M  V30 9 1 9 10
M  V30 10 1 2 11
M  V30 11 2 11 12
M  V30 12 1 12 13
M  V30 13 2 13 14
M  V30 14 1 14 15
M  V30 15 1 14 16
M  V30 16 1 16 17
M  V30 17 1 17 18
M  V30 18 1 18 19
M  V30 19 1 19 20
M  V30 20 1 20 21
M  V30 21 1 21 22
M  V30 22 1 22 23
M  V30 23 2 18 24
M  V30 24 1 24 25
M  V30 25 1 10 5
M  V30 26 1 25 11
M  V30 27 2 25 16
M  V30 28 1 23 19
M  V30 29 1 3 26
M  V30 30 1 4 27
M  V30 31 1 4 28
M  V30 32 1 5 29
M  V30 33 1 6 30
M  V30 34 1 6 31
M  V30 35 1 7 32
M  V30 36 1 7 33
M  V30 37 1 8 34
M  V30 38 1 8 35
M  V30 39 1 9 36
M  V30 40 1 10 37
M  V30 41 1 10 38
M  V30 42 1 12 39
M  V30 43 1 13 40
M  V30 44 1 15 41
M  V30 45 1 17 42
M  V30 46 1 19 43
M  V30 47 1 20 44
M  V30 48 1 20 45
M  V30 49 1 21 46
M  V30 50 1 21 47
M  V30 51 1 22 48
M  V30 52 1 22 49
M  V30 53 1 23 50
M  V30 54 1 23 51
M  V30 END BOND
M  V30 END CTAB
M  END
>  <Dataset>  (582) 
ChEMBL_Kinases

>  <Ligand_Instance>  (582) 
nan

>  <PDB_ID>  (582) 
nan

>  <Standardized_SMILES>  (582) 
O=C(NCC1CCCNC1)c1ccc(O)c2[nH]c(C3CCCC3)nc12

>  <Name>  (582) 
nan

>  <Pocket>  (582) 
nan

>  <ATP_Site>  (582) 
nan

>  <Peripheral>  (582) 
nan

>  <Num_H_Atoms_ProtBoundConf>  (582) 
nan

>  <Num_Resolved_Atoms>  (582) 
nan

>  <Num_Not_Resolved_Atoms>  (582) 
nan

$$$$
CHEMBL3715533
     RDKit          3D

  0  0  0  0  0  0  0  0  0  0999 V3000
M  V30 BEGIN CTAB
M  V30 COUNTS 56 60 0 0 0
M  V30 BEGIN ATOM
M  V30 1 O 3.891773 0.327561 -1.089383 0
M  V30 2 C 3.175252 1.108553 -0.419665 0
M  V30 3 N 3.296957 0.848848 0.994343 0
M  V30 4 C 4.023538 -0.070161 1.864927 0 CFG=1
M  V30 5 C 4.986971 0.810742 2.667832 0
M  V30 6 C 5.434814 0.150825 3.942873 0
M  V30 7 C 4.311538 -0.354788 4.798695 0
M  V30 8 N 3.051090 -0.374249 4.116966 0
M  V30 9 C 3.109966 -0.858896 2.764958 0
M  V30 10 C 2.260438 2.199302 -0.668255 0
M  V30 11 C 2.712431 3.488300 -0.828894 0
M  V30 12 C 2.003005 4.651727 -1.050916 0
M  V30 13 N 0.670638 4.429244 -1.110254 0
M  V30 14 C 0.098971 3.222974 -0.971077 0
M  V30 15 N -1.163533 2.729238 -0.981850 0
M  V30 16 C -1.166371 1.422560 -0.785957 0
M  V30 17 C -2.358577 0.524150 -0.755137 0
M  V30 18 C -3.661000 0.848434 -0.807931 0
M  V30 19 C -4.574092 -0.129640 -0.790491 0
M  V30 20 C -4.155051 -1.443098 -0.718139 0
M  V30 21 N -4.556139 -2.834202 -0.656879 0
M  V30 22 C -4.483766 -3.757593 0.428447 0
M  V30 23 C -3.759301 -5.034476 0.032954 0
M  V30 24 C -3.177908 -4.894817 -1.352789 0
M  V30 25 C -4.299004 -4.625665 -2.308195 0
M  V30 26 O -5.062624 -5.805476 -2.406647 0
M  V30 27 C -5.126264 -3.458331 -1.803542 0
M  V30 28 S -2.320556 -1.190936 -0.675365 0
M  V30 29 N 0.112530 0.966398 -0.632094 0
M  V30 30 C 0.885774 2.089513 -0.748084 0
M  V30 31 H 2.764243 1.395625 1.726822 0
M  V30 32 H 4.653070 -0.791082 1.297337 0
M  V30 33 H 5.908234 1.017719 2.076271 0
M  V30 34 H 4.512934 1.776777 2.924095 0
M  V30 35 H 5.982603 0.958161 4.515613 0
M  V30 36 H 6.215387 -0.634321 3.788019 0
M  V30 37 H 4.584947 -1.379665 5.164176 0
M  V30 38 H 4.202934 0.276137 5.705363 0
M  V30 39 H 2.583625 0.543136 4.125623 0
M  V30 40 H 3.315682 -1.959652 2.723142 0
M  V30 41 H 2.078085 -0.745113 2.352610 0
M  V30 42 H 3.804857 3.623767 -0.770710 0
M  V30 43 H 2.470899 5.610375 -1.164233 0
M  V30 44 H -4.027762 1.866548 -0.864517 0
M  V30 45 H -5.653582 -0.131934 -0.820022 0
M  V30 46 H -5.532079 -4.065853 0.688678 0
M  V30 47 H -4.002616 -3.370942 1.328732 0
M  V30 48 H -2.954090 -5.302748 0.760942 0
M  V30 49 H -4.449640 -5.922724 0.022379 0
M  V30 50 H -2.687970 -5.859702 -1.651790 0
M  V30 51 H -2.405085 -4.096254 -1.354116 0
M  V30 52 H -3.930003 -4.430568 -3.348516 0
M  V30 53 H -6.021382 -5.519354 -2.518248 0
M  V30 54 H -5.285415 -2.776763 -2.657858 0
M  V30 55 H -6.119105 -3.886169 -1.511309 0
M  V30 56 H 0.453230 0.012693 -0.466088 0
M  V30 END ATOM
M  V30 BEGIN BOND
M  V30 1 2 1 2
M  V30 2 1 2 3
M  V30 3 1 3 4
M  V30 4 1 4 5
M  V30 5 1 5 6
M  V30 6 1 6 7
M  V30 7 1 7 8
M  V30 8 1 8 9
M  V30 9 1 2 10
M  V30 10 2 10 11
M  V30 11 1 11 12
M  V30 12 2 12 13
M  V30 13 1 13 14
M  V30 14 1 14 15
M  V30 15 2 15 16
M  V30 16 1 16 17
M  V30 17 2 17 18
M  V30 18 1 18 19
M  V30 19 2 19 20
M  V30 20 1 20 21
M  V30 21 1 21 22
M  V30 22 1 22 23
M  V30 23 1 23 24
M  V30 24 1 24 25
M  V30 25 1 25 26
M  V30 26 1 25 27
M  V30 27 1 20 28
M  V30 28 1 16 29
M  V30 29 1 29 30
M  V30 30 1 9 4
M  V30 31 1 30 10
M  V30 32 2 30 14
M  V30 33 1 28 17
M  V30 34 1 27 21
M  V30 35 1 3 31
M  V30 36 1 4 32 CFG=3
M  V30 37 1 5 33
M  V30 38 1 5 34
M  V30 39 1 6 35
M  V30 40 1 6 36
M  V30 41 1 7 37
M  V30 42 1 7 38
M  V30 43 1 8 39
M  V30 44 1 9 40
M  V30 45 1 9 41
M  V30 46 1 11 42
M  V30 47 1 12 43
M  V30 48 1 18 44
M  V30 49 1 19 45
M  V30 50 1 22 46
M  V30 51 1 22 47
M  V30 52 1 23 48
M  V30 53 1 23 49
M  V30 54 1 24 50
M  V30 55 1 24 51
M  V30 56 1 25 52
M  V30 57 1 26 53
M  V30 58 1 27 54
M  V30 59 1 27 55
M  V30 60 1 29 56
M  V30 END BOND
M  V30 END CTAB
M  END
>  <Dataset>  (583) 
ChEMBL_Kinases

>  <Ligand_Instance>  (583) 
nan

>  <PDB_ID>  (583) 
nan

>  <Standardized_SMILES>  (583) 
O=C(N[C@H]1CCCNC1)c1ccnc2nc(-c3ccc(N4CCCC(O)C4)s3)[nH]c12

>  <Name>  (583) 
nan

>  <Pocket>  (583) 
nan

>  <ATP_Site>  (583) 
nan

>  <Peripheral>  (583) 
nan

>  <Num_H_Atoms_ProtBoundConf>  (583) 
nan

>  <Num_Resolved_Atoms>  (583) 
nan

>  <Num_Not_Resolved_Atoms>  (583) 
nan

$$$$
CHEMBL3715524
     RDKit          3D

  0  0  0  0  0  0  0  0  0  0999 V3000
M  V30 BEGIN CTAB
M  V30 COUNTS 26 27 0 0 0
M  V30 BEGIN ATOM
M  V30 1 O -0.657924 -3.614192 4.132477 0
M  V30 2 C -0.391152 -3.704458 2.903654 0
M  V30 3 O -1.461840 -3.636870 2.020727 0
M  V30 4 C 1.081804 -3.865273 2.783913 0
M  V30 5 S 1.635034 -4.009813 1.069187 0
M  V30 6 C 1.349970 -2.480542 0.185319 0
M  V30 7 N 1.653031 -2.296737 -1.112629 0
M  V30 8 N 1.315591 -1.057356 -1.463212 0
M  V30 9 C 0.791596 -0.428268 -0.396746 0
M  V30 10 C 0.325928 0.951265 -0.459176 0
M  V30 11 C 0.375876 1.707846 -1.616595 0
M  V30 12 C -0.052793 3.014562 -1.713969 0
M  V30 13 C -0.571486 3.635229 -0.596423 0
M  V30 14 C -0.647866 2.933240 0.588782 0
M  V30 15 F -1.161702 3.568964 1.668673 0
M  V30 16 C -0.203181 1.638263 0.611723 0
M  V30 17 O -0.316681 1.008567 1.840603 0
M  V30 18 N 0.813550 -1.296974 0.606786 0
M  V30 19 H -2.333822 -4.138249 2.232974 0
M  V30 20 H 1.556261 -2.932320 3.192842 0
M  V30 21 H 1.458019 -4.686062 3.397030 0
M  V30 22 H 0.781344 1.251996 -2.527807 0
M  V30 23 H 0.022879 3.536148 -2.664594 0
M  V30 24 H -0.887958 4.658700 -0.743890 0
M  V30 25 H -1.187156 0.649782 2.214958 0
M  V30 26 H 0.488633 -1.144376 1.563538 0
M  V30 END ATOM
M  V30 BEGIN BOND
M  V30 1 2 1 2
M  V30 2 1 2 3
M  V30 3 1 2 4
M  V30 4 1 4 5
M  V30 5 1 5 6
M  V30 6 2 6 7
M  V30 7 1 7 8
M  V30 8 2 8 9
M  V30 9 1 9 10
M  V30 10 2 10 11
M  V30 11 1 11 12
M  V30 12 2 12 13
M  V30 13 1 13 14
M  V30 14 1 14 15
M  V30 15 2 14 16
M  V30 16 1 16 17
M  V30 17 1 9 18
M  V30 18 1 18 6
M  V30 19 1 16 10
M  V30 20 1 3 19
M  V30 21 1 4 20
M  V30 22 1 4 21
M  V30 23 1 11 22
M  V30 24 1 12 23
M  V30 25 1 13 24
M  V30 26 1 17 25
M  V30 27 1 18 26
M  V30 END BOND
M  V30 END CTAB
M  END
>  <Dataset>  (584) 
ChEMBL_Kinases

>  <Ligand_Instance>  (584) 
nan

>  <PDB_ID>  (584) 
nan

>  <Standardized_SMILES>  (584) 
O=C(O)CSc1nnc(-c2cccc(F)c2O)[nH]1

>  <Name>  (584) 
nan

>  <Pocket>  (584) 
nan

>  <ATP_Site>  (584) 
nan

>  <Peripheral>  (584) 
nan

>  <Num_H_Atoms_ProtBoundConf>  (584) 
nan

>  <Num_Resolved_Atoms>  (584) 
nan

>  <Num_Not_Resolved_Atoms>  (584) 
nan

$$$$
CHEMBL3715521
     RDKit          3D

  0  0  0  0  0  0  0  0  0  0999 V3000
M  V30 BEGIN CTAB
M  V30 COUNTS 41 44 0 0 0
M  V30 BEGIN ATOM
M  V30 1 O -1.858058 0.472554 1.254912 0
M  V30 2 C -1.245725 -0.528595 1.982379 0
M  V30 3 C -0.137470 -1.205857 1.522679 0
M  V30 4 C 0.432716 -0.856773 0.191117 0
M  V30 5 N 1.418187 -1.799357 -0.244310 0
M  V30 6 C 1.852752 -1.461895 -1.565333 0
M  V30 7 C 2.921155 -0.758922 -2.076079 0
M  V30 8 C 3.043892 -0.597597 -3.440771 0
M  V30 9 C 2.094888 -1.141424 -4.292503 0
M  V30 10 C 1.020454 -1.849447 -3.764216 0
M  V30 11 N 0.932487 -1.987544 -2.427344 0
M  V30 12 C 1.065153 0.495783 0.333910 0
M  V30 13 C 0.484455 1.607807 -0.243216 0
M  V30 14 C 1.133913 2.829537 -0.047320 0
M  V30 15 C 2.289699 2.825596 0.698713 0
M  V30 16 N 2.847818 1.751209 1.254295 0
M  V30 17 C 2.240675 0.556683 1.080492 0
M  V30 18 C 0.392382 -2.189977 2.336023 0
M  V30 19 C -0.192125 -2.461174 3.561764 0
M  V30 20 C -1.304776 -1.781210 4.023013 0
M  V30 21 C -1.891901 -2.056246 5.256448 0
M  V30 22 C -3.008282 -1.359642 5.695032 0
M  V30 23 C -3.502413 -0.375617 4.833096 0
M  V30 24 N -2.938354 -0.105264 3.638812 0
M  V30 25 C -1.845432 -0.789172 3.211859 0
M  V30 26 H -2.164979 0.219235 0.304766 0
M  V30 27 H -0.398700 -0.815330 -0.538317 0
M  V30 28 H 1.965167 -2.636329 -0.014245 0
M  V30 29 H 3.552850 -0.417744 -1.270496 0
M  V30 30 H 3.927824 -0.025766 -3.707385 0
M  V30 31 H 2.267648 -0.965543 -5.355779 0
M  V30 32 H 0.321092 -2.243779 -4.487342 0
M  V30 33 H -0.431745 1.549801 -0.824800 0
M  V30 34 H 0.689801 3.713557 -0.494971 0
M  V30 35 H 2.746819 3.795887 0.816597 0
M  V30 36 H 2.655042 -0.351359 1.511532 0
M  V30 37 H 1.261162 -2.733159 1.996911 0
M  V30 38 H 0.250702 -3.235975 4.168879 0
M  V30 39 H -1.460525 -2.833513 5.882179 0
M  V30 40 H -3.487003 -1.548334 6.646490 0
M  V30 41 H -4.388411 0.198845 5.147613 0
M  V30 END ATOM
M  V30 BEGIN BOND
M  V30 1 1 1 2
M  V30 2 2 2 3
M  V30 3 1 3 4
M  V30 4 1 4 5
M  V30 5 1 5 6
M  V30 6 2 6 7
M  V30 7 1 7 8
M  V30 8 2 8 9
M  V30 9 1 9 10
M  V30 10 2 10 11
M  V30 11 1 4 12
M  V30 12 2 12 13
M  V30 13 1 13 14
M  V30 14 2 14 15
M  V30 15 1 15 16
M  V30 16 2 16 17
M  V30 17 1 3 18
M  V30 18 2 18 19
M  V30 19 1 19 20
M  V30 20 2 20 21
M  V30 21 1 21 22
M  V30 22 2 22 23
M  V30 23 1 23 24
M  V30 24 2 24 25
M  V30 25 1 25 2
M  V30 26 1 11 6
M  V30 27 1 17 12
M  V30 28 1 25 20
M  V30 29 1 1 26
M  V30 30 1 4 27
M  V30 31 1 5 28
M  V30 32 1 7 29
M  V30 33 1 8 30
M  V30 34 1 9 31
M  V30 35 1 10 32
M  V30 36 1 13 33
M  V30 37 1 14 34
M  V30 38 1 15 35
M  V30 39 1 17 36
M  V30 40 1 18 37
M  V30 41 1 19 38
M  V30 42 1 21 39
M  V30 43 1 22 40
M  V30 44 1 23 41
M  V30 END BOND
M  V30 END CTAB
M  END
>  <Dataset>  (585) 
ChEMBL_Kinases

>  <Ligand_Instance>  (585) 
nan

>  <PDB_ID>  (585) 
nan

>  <Standardized_SMILES>  (585) 
Oc1c(C(Nc2ccccn2)c2cccnc2)ccc2cccnc12

>  <Name>  (585) 
nan

>  <Pocket>  (585) 
nan

>  <ATP_Site>  (585) 
nan

>  <Peripheral>  (585) 
nan

>  <Num_H_Atoms_ProtBoundConf>  (585) 
nan

>  <Num_Resolved_Atoms>  (585) 
nan

>  <Num_Not_Resolved_Atoms>  (585) 
nan

$$$$
CHEMBL3715508
     RDKit          3D

  0  0  0  0  0  0  0  0  0  0999 V3000
M  V30 BEGIN CTAB
M  V30 COUNTS 43 46 0 0 0
M  V30 BEGIN ATOM
M  V30 1 O 3.058182 -0.701881 2.710794 0
M  V30 2 C 1.825266 -0.669837 2.846128 0
M  V30 3 N 0.915213 -1.674717 2.417269 0
M  V30 4 C 1.346792 -2.887820 1.750745 0
M  V30 5 C 2.045758 -2.491102 0.470445 0
M  V30 6 C 1.085413 -1.720553 -0.415587 0
M  V30 7 C 0.661120 -2.539788 -1.604502 0
M  V30 8 C 1.866299 -2.819756 -2.472919 0
M  V30 9 N 3.011269 -3.115657 -1.609663 0
M  V30 10 C 2.571519 -3.654637 -0.313136 0
M  V30 11 C 1.382482 0.563524 3.519418 0
M  V30 12 C 1.899580 1.158758 4.656465 0
M  V30 13 C 1.301779 2.323478 5.080135 0
M  V30 14 N 0.260135 2.898793 4.452347 0
M  V30 15 C -0.295328 2.360119 3.324486 0
M  V30 16 N -1.309916 2.716058 2.515800 0
M  V30 17 C -1.375963 1.779012 1.559065 0
M  V30 18 C -2.321332 1.757897 0.483919 0
M  V30 19 C -2.443803 0.842727 -0.521714 0
M  V30 20 C -3.423858 0.995972 -1.475138 0
M  V30 21 C -4.254770 2.140050 -1.323106 0
M  V30 22 S -3.574553 2.947754 0.205697 0
M  V30 23 N -0.428904 0.880596 1.782665 0
M  V30 24 C 0.299393 1.184682 2.889216 0
M  V30 25 H -0.084648 -1.475343 2.620272 0
M  V30 26 H 2.056864 -3.448888 2.364489 0
M  V30 27 H 0.500983 -3.526865 1.486663 0
M  V30 28 H 2.909621 -1.856505 0.729527 0
M  V30 29 H 0.151669 -1.503569 0.172257 0
M  V30 30 H 1.485182 -0.743783 -0.745760 0
M  V30 31 H -0.057521 -1.950857 -2.208321 0
M  V30 32 H 0.159148 -3.465080 -1.314323 0
M  V30 33 H 1.678856 -3.677873 -3.137962 0
M  V30 34 H 2.091875 -1.940818 -3.128173 0
M  V30 35 H 3.423806 -2.174281 -1.395760 0
M  V30 36 H 3.517100 -4.072792 0.127834 0
M  V30 37 H 1.866544 -4.470732 -0.480029 0
M  V30 38 H 2.719396 0.612981 5.057902 0
M  V30 39 H 1.747966 2.743670 5.984008 0
M  V30 40 H -1.911715 3.579483 2.653482 0
M  V30 41 H -1.758561 -0.014669 -0.568924 0
M  V30 42 H -3.584223 0.321158 -2.303980 0
M  V30 43 H -5.039149 2.411708 -1.953243 0
M  V30 END ATOM
M  V30 BEGIN BOND
M  V30 1 2 1 2
M  V30 2 1 2 3
M  V30 3 1 3 4
M  V30 4 1 4 5
M  V30 5 1 5 6
M  V30 6 1 6 7
M  V30 7 1 7 8
M  V30 8 1 8 9
M  V30 9 1 9 10
M  V30 10 1 2 11
M  V30 11 2 11 12
M  V30 12 1 12 13
M  V30 13 2 13 14
M  V30 14 1 14 15
M  V30 15 1 15 16
M  V30 16 1 16 17
M  V30 17 1 17 18
M  V30 18 2 18 19
M  V30 19 1 19 20
M  V30 20 2 20 21
M  V30 21 1 21 22
M  V30 22 2 17 23
M  V30 23 1 23 24
M  V30 24 1 10 5
M  V30 25 1 24 11
M  V30 26 2 24 15
M  V30 27 1 22 18
M  V30 28 1 3 25
M  V30 29 1 4 26
M  V30 30 1 4 27
M  V30 31 1 5 28
M  V30 32 1 6 29
M  V30 33 1 6 30
M  V30 34 1 7 31
M  V30 35 1 7 32
M  V30 36 1 8 33
M  V30 37 1 8 34
M  V30 38 1 9 35
M  V30 39 1 10 36
M  V30 40 1 10 37
M  V30 41 1 12 38
M  V30 42 1 13 39
M  V30 43 1 16 40
M  V30 44 1 19 41
M  V30 45 1 20 42
M  V30 46 1 21 43
M  V30 END BOND
M  V30 END CTAB
M  END
>  <Dataset>  (586) 
ChEMBL_Kinases

>  <Ligand_Instance>  (586) 
nan

>  <PDB_ID>  (586) 
nan

>  <Standardized_SMILES>  (586) 
O=C(NCC1CCCNC1)c1ccnc2[nH]c(-c3cccs3)nc12

>  <Name>  (586) 
nan

>  <Pocket>  (586) 
nan

>  <ATP_Site>  (586) 
nan

>  <Peripheral>  (586) 
nan

>  <Num_H_Atoms_ProtBoundConf>  (586) 
nan

>  <Num_Resolved_Atoms>  (586) 
nan

>  <Num_Not_Resolved_Atoms>  (586) 
nan

$$$$
CHEMBL3715494
     RDKit          3D

  0  0  0  0  0  0  0  0  0  0999 V3000
M  V30 BEGIN CTAB
M  V30 COUNTS 43 46 0 0 0
M  V30 BEGIN ATOM
M  V30 1 O -3.125160 0.545652 -0.096826 0
M  V30 2 C -1.889867 0.568640 -0.142155 0
M  V30 3 N -1.190388 -0.671604 -0.053564 0
M  V30 4 C -1.744980 -2.011694 0.083106 0 CFG=1
M  V30 5 C -1.141681 -2.974729 -0.887432 0
M  V30 6 C -0.041937 -3.811607 -0.262538 0
M  V30 7 C -0.477605 -4.485100 1.006651 0
M  V30 8 N -1.636790 -3.841875 1.602096 0
M  V30 9 C -1.461878 -2.412511 1.526909 0
M  V30 10 C -0.938397 1.692167 -0.277842 0
M  V30 11 C -1.104431 2.623649 -1.300448 0
M  V30 12 C -0.221258 3.679940 -1.453104 0
M  V30 13 N 0.798158 3.769074 -0.577764 0
M  V30 14 C 0.954939 2.855672 0.419451 0
M  V30 15 N 1.903517 2.792317 1.367188 0
M  V30 16 C 1.658081 1.698858 2.153083 0
M  V30 17 C 2.538457 1.373663 3.272006 0
M  V30 18 C 3.676000 0.457952 2.894544 0
M  V30 19 C 3.242430 -0.915895 2.343460 0
M  V30 20 C 3.928619 0.110765 1.477345 0
M  V30 21 N 0.552822 1.091170 1.682373 0
M  V30 22 C 0.104181 1.780868 0.619984 0
M  V30 23 H -0.140379 -0.804397 -0.077319 0
M  V30 24 H -2.836379 -1.961013 -0.000109 0
M  V30 25 H -1.895449 -3.584018 -1.407842 0
M  V30 26 H -0.623793 -2.383698 -1.698966 0
M  V30 27 H 0.836720 -3.147686 -0.079270 0
M  V30 28 H 0.231133 -4.597181 -0.988887 0
M  V30 29 H 0.319915 -4.465418 1.780457 0
M  V30 30 H -0.748072 -5.547061 0.871688 0
M  V30 31 H -2.535901 -4.088567 1.118350 0
M  V30 32 H -2.193785 -1.941433 2.205949 0
M  V30 33 H -0.450793 -2.134804 1.819969 0
M  V30 34 H -1.928905 2.529066 -1.984152 0
M  V30 35 H -0.313469 4.428895 -2.235398 0
M  V30 36 H 2.911615 2.310055 3.724940 0
M  V30 37 H 1.980730 0.864687 4.110465 0
M  V30 38 H 4.554393 0.491156 3.571806 0
M  V30 39 H 3.825205 -1.781110 2.734835 0
M  V30 40 H 2.180351 -1.080922 2.122620 0
M  V30 41 H 4.964072 -0.166308 1.198272 0
M  V30 42 H 3.345371 0.533572 0.635262 0
M  V30 43 H 0.109554 0.231431 2.069599 0
M  V30 END ATOM
M  V30 BEGIN BOND
M  V30 1 2 1 2
M  V30 2 1 2 3
M  V30 3 1 3 4
M  V30 4 1 4 5
M  V30 5 1 5 6
M  V30 6 1 6 7
M  V30 7 1 7 8
M  V30 8 1 8 9
M  V30 9 1 2 10
M  V30 10 2 10 11
M  V30 11 1 11 12
M  V30 12 2 12 13
M  V30 13 1 13 14
M  V30 14 1 14 15
M  V30 15 2 15 16
M  V30 16 1 16 17
M  V30 17 1 17 18
M  V30 18 1 18 19
M  V30 19 1 19 20
M  V30 20 1 16 21
M  V30 21 1 21 22
M  V30 22 1 9 4
M  V30 23 1 22 10
M  V30 24 2 22 14
M  V30 25 1 20 18
M  V30 26 1 3 23
M  V30 27 1 4 24 CFG=1
M  V30 28 1 5 25
M  V30 29 1 5 26
M  V30 30 1 6 27
M  V30 31 1 6 28
M  V30 32 1 7 29
M  V30 33 1 7 30
M  V30 34 1 8 31
M  V30 35 1 9 32
M  V30 36 1 9 33
M  V30 37 1 11 34
M  V30 38 1 12 35
M  V30 39 1 17 36
M  V30 40 1 17 37
M  V30 41 1 18 38
M  V30 42 1 19 39
M  V30 43 1 19 40
M  V30 44 1 20 41
M  V30 45 1 20 42
M  V30 46 1 21 43
M  V30 END BOND
M  V30 END CTAB
M  END
>  <Dataset>  (587) 
ChEMBL_Kinases

>  <Ligand_Instance>  (587) 
nan

>  <PDB_ID>  (587) 
nan

>  <Standardized_SMILES>  (587) 
O=C(N[C@H]1CCCNC1)c1ccnc2nc(CC3CC3)[nH]c12

>  <Name>  (587) 
nan

>  <Pocket>  (587) 
nan

>  <ATP_Site>  (587) 
nan

>  <Peripheral>  (587) 
nan

>  <Num_H_Atoms_ProtBoundConf>  (587) 
nan

>  <Num_Resolved_Atoms>  (587) 
nan

>  <Num_Not_Resolved_Atoms>  (587) 
nan

$$$$
CHEMBL3715441
     RDKit          3D

  0  0  0  0  0  0  0  0  0  0999 V3000
M  V30 BEGIN CTAB
M  V30 COUNTS 43 46 0 0 0
M  V30 BEGIN ATOM
M  V30 1 C 0.029702 -6.144527 1.728695 0
M  V30 2 O 0.293566 -4.909053 2.336243 0
M  V30 3 C 0.283642 -3.727944 1.616966 0
M  V30 4 C 0.011142 -3.728722 0.265359 0
M  V30 5 C 0.002947 -2.547795 -0.446156 0
M  V30 6 N -0.236550 -2.292423 -1.745532 0
M  V30 7 C -0.133587 -0.968738 -1.967655 0
M  V30 8 N -0.269390 -0.145490 -3.043087 0
M  V30 9 C -0.101733 1.187642 -2.931455 0
M  V30 10 N -0.274534 1.910822 -4.128693 0
M  V30 11 N 0.211502 1.742200 -1.723837 0
M  V30 12 C 0.356215 0.949124 -0.623934 0
M  V30 13 N 0.716703 1.734720 0.499802 0
M  V30 14 C 1.982147 1.856490 1.244478 0
M  V30 15 C 1.658303 2.579829 2.528956 0
M  V30 16 O 0.543802 2.046422 3.127917 0
M  V30 17 C -0.628847 2.169844 2.425753 0
M  V30 18 C -0.359134 2.574187 1.005967 0
M  V30 19 C 0.180358 -0.402546 -0.758337 0
M  V30 20 C 0.267274 -1.359331 0.188725 0
M  V30 21 C 0.536790 -1.346857 1.521543 0
M  V30 22 C 0.549541 -2.516867 2.249258 0
M  V30 23 O 0.819074 -2.591625 3.629753 0
M  V30 24 C 1.106680 -1.487045 4.430239 0
M  V30 25 H -0.148897 -6.951840 2.459020 0
M  V30 26 H -0.834983 -6.080675 1.014880 0
M  V30 27 H 0.919559 -6.402768 1.111065 0
M  V30 28 H -0.205266 -4.644753 -0.288375 0
M  V30 29 H -0.472259 -2.990786 -2.507105 0
M  V30 30 H 0.653306 1.838200 -4.613119 0
M  V30 31 H -1.138414 2.401575 -4.445333 0
M  V30 32 H 2.608983 2.588246 0.649210 0
M  V30 33 H 2.506114 0.910134 1.364100 0
M  V30 34 H 2.512442 2.410169 3.238578 0
M  V30 35 H 1.580386 3.686543 2.323211 0
M  V30 36 H -1.155219 1.196569 2.501784 0
M  V30 37 H -1.342034 2.898512 2.912321 0
M  V30 38 H -1.252320 2.597785 0.377213 0
M  V30 39 H 0.011286 3.636719 1.033334 0
M  V30 40 H 0.749949 -0.500931 2.144934 0
M  V30 41 H 0.760606 -1.752914 5.471915 0
M  V30 42 H 0.507298 -0.571516 4.179217 0
M  V30 43 H 2.168820 -1.229969 4.530973 0
M  V30 END ATOM
M  V30 BEGIN BOND
M  V30 1 1 1 2
M  V30 2 1 2 3
M  V30 3 2 3 4
M  V30 4 1 4 5
M  V30 5 1 5 6
M  V30 6 1 6 7
M  V30 7 2 7 8
M  V30 8 1 8 9
M  V30 9 1 9 10
M  V30 10 2 9 11
M  V30 11 1 11 12
M  V30 12 1 12 13
M  V30 13 1 13 14
M  V30 14 1 14 15
M  V30 15 1 15 16
M  V30 16 1 16 17
M  V30 17 1 17 18
M  V30 18 2 12 19
M  V30 19 1 19 20
M  V30 20 1 20 21
M  V30 21 2 21 22
M  V30 22 1 22 23
M  V30 23 1 23 24
M  V30 24 1 22 3
M  V30 25 2 20 5
M  V30 26 1 19 7
M  V30 27 1 18 13
M  V30 28 1 1 25
M  V30 29 1 1 26
M  V30 30 1 1 27
M  V30 31 1 4 28
M  V30 32 1 6 29
M  V30 33 1 10 30
M  V30 34 1 10 31
M  V30 35 1 14 32
M  V30 36 1 14 33
M  V30 37 1 15 34
M  V30 38 1 15 35
M  V30 39 1 17 36
M  V30 40 1 17 37
M  V30 41 1 18 38
M  V30 42 1 18 39
M  V30 43 1 21 40
M  V30 44 1 24 41
M  V30 45 1 24 42
M  V30 46 1 24 43
M  V30 END BOND
M  V30 END CTAB
M  END
>  <Dataset>  (588) 
ChEMBL_Kinases

>  <Ligand_Instance>  (588) 
nan

>  <PDB_ID>  (588) 
nan

>  <Standardized_SMILES>  (588) 
COc1cc2[nH]c3nc(N)nc(N4CCOCC4)c3c2cc1OC

>  <Name>  (588) 
nan

>  <Pocket>  (588) 
nan

>  <ATP_Site>  (588) 
nan

>  <Peripheral>  (588) 
nan

>  <Num_H_Atoms_ProtBoundConf>  (588) 
nan

>  <Num_Resolved_Atoms>  (588) 
nan

>  <Num_Not_Resolved_Atoms>  (588) 
nan

$$$$
CHEMBL3715431
     RDKit          3D

  0  0  0  0  0  0  0  0  0  0999 V3000
M  V30 BEGIN CTAB
M  V30 COUNTS 55 58 0 0 0
M  V30 BEGIN ATOM
M  V30 1 C 2.852540 -0.741429 4.150978 0
M  V30 2 C 3.749212 -1.005212 2.965683 0
M  V30 3 C 3.269682 -0.317441 1.753694 0
M  V30 4 O 2.224340 0.250808 2.146453 0
M  V30 5 N 3.738020 -0.219081 0.437351 0
M  V30 6 C 3.174712 0.484191 -0.646534 0
M  V30 7 C 1.997862 1.190576 -0.604266 0
M  V30 8 C 1.427035 1.891408 -1.647391 0
M  V30 9 N 0.190968 2.615901 -1.517953 0
M  V30 10 C -0.594723 2.699826 -0.304889 0
M  V30 11 C -1.802713 3.599915 -0.585100 0
M  V30 12 C 0.136282 3.360708 0.839084 0
M  V30 13 C -1.166672 1.402922 0.107744 0
M  V30 14 O -1.849012 1.272501 1.186850 0
M  V30 15 N -1.040551 0.178509 -0.620778 0
M  V30 16 C -1.690974 -1.039959 -0.037316 0
M  V30 17 N -2.313690 -1.639941 0.703322 0
M  V30 18 C -2.704018 -2.829650 0.918088 0
M  V30 19 C -3.465347 -3.440832 1.877014 0
M  V30 20 C -4.092338 -2.706028 3.022691 0
M  V30 21 F -3.103119 -2.111007 3.748611 0
M  V30 22 F -4.822231 -3.563498 3.813572 0
M  V30 23 F -4.938177 -1.761377 2.479888 0
M  V30 24 C -3.661065 -4.796502 1.771714 0
M  V30 25 C -3.179827 -5.641819 0.803253 0
M  V30 26 N -3.181484 -6.927615 0.431838 0
M  V30 27 N -2.485739 -7.143854 -0.667060 0
M  V30 28 C -1.967226 -5.956196 -1.097324 0
M  V30 29 C -2.413044 -5.051336 -0.168636 0
M  V30 30 C -2.201477 -3.671718 -0.083357 0
M  V30 31 S -1.271855 -2.490340 -1.100112 0
M  V30 32 C 2.119974 1.872630 -2.847480 0
M  V30 33 C 3.293165 1.169969 -2.894283 0
M  V30 34 C 3.863163 0.463435 -1.838357 0
M  V30 35 F 5.028974 -0.199832 -2.004586 0
M  V30 36 H 2.916344 0.303543 4.471489 0
M  V30 37 H 3.197251 -1.371943 5.005552 0
M  V30 38 H 1.781701 -0.950611 3.899744 0
M  V30 39 H 4.767511 -0.645433 3.222796 0
M  V30 40 H 3.845453 -2.104857 2.817559 0
M  V30 41 H 4.618079 -0.760312 0.338102 0
M  V30 42 H 1.421134 1.224302 0.304813 0
M  V30 43 H -0.126693 3.101716 -2.394646 0
M  V30 44 H -2.655504 3.323464 0.069539 0
M  V30 45 H -2.142035 3.426504 -1.627976 0
M  V30 46 H -1.547002 4.672809 -0.477507 0
M  V30 47 H 0.237424 2.634514 1.671688 0
M  V30 48 H -0.405898 4.242717 1.262808 0
M  V30 49 H 1.153704 3.652148 0.507208 0
M  V30 50 H -0.523275 0.253279 -1.492252 0
M  V30 51 H -4.275392 -5.283554 2.548925 0
M  V30 52 H -3.697323 -7.649572 0.996198 0
M  V30 53 H -1.339588 -5.757418 -1.978151 0
M  V30 54 H 1.732042 2.413164 -3.693363 0
M  V30 55 H 3.866500 1.135971 -3.837687 0
M  V30 END ATOM
M  V30 BEGIN BOND
M  V30 1 1 1 2
M  V30 2 1 2 3
M  V30 3 2 3 4
M  V30 4 1 3 5
M  V30 5 1 5 6
M  V30 6 2 6 7
M  V30 7 1 7 8
M  V30 8 1 8 9
M  V30 9 1 9 10
M  V30 10 1 10 11
M  V30 11 1 10 12
M  V30 12 1 10 13
M  V30 13 2 13 14
M  V30 14 1 13 15
M  V30 15 1 15 16
M  V30 16 2 16 17
M  V30 17 1 17 18
M  V30 18 2 18 19
M  V30 19 1 19 20
M  V30 20 1 20 21
M  V30 21 1 20 22
M  V30 22 1 20 23
M  V30 23 1 19 24
M  V30 24 2 24 25
M  V30 25 1 25 26
M  V30 26 1 26 27
M  V30 27 2 27 28
M  V30 28 1 28 29
M  V30 29 2 29 30
M  V30 30 1 30 31
M  V30 31 2 8 32
M  V30 32 1 32 33
M  V30 33 2 33 34
M  V30 34 1 34 35
M  V30 35 1 34 6
M  V30 36 1 31 16
M  V30 37 1 30 18
M  V30 38 1 29 25
M  V30 39 1 1 36
M  V30 40 1 1 37
M  V30 41 1 1 38
M  V30 42 1 2 39
M  V30 43 1 2 40
M  V30 44 1 5 41
M  V30 45 1 7 42
M  V30 46 1 9 43
M  V30 47 1 11 44
M  V30 48 1 11 45
M  V30 49 1 11 46
M  V30 50 1 12 47
M  V30 51 1 12 48
M  V30 52 1 12 49
M  V30 53 1 15 50
M  V30 54 1 24 51
M  V30 55 1 26 52
M  V30 56 1 28 53
M  V30 57 1 32 54
M  V30 58 1 33 55
M  V30 END BOND
M  V30 END CTAB
M  END
>  <Dataset>  (589) 
ChEMBL_Kinases

>  <Ligand_Instance>  (589) 
nan

>  <PDB_ID>  (589) 
nan

>  <Standardized_SMILES>  (589) 
CCC(=O)Nc1cc(NC(C)(C)C(=O)Nc2nc3c(C(F)(F)F)cc4[nH]ncc4c3s2)ccc1F

>  <Name>  (589) 
nan

>  <Pocket>  (589) 
nan

>  <ATP_Site>  (589) 
nan

>  <Peripheral>  (589) 
nan

>  <Num_H_Atoms_ProtBoundConf>  (589) 
nan

>  <Num_Resolved_Atoms>  (589) 
nan

>  <Num_Not_Resolved_Atoms>  (589) 
nan

$$$$
CHEMBL3715412
     RDKit          3D

  0  0  0  0  0  0  0  0  0  0999 V3000
M  V30 BEGIN CTAB
M  V30 COUNTS 43 46 0 0 0
M  V30 BEGIN ATOM
M  V30 1 N 0.420292 -5.453175 0.568465 0
M  V30 2 C 1.723076 -4.785340 0.778513 0 CFG=1
M  V30 3 C 2.057828 -4.129825 -0.508754 0
M  V30 4 C 2.901602 -2.878316 -0.394500 0
M  V30 5 C 2.167043 -2.030035 0.635152 0 CFG=2
M  V30 6 N 2.508311 -0.650566 0.623753 0
M  V30 7 C 1.474182 0.163279 0.045580 0
M  V30 8 O 0.385627 -0.331939 -0.407746 0
M  V30 9 C 1.379735 1.632285 -0.165156 0
M  V30 10 C 2.373569 2.387768 -0.806490 0
M  V30 11 C 2.104465 3.745132 -0.905978 0
M  V30 12 N 1.008515 4.361715 -0.451078 0
M  V30 13 C 0.060816 3.641494 0.160622 0
M  V30 14 N -1.156876 3.897840 0.729867 0
M  V30 15 C -1.662693 2.768471 1.178698 0
M  V30 16 C -2.961689 2.560183 1.839660 0
M  V30 17 C -3.604968 1.445608 2.293497 0
M  V30 18 C -4.823064 1.620244 2.864329 0
M  V30 19 C -5.429364 2.837381 3.005358 0
M  V30 20 S -4.122755 3.970038 2.226000 0
M  V30 21 N -0.858101 1.726171 0.953005 0
M  V30 22 C 0.221368 2.275974 0.315655 0
M  V30 23 C 2.418889 -2.715614 1.947870 0
M  V30 24 C 1.572458 -3.956430 1.992534 0
M  V30 25 H -0.301555 -4.765663 0.910339 0
M  V30 26 H 0.239286 -5.611667 -0.441749 0
M  V30 27 H 2.430089 -5.622507 0.985874 0
M  V30 28 H 2.634723 -4.848206 -1.147486 0
M  V30 29 H 1.134930 -3.872003 -1.085583 0
M  V30 30 H 3.929844 -3.147821 -0.057613 0
M  V30 31 H 2.932414 -2.405260 -1.377058 0
M  V30 32 H 1.079195 -2.200926 0.382714 0
M  V30 33 H 3.289670 -0.040263 0.912485 0
M  V30 34 H 3.241610 1.866610 -1.163731 0
M  V30 35 H 2.897726 4.282164 -1.407950 0
M  V30 36 H -3.121628 0.485831 2.179326 0
M  V30 37 H -5.426512 0.799528 3.256284 0
M  V30 38 H -6.309928 3.217959 3.386000 0
M  V30 39 H -1.010788 0.707185 1.205865 0
M  V30 40 H 3.490880 -3.075330 1.944756 0
M  V30 41 H 2.255352 -2.054976 2.825149 0
M  V30 42 H 1.918122 -4.551267 2.869580 0
M  V30 43 H 0.513270 -3.645112 2.192734 0
M  V30 END ATOM
M  V30 BEGIN BOND
M  V30 1 1 1 2
M  V30 2 1 2 3
M  V30 3 1 3 4
M  V30 4 1 4 5
M  V30 5 1 5 6
M  V30 6 1 6 7
M  V30 7 2 7 8
M  V30 8 1 7 9
M  V30 9 2 9 10
M  V30 10 1 10 11
M  V30 11 2 11 12
M  V30 12 1 12 13
M  V30 13 1 13 14
M  V30 14 2 14 15
M  V30 15 1 15 16
M  V30 16 2 16 17
M  V30 17 1 17 18
M  V30 18 2 18 19
M  V30 19 1 19 20
M  V30 20 1 15 21
M  V30 21 1 21 22
M  V30 22 1 5 23
M  V30 23 1 23 24
M  V30 24 1 24 2
M  V30 25 1 22 9
M  V30 26 2 22 13
M  V30 27 1 20 16
M  V30 28 1 1 25
M  V30 29 1 1 26
M  V30 30 1 2 27 CFG=1
M  V30 31 1 3 28
M  V30 32 1 3 29
M  V30 33 1 4 30
M  V30 34 1 4 31
M  V30 35 1 5 32 CFG=3
M  V30 36 1 6 33
M  V30 37 1 10 34
M  V30 38 1 11 35
M  V30 39 1 17 36
M  V30 40 1 18 37
M  V30 41 1 19 38
M  V30 42 1 21 39
M  V30 43 1 23 40
M  V30 44 1 23 41
M  V30 45 1 24 42
M  V30 46 1 24 43
M  V30 END BOND
M  V30 END CTAB
M  END
>  <Dataset>  (590) 
ChEMBL_Kinases

>  <Ligand_Instance>  (590) 
nan

>  <PDB_ID>  (590) 
nan

>  <Standardized_SMILES>  (590) 
N[C@H]1CC[C@H](NC(=O)c2ccnc3nc(-c4cccs4)[nH]c23)CC1

>  <Name>  (590) 
nan

>  <Pocket>  (590) 
nan

>  <ATP_Site>  (590) 
nan

>  <Peripheral>  (590) 
nan

>  <Num_H_Atoms_ProtBoundConf>  (590) 
nan

>  <Num_Resolved_Atoms>  (590) 
nan

>  <Num_Not_Resolved_Atoms>  (590) 
nan

$$$$
CHEMBL569822
     RDKit          3D

  0  0  0  0  0  0  0  0  0  0999 V3000
M  V30 BEGIN CTAB
M  V30 COUNTS 75 80 0 0 0
M  V30 BEGIN ATOM
M  V30 1 C 1.462555 0.538790 3.131524 0
M  V30 2 C 2.550012 0.263920 2.164853 0
M  V30 3 C 2.840798 1.225261 1.195487 0
M  V30 4 N 2.098579 2.463262 1.131715 0
M  V30 5 C 2.527450 3.299920 0.097818 0
M  V30 6 C 3.610444 4.107515 0.454352 0
M  V30 7 C 4.212370 4.084655 1.748660 0
M  V30 8 N 4.695096 4.048904 2.795351 0
M  V30 9 C 4.140863 4.983299 -0.488287 0
M  V30 10 N 3.592419 5.020761 -1.706478 0
M  V30 11 C 2.556330 4.223620 -1.989193 0
M  V30 12 C 1.956906 3.323240 -1.131541 0
M  V30 13 C 0.829654 2.509801 -1.505255 0
M  V30 14 C 0.073129 1.619580 -0.824945 0
M  V30 15 C -0.902066 1.104635 -1.654446 0
M  V30 16 C -1.916868 0.185397 -1.482492 0
M  V30 17 C -2.771128 -0.140568 -2.544241 0
M  V30 18 C -3.798565 -1.143041 -2.163883 0
M  V30 19 N -3.339003 -2.445177 -2.417331 0
M  V30 20 C -4.147813 -3.546561 -2.063341 0
M  V30 21 C -3.613415 -4.098886 -0.758285 0
M  V30 22 N -2.299626 -3.712425 -0.454199 0
M  V30 23 C -2.100685 -2.985522 0.744233 0
M  V30 24 C -2.375631 -3.916466 1.920754 0
M  V30 25 N -2.197265 -3.271351 3.179939 0
M  V30 26 C -2.435963 -4.072692 4.337667 0
M  V30 27 C -2.625738 -1.914659 3.263284 0
M  V30 28 C -1.389210 -3.452585 -1.509328 0
M  V30 29 C -1.978180 -2.690704 -2.669493 0
M  V30 30 C -2.561031 0.484990 -3.753812 0
M  V30 31 C -1.541270 1.401127 -3.906302 0
M  V30 32 C -0.686811 1.737044 -2.870081 0
M  V30 33 O 0.329841 2.537428 -2.716536 0
M  V30 34 C 3.859512 0.928725 0.317150 0
M  V30 35 C 4.596731 -0.241387 0.338050 0
M  V30 36 C 4.282323 -1.171444 1.310821 0
M  V30 37 N 4.854084 -2.384151 1.536474 0
M  V30 38 C 4.204377 -2.915887 2.591823 0
M  V30 39 C 3.214667 -2.042035 3.042843 0
M  V30 40 C 3.263940 -0.931332 2.227575 0
M  V30 41 H 1.757433 1.186913 3.974633 0
M  V30 42 H 0.546046 0.903089 2.603429 0
M  V30 43 H 1.157733 -0.436471 3.571706 0
M  V30 44 H 1.354165 2.607329 1.827978 0
M  V30 45 H 4.978111 5.626683 -0.255379 0
M  V30 46 H 2.184795 4.336981 -3.019026 0
M  V30 47 H 0.178341 1.337611 0.185861 0
M  V30 48 H -1.992492 -0.245604 -0.492728 0
M  V30 49 H -4.155404 -0.973083 -1.113708 0
M  V30 50 H -4.711253 -0.877899 -2.781395 0
M  V30 51 H -5.193529 -3.201278 -1.964176 0
M  V30 52 H -4.117659 -4.284799 -2.887633 0
M  V30 53 H -3.680058 -5.214687 -0.791144 0
M  V30 54 H -4.305080 -3.741984 0.036586 0
M  V30 55 H -2.764955 -2.097662 0.835409 0
M  V30 56 H -1.078829 -2.600016 0.885214 0
M  V30 57 H -3.448365 -4.267341 1.899301 0
M  V30 58 H -1.750025 -4.827125 1.859837 0
M  V30 59 H -1.975167 -5.053319 4.237057 0
M  V30 60 H -3.510842 -4.120466 4.621208 0
M  V30 61 H -1.915008 -3.554065 5.194407 0
M  V30 62 H -2.527682 -1.609317 4.331068 0
M  V30 63 H -1.907767 -1.298118 2.703032 0
M  V30 64 H -3.678026 -1.747192 2.979758 0
M  V30 65 H -0.532835 -2.883534 -1.092077 0
M  V30 66 H -0.985096 -4.413089 -1.882980 0
M  V30 67 H -1.852793 -3.297784 -3.618715 0
M  V30 68 H -1.444165 -1.746932 -2.892894 0
M  V30 69 H -3.260379 0.177132 -4.512117 0
M  V30 70 H -1.420276 1.862040 -4.873102 0
M  V30 71 H 4.130387 1.634959 -0.455045 0
M  V30 72 H 5.384713 -0.420319 -0.376409 0
M  V30 73 H 5.639416 -2.789520 0.980754 0
M  V30 74 H 4.451358 -3.887466 2.996326 0
M  V30 75 H 2.529488 -2.179778 3.864907 0
M  V30 END ATOM
M  V30 BEGIN BOND
M  V30 1 1 1 2
M  V30 2 2 2 3
M  V30 3 1 3 4
M  V30 4 1 4 5
M  V30 5 2 5 6
M  V30 6 1 6 7
M  V30 7 3 7 8
M  V30 8 1 6 9
M  V30 9 2 9 10
M  V30 10 1 10 11
M  V30 11 2 11 12
M  V30 12 1 12 13
M  V30 13 2 13 14
M  V30 14 1 14 15
M  V30 15 2 15 16
M  V30 16 1 16 17
M  V30 17 1 17 18
M  V30 18 1 18 19
M  V30 19 1 19 20
M  V30 20 1 20 21
M  V30 21 1 21 22
M  V30 22 1 22 23
M  V30 23 1 23 24
M  V30 24 1 24 25
M  V30 25 1 25 26
M  V30 26 1 25 27
M  V30 27 1 22 28
M  V30 28 1 28 29
M  V30 29 2 17 30
M  V30 30 1 30 31
M  V30 31 2 31 32
M  V30 32 1 32 33
M  V30 33 1 3 34
M  V30 34 2 34 35
M  V30 35 1 35 36
M  V30 36 1 36 37
M  V30 37 1 37 38
M  V30 38 2 38 39
M  V30 39 1 39 40
M  V30 40 1 40 2
M  V30 41 1 12 5
M  V30 42 1 33 13
M  V30 43 2 40 36
M  V30 44 1 32 15
M  V30 45 1 29 19
M  V30 46 1 1 41
M  V30 47 1 1 42
M  V30 48 1 1 43
M  V30 49 1 4 44
M  V30 50 1 9 45
M  V30 51 1 11 46
M  V30 52 1 14 47
M  V30 53 1 16 48
M  V30 54 1 18 49
M  V30 55 1 18 50
M  V30 56 1 20 51
M  V30 57 1 20 52
M  V30 58 1 21 53
M  V30 59 1 21 54
M  V30 60 1 23 55
M  V30 61 1 23 56
M  V30 62 1 24 57
M  V30 63 1 24 58
M  V30 64 1 26 59
M  V30 65 1 26 60
M  V30 66 1 26 61
M  V30 67 1 27 62
M  V30 68 1 27 63
M  V30 69 1 27 64
M  V30 70 1 28 65
M  V30 71 1 28 66
M  V30 72 1 29 67
M  V30 73 1 29 68
M  V30 74 1 30 69
M  V30 75 1 31 70
M  V30 76 1 34 71
M  V30 77 1 35 72
M  V30 78 1 37 73
M  V30 79 1 38 74
M  V30 80 1 39 75
M  V30 END BOND
M  V30 END CTAB
M  END
>  <Dataset>  (591) 
ChEMBL_Kinases

>  <Ligand_Instance>  (591) 
nan

>  <PDB_ID>  (591) 
nan

>  <Standardized_SMILES>  (591) 
Cc1c(Nc2c(C#N)cncc2-c2cc3cc(CN4CCN(CCN(C)C)CC4)ccc3o2)ccc2[nH]ccc12

>  <Name>  (591) 
nan

>  <Pocket>  (591) 
nan

>  <ATP_Site>  (591) 
nan

>  <Peripheral>  (591) 
nan

>  <Num_H_Atoms_ProtBoundConf>  (591) 
nan

>  <Num_Resolved_Atoms>  (591) 
nan

>  <Num_Not_Resolved_Atoms>  (591) 
nan

$$$$
CHEMBL3715390
     RDKit          3D

  0  0  0  0  0  0  0  0  0  0999 V3000
M  V30 BEGIN CTAB
M  V30 COUNTS 30 32 0 0 0
M  V30 BEGIN ATOM
M  V30 1 N 0.860915 -0.538031 5.080159 0
M  V30 2 C 0.958909 -0.405277 3.917590 0
M  V30 3 C 1.094376 -0.234684 2.495464 0
M  V30 4 C 1.638515 0.896769 2.061799 0
M  V30 5 N 2.088963 1.936620 2.923871 0
M  V30 6 O 1.785007 1.095228 0.689344 0
M  V30 7 C 1.363486 0.115195 -0.199586 0
M  V30 8 C 1.527869 0.354718 -1.540838 0
M  V30 9 C 1.106642 -0.623705 -2.418436 0
M  V30 10 N 1.275349 -0.378629 -3.803963 0
M  V30 11 C 0.528374 -1.831941 -2.026295 0
M  V30 12 C 0.370724 -2.055934 -0.672286 0
M  V30 13 C 0.786248 -1.089684 0.206154 0
M  V30 14 C 0.613964 -1.336655 1.659860 0
M  V30 15 C -0.768973 -1.700771 2.007787 0
M  V30 16 C -1.802562 -0.797657 2.362498 0
M  V30 17 C -3.028273 -1.343253 2.652967 0
M  V30 18 C -3.251704 -2.694878 2.605083 0
M  V30 19 S -1.524529 -3.329094 2.082799 0
M  V30 20 H 1.622651 2.513939 3.640101 0
M  V30 21 H 3.088968 2.296551 2.942287 0
M  V30 22 H 1.963940 1.259533 -1.911481 0
M  V30 23 H 0.821258 -0.101127 -4.692578 0
M  V30 24 H 2.200021 -0.472578 -4.316082 0
M  V30 25 H 0.229938 -2.537032 -2.788576 0
M  V30 26 H -0.074982 -2.986857 -0.366123 0
M  V30 27 H 1.239087 -2.221434 1.898165 0
M  V30 28 H -1.606334 0.262855 2.394354 0
M  V30 29 H -3.887204 -0.752778 2.934848 0
M  V30 30 H -4.017766 -3.316549 2.764018 0
M  V30 END ATOM
M  V30 BEGIN BOND
M  V30 1 3 1 2
M  V30 2 1 2 3
M  V30 3 2 3 4
M  V30 4 1 4 5
M  V30 5 1 4 6
M  V30 6 1 6 7
M  V30 7 2 7 8
M  V30 8 1 8 9
M  V30 9 1 9 10
M  V30 10 2 9 11
M  V30 11 1 11 12
M  V30 12 2 12 13
M  V30 13 1 13 14
M  V30 14 1 14 15
M  V30 15 2 15 16
M  V30 16 1 16 17
M  V30 17 2 17 18
M  V30 18 1 18 19
M  V30 19 1 14 3
M  V30 20 1 19 15
M  V30 21 1 13 7
M  V30 22 1 5 20
M  V30 23 1 5 21
M  V30 24 1 8 22
M  V30 25 1 10 23
M  V30 26 1 10 24
M  V30 27 1 11 25
M  V30 28 1 12 26
M  V30 29 1 14 27
M  V30 30 1 16 28
M  V30 31 1 17 29
M  V30 32 1 18 30
M  V30 END BOND
M  V30 END CTAB
M  END
>  <Dataset>  (592) 
ChEMBL_Kinases

>  <Ligand_Instance>  (592) 
nan

>  <PDB_ID>  (592) 
nan

>  <Standardized_SMILES>  (592) 
N#CC1=C(N)Oc2cc(N)ccc2C1c1cccs1

>  <Name>  (592) 
nan

>  <Pocket>  (592) 
nan

>  <ATP_Site>  (592) 
nan

>  <Peripheral>  (592) 
nan

>  <Num_H_Atoms_ProtBoundConf>  (592) 
nan

>  <Num_Resolved_Atoms>  (592) 
nan

>  <Num_Not_Resolved_Atoms>  (592) 
nan

$$$$
CHEMBL3715388
     RDKit          3D

  0  0  0  0  0  0  0  0  0  0999 V3000
M  V30 BEGIN CTAB
M  V30 COUNTS 51 56 0 0 0
M  V30 BEGIN ATOM
M  V30 1 N 0.891948 -4.067770 1.583516 0
M  V30 2 C 1.904247 -3.073132 1.246061 0
M  V30 3 C 2.474337 -3.338214 -0.123850 0
M  V30 4 C 3.394880 -2.205111 -0.480726 0
M  V30 5 C 4.530560 -2.216894 0.515253 0
M  V30 6 C 3.945080 -1.925735 1.875243 0
M  V30 7 C 2.986369 -3.014866 2.279744 0
M  V30 8 C 3.244477 -0.612200 1.824066 0
M  V30 9 C 2.101821 -0.601324 0.807424 0
M  V30 10 N 1.434338 0.643805 0.975684 0
M  V30 11 C 0.325714 0.915746 0.132504 0
M  V30 12 O -0.076399 0.106582 -0.742923 0
M  V30 13 C -0.560810 2.075669 0.049914 0
M  V30 14 C -0.141933 3.402261 -0.108921 0
M  V30 15 C -1.072183 4.417645 -0.175148 0
M  V30 16 N -2.398887 4.199722 -0.093574 0
M  V30 17 C -2.880585 2.938796 0.060886 0
M  V30 18 N -4.121306 2.374926 0.174221 0
M  V30 19 C -3.926887 1.052974 0.304867 0
M  V30 20 C -5.050928 0.137292 0.449636 0
M  V30 21 C -6.391338 0.258598 0.489203 0
M  V30 22 C -7.184094 -0.839207 0.642438 0
M  V30 23 C -6.570059 -2.122757 0.760729 0
M  V30 24 S -4.753185 -1.666794 0.638240 0
M  V30 25 N -2.620875 0.749380 0.279912 0
M  V30 26 C -1.949442 1.900328 0.129472 0
M  V30 27 C 2.688603 -0.872359 -0.526560 0
M  V30 28 C 1.202295 -1.750403 1.209254 0
M  V30 29 H 0.721775 -3.958478 2.613167 0
M  V30 30 H 0.001092 -3.770085 1.114427 0
M  V30 31 H 1.663953 -3.463577 -0.863261 0
M  V30 32 H 3.081611 -4.254719 -0.077987 0
M  V30 33 H 3.816517 -2.381416 -1.487308 0
M  V30 34 H 5.254852 -1.444118 0.254385 0
M  V30 35 H 4.947216 -3.258768 0.466750 0
M  V30 36 H 4.716179 -1.848441 2.666264 0
M  V30 37 H 3.491770 -3.981555 2.428609 0
M  V30 38 H 2.523954 -2.731582 3.247083 0
M  V30 39 H 2.823220 -0.320810 2.785478 0
M  V30 40 H 3.970469 0.194724 1.518725 0
M  V30 41 H 1.588775 1.455625 1.624051 0
M  V30 42 H 0.929820 3.527110 -0.170276 0
M  V30 43 H -0.682856 5.435479 -0.298587 0
M  V30 44 H -6.725291 1.276169 0.389610 0
M  V30 45 H -8.278667 -0.736349 0.674462 0
M  V30 46 H -7.184096 -3.037213 0.887310 0
M  V30 47 H -2.233289 -0.209912 0.365294 0
M  V30 48 H 3.385985 -0.109850 -0.887810 0
M  V30 49 H 1.921303 -0.990342 -1.336030 0
M  V30 50 H 0.399700 -1.828397 0.455806 0
M  V30 51 H 0.687951 -1.557162 2.177932 0
M  V30 END ATOM
M  V30 BEGIN BOND
M  V30 1 1 1 2
M  V30 2 1 2 3
M  V30 3 1 3 4
M  V30 4 1 4 5
M  V30 5 1 5 6
M  V30 6 1 6 7
M  V30 7 1 6 8
M  V30 8 1 8 9
M  V30 9 1 9 10
M  V30 10 1 10 11
M  V30 11 2 11 12
M  V30 12 1 11 13
M  V30 13 1 13 14
M  V30 14 2 14 15
M  V30 15 1 15 16
M  V30 16 2 16 17
M  V30 17 1 17 18
M  V30 18 2 18 19
M  V30 19 1 19 20
M  V30 20 2 20 21
M  V30 21 1 21 22
M  V30 22 2 22 23
M  V30 23 1 23 24
M  V30 24 1 19 25
M  V30 25 1 25 26
M  V30 26 1 9 27
M  V30 27 1 9 28
M  V30 28 1 7 2
M  V30 29 2 26 13
M  V30 30 1 28 2
M  V30 31 1 27 4
M  V30 32 1 26 17
M  V30 33 1 24 20
M  V30 34 1 1 29
M  V30 35 1 1 30
M  V30 36 1 3 31
M  V30 37 1 3 32
M  V30 38 1 4 33
M  V30 39 1 5 34
M  V30 40 1 5 35
M  V30 41 1 6 36
M  V30 42 1 7 37
M  V30 43 1 7 38
M  V30 44 1 8 39
M  V30 45 1 8 40
M  V30 46 1 10 41
M  V30 47 1 14 42
M  V30 48 1 15 43
M  V30 49 1 21 44
M  V30 50 1 22 45
M  V30 51 1 23 46
M  V30 52 1 25 47
M  V30 53 1 27 48
M  V30 54 1 27 49
M  V30 55 1 28 50
M  V30 56 1 28 51
M  V30 END BOND
M  V30 END CTAB
M  END
>  <Dataset>  (593) 
ChEMBL_Kinases

>  <Ligand_Instance>  (593) 
nan

>  <PDB_ID>  (593) 
nan

>  <Standardized_SMILES>  (593) 
NC12CC3CC(C1)CC(NC(=O)c1ccnc4nc(-c5cccs5)[nH]c14)(C3)C2

>  <Name>  (593) 
nan

>  <Pocket>  (593) 
nan

>  <ATP_Site>  (593) 
nan

>  <Peripheral>  (593) 
nan

>  <Num_H_Atoms_ProtBoundConf>  (593) 
nan

>  <Num_Resolved_Atoms>  (593) 
nan

>  <Num_Not_Resolved_Atoms>  (593) 
nan

$$$$
CHEMBL570175
     RDKit          3D

  0  0  0  0  0  0  0  0  0  0999 V3000
M  V30 BEGIN CTAB
M  V30 COUNTS 41 44 0 0 0
M  V30 BEGIN ATOM
M  V30 1 C -0.432232 -0.466100 2.870362 0
M  V30 2 N 0.309717 0.063724 1.741384 0
M  V30 3 C 0.335232 1.393053 1.541499 0
M  V30 4 O -0.297949 2.172682 2.324807 0
M  V30 5 C 1.033256 2.012164 0.493335 0
M  V30 6 C 0.983521 3.455977 0.359481 0
M  V30 7 C 0.070548 4.152568 -0.381229 0
M  V30 8 Cl -1.122572 3.173618 -1.268006 0
M  V30 9 C -0.155148 5.460964 -0.619576 0
M  V30 10 C 0.776484 6.293267 0.066018 0
M  V30 11 C 1.777696 5.710550 0.870453 0
M  V30 12 C 1.851344 4.305712 0.992784 0
M  V30 13 Cl 3.111173 3.644676 2.013429 0
M  V30 14 C 1.695828 1.126512 -0.319845 0
M  V30 15 C 1.699420 -0.238553 -0.156871 0
M  V30 16 C 2.341300 -1.130654 -0.964845 0
M  V30 17 N 2.216421 -2.409181 -0.655439 0
M  V30 18 C 1.557889 -2.998624 0.331255 0
M  V30 19 N 1.437270 -4.366354 0.621691 0
M  V30 20 C 0.166077 -4.942988 0.879954 0
M  V30 21 C 0.014383 -6.327736 1.099542 0
M  V30 22 C -1.190092 -6.990206 1.354499 0
M  V30 23 C -2.323562 -6.164536 1.385271 0
M  V30 24 I -4.134857 -7.209192 1.774916 0
M  V30 25 C -2.291526 -4.813222 1.185738 0
M  V30 26 C -1.041898 -4.294411 0.946075 0
M  V30 27 N 0.923916 -2.069857 1.124362 0
M  V30 28 C 0.986423 -0.759683 0.899365 0
M  V30 29 H -0.037371 -0.080701 3.853791 0
M  V30 30 H -0.416665 -1.587897 2.863658 0
M  V30 31 H -1.500418 -0.135701 2.857138 0
M  V30 32 H -0.898577 5.949851 -1.216424 0
M  V30 33 H 0.773065 7.366155 0.010810 0
M  V30 34 H 2.476222 6.364824 1.382864 0
M  V30 35 H 2.264010 1.536937 -1.162536 0
M  V30 36 H 2.919757 -0.776965 -1.810246 0
M  V30 37 H 2.244480 -5.058281 0.676030 0
M  V30 38 H 0.882437 -6.978968 1.075873 0
M  V30 39 H -1.210402 -8.045090 1.506373 0
M  V30 40 H -3.188610 -4.215736 1.216920 0
M  V30 41 H -1.053152 -3.218649 0.790420 0
M  V30 END ATOM
M  V30 BEGIN BOND
M  V30 1 1 1 2
M  V30 2 1 2 3
M  V30 3 2 3 4
M  V30 4 1 3 5
M  V30 5 1 5 6
M  V30 6 2 6 7
M  V30 7 1 7 8
M  V30 8 1 7 9
M  V30 9 2 9 10
M  V30 10 1 10 11
M  V30 11 2 11 12
M  V30 12 1 12 13
M  V30 13 2 5 14
M  V30 14 1 14 15
M  V30 15 2 15 16
M  V30 16 1 16 17
M  V30 17 2 17 18
M  V30 18 1 18 19
M  V30 19 1 19 20
M  V30 20 2 20 21
M  V30 21 1 21 22
M  V30 22 2 22 23
M  V30 23 1 23 24
M  V30 24 1 23 25
M  V30 25 2 25 26
M  V30 26 1 18 27
M  V30 27 2 27 28
M  V30 28 1 28 2
M  V30 29 1 12 6
M  V30 30 1 28 15
M  V30 31 1 26 20
M  V30 32 1 1 29
M  V30 33 1 1 30
M  V30 34 1 1 31
M  V30 35 1 9 32
M  V30 36 1 10 33
M  V30 37 1 11 34
M  V30 38 1 14 35
M  V30 39 1 16 36
M  V30 40 1 19 37
M  V30 41 1 21 38
M  V30 42 1 22 39
M  V30 43 1 25 40
M  V30 44 1 26 41
M  V30 END BOND
M  V30 END CTAB
M  END
>  <Dataset>  (594) 
ChEMBL_Kinases

>  <Ligand_Instance>  (594) 
nan

>  <PDB_ID>  (594) 
nan

>  <Standardized_SMILES>  (594) 
Cn1c(=O)c(-c2c(Cl)cccc2Cl)cc2cnc(Nc3ccc(I)cc3)nc21

>  <Name>  (594) 
nan

>  <Pocket>  (594) 
nan

>  <ATP_Site>  (594) 
nan

>  <Peripheral>  (594) 
nan

>  <Num_H_Atoms_ProtBoundConf>  (594) 
nan

>  <Num_Resolved_Atoms>  (594) 
nan

>  <Num_Not_Resolved_Atoms>  (594) 
nan

$$$$
CHEMBL3715383
     RDKit          3D

  0  0  0  0  0  0  0  0  0  0999 V3000
M  V30 BEGIN CTAB
M  V30 COUNTS 30 31 0 0 0
M  V30 BEGIN ATOM
M  V30 1 C -2.347055 -3.960174 4.617394 0
M  V30 2 O -1.478996 -3.703532 3.639216 0
M  V30 3 C -0.665461 -3.465319 2.721689 0
M  V30 4 C 0.144414 -3.883908 1.586454 0
M  V30 5 C 0.788069 -2.697223 1.034228 0
M  V30 6 C 0.924635 -1.389182 1.152418 0
M  V30 7 C 1.552676 -0.435922 0.235835 0
M  V30 8 N 1.265687 0.770402 0.268210 0
M  V30 9 N 1.596629 1.550093 -0.667526 0
M  V30 10 C 2.284161 0.621587 -1.545939 0
M  V30 11 S 2.479917 1.845728 -2.851906 0
M  V30 12 C 0.869718 2.471643 -3.421346 0
M  V30 13 C 0.163942 3.463766 -2.532819 0
M  V30 14 O -0.488579 4.281118 -1.836649 0
M  V30 15 O 1.255057 3.726538 -1.627942 0
M  V30 16 N 2.273204 -0.687965 -0.964303 0
M  V30 17 C 0.213756 -0.875365 2.196904 0
M  V30 18 C -0.417774 -2.060665 2.727914 0
M  V30 19 O -1.180789 -1.418617 3.823220 0
M  V30 20 H -1.872912 -3.552778 5.646741 0
M  V30 21 H -2.689321 -5.015707 4.818907 0
M  V30 22 H -3.259018 -3.381880 4.516390 0
M  V30 23 H 0.064773 -4.939726 1.482904 0
M  V30 24 H 1.338606 -3.144115 0.180316 0
M  V30 25 H 0.208808 1.550119 -3.335854 0
M  V30 26 H 0.762166 2.758485 -4.458850 0
M  V30 27 H 1.149009 4.267707 -0.745965 0
M  V30 28 H 2.759157 -1.431335 -1.370290 0
M  V30 29 H 0.197480 0.204119 2.539173 0
M  V30 30 H -0.689083 -1.485032 4.754381 0
M  V30 END ATOM
M  V30 BEGIN BOND
M  V30 1 1 1 2
M  V30 2 1 2 3
M  V30 3 2 3 4
M  V30 4 1 4 5
M  V30 5 2 5 6
M  V30 6 1 6 7
M  V30 7 2 7 8
M  V30 8 1 8 9
M  V30 9 2 9 10
M  V30 10 1 10 11
M  V30 11 1 11 12
M  V30 12 1 12 13
M  V30 13 2 13 14
M  V30 14 1 13 15
M  V30 15 1 10 16
M  V30 16 1 6 17
M  V30 17 2 17 18
M  V30 18 1 18 19
M  V30 19 1 18 3
M  V30 20 1 16 7
M  V30 21 1 1 20
M  V30 22 1 1 21
M  V30 23 1 1 22
M  V30 24 1 4 23
M  V30 25 1 5 24
M  V30 26 1 12 25
M  V30 27 1 12 26
M  V30 28 1 15 27
M  V30 29 1 16 28
M  V30 30 1 17 29
M  V30 31 1 19 30
M  V30 END BOND
M  V30 END CTAB
M  END
>  <Dataset>  (595) 
ChEMBL_Kinases

>  <Ligand_Instance>  (595) 
nan

>  <PDB_ID>  (595) 
nan

>  <Standardized_SMILES>  (595) 
COc1ccc(-c2nnc(SCC(=O)O)[nH]2)cc1O

>  <Name>  (595) 
nan

>  <Pocket>  (595) 
nan

>  <ATP_Site>  (595) 
nan

>  <Peripheral>  (595) 
nan

>  <Num_H_Atoms_ProtBoundConf>  (595) 
nan

>  <Num_Resolved_Atoms>  (595) 
nan

>  <Num_Not_Resolved_Atoms>  (595) 
nan

$$$$
CHEMBL570182
     RDKit          3D

  0  0  0  0  0  0  0  0  0  0999 V3000
M  V30 BEGIN CTAB
M  V30 COUNTS 33 34 0 0 0
M  V30 BEGIN ATOM
M  V30 1 C 2.671484 -5.791530 -1.809985 0
M  V30 2 O 2.010121 -5.556014 -0.591244 0
M  V30 3 C 1.687982 -4.266589 -0.117968 0
M  V30 4 C 1.036427 -4.321582 1.102903 0
M  V30 5 C 0.682088 -3.083584 1.638203 0
M  V30 6 C 0.970382 -1.911001 0.982667 0
M  V30 7 C 0.579005 -0.622823 1.604760 0
M  V30 8 C 0.001313 0.238534 0.765842 0
M  V30 9 S -0.379840 0.079780 -1.005400 0
M  V30 10 C -1.893396 1.094887 -0.861655 0
M  V30 11 O -2.907804 0.886089 -1.568433 0
M  V30 12 N -1.522576 2.031650 0.176617 0
M  V30 13 C -2.214526 3.316008 0.230656 0
M  V30 14 C -3.435372 3.300123 1.114936 0
M  V30 15 N -3.015497 2.980684 2.456213 0
M  V30 16 C -0.498811 1.580906 1.062306 0
M  V30 17 O -0.089755 2.312669 2.010071 0
M  V30 18 C 1.628283 -1.863085 -0.248184 0
M  V30 19 C 1.985230 -3.106475 -0.788252 0
M  V30 20 H 2.536393 -4.989166 -2.567477 0
M  V30 21 H 2.293135 -6.732449 -2.307916 0
M  V30 22 H 3.762738 -5.925706 -1.682561 0
M  V30 23 H 0.794529 -5.212859 1.644518 0
M  V30 24 H 0.163804 -3.067512 2.601557 0
M  V30 25 H 0.685101 -0.269626 2.617546 0
M  V30 26 H -1.490603 4.077035 0.581714 0
M  V30 27 H -2.557059 3.674022 -0.757602 0
M  V30 28 H -4.216054 2.609149 0.738923 0
M  V30 29 H -3.875423 4.314475 1.119833 0
M  V30 30 H -3.790827 2.979410 3.133481 0
M  V30 31 H -2.367385 3.777638 2.736907 0
M  V30 32 H 1.884226 -0.978891 -0.794759 0
M  V30 33 H 2.498487 -3.146396 -1.736086 0
M  V30 END ATOM
M  V30 BEGIN BOND
M  V30 1 1 1 2
M  V30 2 1 2 3
M  V30 3 2 3 4
M  V30 4 1 4 5
M  V30 5 2 5 6
M  V30 6 1 6 7
M  V30 7 2 7 8
M  V30 8 1 8 9
M  V30 9 1 9 10
M  V30 10 2 10 11
M  V30 11 1 10 12
M  V30 12 1 12 13
M  V30 13 1 13 14
M  V30 14 1 14 15
M  V30 15 1 12 16
M  V30 16 2 16 17
M  V30 17 1 6 18
M  V30 18 2 18 19
M  V30 19 1 19 3
M  V30 20 1 16 8
M  V30 21 1 1 20
M  V30 22 1 1 21
M  V30 23 1 1 22
M  V30 24 1 4 23
M  V30 25 1 5 24
M  V30 26 1 7 25
M  V30 27 1 13 26
M  V30 28 1 13 27
M  V30 29 1 14 28
M  V30 30 1 14 29
M  V30 31 1 15 30
M  V30 32 1 15 31
M  V30 33 1 18 32
M  V30 34 1 19 33
M  V30 END BOND
M  V30 END CTAB
M  END
>  <Dataset>  (596) 
ChEMBL_Kinases

>  <Ligand_Instance>  (596) 
nan

>  <PDB_ID>  (596) 
nan

>  <Standardized_SMILES>  (596) 
COc1ccc(/C=C2\SC(=O)N(CCN)C2=O)cc1

>  <Name>  (596) 
nan

>  <Pocket>  (596) 
nan

>  <ATP_Site>  (596) 
nan

>  <Peripheral>  (596) 
nan

>  <Num_H_Atoms_ProtBoundConf>  (596) 
nan

>  <Num_Resolved_Atoms>  (596) 
nan

>  <Num_Not_Resolved_Atoms>  (596) 
nan

$$$$
CHEMBL3715360
     RDKit          3D

  0  0  0  0  0  0  0  0  0  0999 V3000
M  V30 BEGIN CTAB
M  V30 COUNTS 54 58 0 0 0
M  V30 BEGIN ATOM
M  V30 1 O 3.069051 -1.971926 0.909741 0
M  V30 2 C 3.289351 -0.721033 1.061904 0
M  V30 3 N 3.231764 -0.076104 2.312039 0
M  V30 4 C 2.917746 -0.760170 3.532412 0 CFG=1
M  V30 5 C 3.902297 -0.533023 4.634053 0
M  V30 6 C 3.131808 -0.604265 5.954765 0
M  V30 7 C 2.376039 0.683501 6.087946 0
M  V30 8 N 1.722118 0.970956 4.832824 0
M  V30 9 C 1.571611 -0.180758 3.997423 0
M  V30 10 C 3.571409 -0.295380 -0.303019 0
M  V30 11 C 4.858437 0.020385 -0.743300 0
M  V30 12 C 5.003984 0.403079 -2.082109 0
M  V30 13 N 3.997412 0.480616 -2.938220 0
M  V30 14 C 2.750124 0.182565 -2.538848 0
M  V30 15 N 1.524093 0.157971 -3.133808 0
M  V30 16 C 0.634640 -0.219835 -2.234524 0
M  V30 17 C -0.764683 -0.356317 -2.456981 0
M  V30 18 C -1.535232 -0.232171 -3.527231 0
M  V30 19 C -2.875199 -0.387828 -3.564768 0
M  V30 20 C -3.413947 -0.705012 -2.325337 0
M  V30 21 N -4.681347 -1.015446 -1.671647 0
M  V30 22 C -4.897284 -1.214392 -0.226464 0
M  V30 23 C -5.403762 -2.644218 -0.115468 0
M  V30 24 N -5.385379 -3.350705 -1.374871 0
M  V30 25 C -6.152327 -2.713757 -2.420919 0
M  V30 26 C -5.923122 -1.195692 -2.406982 0
M  V30 27 S -1.974562 -0.763858 -1.175274 0
M  V30 28 N 1.239362 -0.447000 -1.053857 0
M  V30 29 C 2.545902 -0.204210 -1.221230 0
M  V30 30 H 3.444670 0.927430 2.182458 0
M  V30 31 H 2.789856 -1.853853 3.392680 0
M  V30 32 H 4.309699 0.493965 4.521208 0
M  V30 33 H 4.729920 -1.288304 4.656427 0
M  V30 34 H 3.835964 -0.767985 6.804690 0
M  V30 35 H 2.389387 -1.425043 5.872534 0
M  V30 36 H 3.111550 1.501259 6.332777 0
M  V30 37 H 1.602348 0.640231 6.904835 0
M  V30 38 H 2.210256 1.744705 4.316695 0
M  V30 39 H 0.975675 0.147947 3.094676 0
M  V30 40 H 0.976965 -0.956789 4.487952 0
M  V30 41 H 5.691085 -0.033852 -0.073129 0
M  V30 42 H 5.976497 0.659862 -2.484113 0
M  V30 43 H -1.074598 0.017565 -4.487086 0
M  V30 44 H -3.626392 -0.324980 -4.326705 0
M  V30 45 H -3.911484 -1.141525 0.289988 0
M  V30 46 H -5.605209 -0.494537 0.198183 0
M  V30 47 H -6.421723 -2.659634 0.309415 0
M  V30 48 H -4.761399 -3.244968 0.573805 0
M  V30 49 H -4.400809 -3.509337 -1.682923 0
M  V30 50 H -7.215879 -2.982037 -2.415605 0
M  V30 51 H -5.700491 -3.041215 -3.406888 0
M  V30 52 H -5.817948 -0.811072 -3.446700 0
M  V30 53 H -6.716664 -0.670469 -1.851654 0
M  V30 54 H 0.769378 -0.756788 -0.163067 0
M  V30 END ATOM
M  V30 BEGIN BOND
M  V30 1 2 1 2
M  V30 2 1 2 3
M  V30 3 1 3 4
M  V30 4 1 4 5
M  V30 5 1 5 6
M  V30 6 1 6 7
M  V30 7 1 7 8
M  V30 8 1 8 9
M  V30 9 1 2 10
M  V30 10 2 10 11
M  V30 11 1 11 12
M  V30 12 2 12 13
M  V30 13 1 13 14
M  V30 14 1 14 15
M  V30 15 2 15 16
M  V30 16 1 16 17
M  V30 17 2 17 18
M  V30 18 1 18 19
M  V30 19 2 19 20
M  V30 20 1 20 21
M  V30 21 1 21 22
M  V30 22 1 22 23
M  V30 23 1 23 24
M  V30 24 1 24 25
M  V30 25 1 25 26
M  V30 26 1 20 27
M  V30 27 1 16 28
M  V30 28 1 28 29
M  V30 29 1 9 4
M  V30 30 1 29 10
M  V30 31 2 29 14
M  V30 32 1 27 17
M  V30 33 1 26 21
M  V30 34 1 3 30
M  V30 35 1 4 31 CFG=3
M  V30 36 1 5 32
M  V30 37 1 5 33
M  V30 38 1 6 34
M  V30 39 1 6 35
M  V30 40 1 7 36
M  V30 41 1 7 37
M  V30 42 1 8 38
M  V30 43 1 9 39
M  V30 44 1 9 40
M  V30 45 1 11 41
M  V30 46 1 12 42
M  V30 47 1 18 43
M  V30 48 1 19 44
M  V30 49 1 22 45
M  V30 50 1 22 46
M  V30 51 1 23 47
M  V30 52 1 23 48
M  V30 53 1 24 49
M  V30 54 1 25 50
M  V30 55 1 25 51
M  V30 56 1 26 52
M  V30 57 1 26 53
M  V30 58 1 28 54
M  V30 END BOND
M  V30 END CTAB
M  END
>  <Dataset>  (597) 
ChEMBL_Kinases

>  <Ligand_Instance>  (597) 
nan

>  <PDB_ID>  (597) 
nan

>  <Standardized_SMILES>  (597) 
O=C(N[C@H]1CCCNC1)c1ccnc2nc(-c3ccc(N4CCNCC4)s3)[nH]c12

>  <Name>  (597) 
nan

>  <Pocket>  (597) 
nan

>  <ATP_Site>  (597) 
nan

>  <Peripheral>  (597) 
nan

>  <Num_H_Atoms_ProtBoundConf>  (597) 
nan

>  <Num_Resolved_Atoms>  (597) 
nan

>  <Num_Not_Resolved_Atoms>  (597) 
nan

$$$$
CHEMBL570247
     RDKit          3D

  0  0  0  0  0  0  0  0  0  0999 V3000
M  V30 BEGIN CTAB
M  V30 COUNTS 44 48 0 0 0
M  V30 BEGIN ATOM
M  V30 1 C -0.842370 -1.546797 0.165217 0
M  V30 2 C 0.376174 -2.337205 0.001636 0
M  V30 3 C 1.534728 -1.600358 -0.049237 0
M  V30 4 N 1.841965 -0.235825 0.019548 0
M  V30 5 C 1.527754 0.954339 -0.639520 0
M  V30 6 C 2.124461 1.104734 -1.873825 0
M  V30 7 C 3.006686 0.096485 -2.440749 0
M  V30 8 N 3.728435 -0.699229 -2.902814 0
M  V30 9 C 1.944982 2.213922 -2.681182 0
M  V30 10 N 1.135237 3.161065 -2.181483 0
M  V30 11 C 0.548946 3.030575 -0.985129 0
M  V30 12 C 0.705799 1.948812 -0.163513 0
M  V30 13 C 0.073495 1.858552 1.139495 0
M  V30 14 C 0.068291 0.959212 2.173725 0
M  V30 15 C -0.729959 1.378498 3.215502 0
M  V30 16 C -1.057016 0.846036 4.444644 0
M  V30 17 C -1.912397 1.579913 5.236576 0
M  V30 18 C -2.410271 2.806623 4.786579 0
M  V30 19 C -2.071038 3.322380 3.553316 0
M  V30 20 C -1.204525 2.584438 2.744835 0
M  V30 21 O -0.717933 2.816383 1.554474 0
M  V30 22 C 2.726995 -2.321124 -0.221036 0
M  V30 23 C 2.744776 -3.716313 -0.334980 0
M  V30 24 C 1.537670 -4.379071 -0.273043 0
M  V30 25 N 1.159865 -5.675232 -0.341070 0
M  V30 26 C -0.177119 -5.814510 -0.224722 0
M  V30 27 C -0.735106 -4.552110 -0.070141 0
M  V30 28 C 0.347011 -3.707478 -0.105557 0
M  V30 29 H -1.163453 -1.485646 1.243488 0
M  V30 30 H -1.670656 -2.138254 -0.317406 0
M  V30 31 H -0.767942 -0.538377 -0.249890 0
M  V30 32 H 2.521628 0.118899 0.757116 0
M  V30 33 H 2.404314 2.344390 -3.646352 0
M  V30 34 H -0.072668 3.861333 -0.707545 0
M  V30 35 H 0.626088 0.045937 2.145721 0
M  V30 36 H -0.644627 -0.090981 4.727273 0
M  V30 37 H -2.205683 1.212469 6.213446 0
M  V30 38 H -3.094860 3.419040 5.391836 0
M  V30 39 H -2.450095 4.276000 3.188307 0
M  V30 40 H 3.749838 -1.937677 -0.287836 0
M  V30 41 H 3.606787 -4.322686 -0.466079 0
M  V30 42 H 1.804672 -6.489313 -0.467959 0
M  V30 43 H -0.740741 -6.740262 -0.245279 0
M  V30 44 H -1.780250 -4.282406 0.051200 0
M  V30 END ATOM
M  V30 BEGIN BOND
M  V30 1 1 1 2
M  V30 2 2 2 3
M  V30 3 1 3 4
M  V30 4 1 4 5
M  V30 5 2 5 6
M  V30 6 1 6 7
M  V30 7 3 7 8
M  V30 8 1 6 9
M  V30 9 2 9 10
M  V30 10 1 10 11
M  V30 11 2 11 12
M  V30 12 1 12 13
M  V30 13 2 13 14
M  V30 14 1 14 15
M  V30 15 2 15 16
M  V30 16 1 16 17
M  V30 17 2 17 18
M  V30 18 1 18 19
M  V30 19 2 19 20
M  V30 20 1 20 21
M  V30 21 1 3 22
M  V30 22 2 22 23
M  V30 23 1 23 24
M  V30 24 1 24 25
M  V30 25 1 25 26
M  V30 26 2 26 27
M  V30 27 1 27 28
M  V30 28 1 28 2
M  V30 29 1 12 5
M  V30 30 1 21 13
M  V30 31 2 28 24
M  V30 32 1 20 15
M  V30 33 1 1 29
M  V30 34 1 1 30
M  V30 35 1 1 31
M  V30 36 1 4 32
M  V30 37 1 9 33
M  V30 38 1 11 34
M  V30 39 1 14 35
M  V30 40 1 16 36
M  V30 41 1 17 37
M  V30 42 1 18 38
M  V30 43 1 19 39
M  V30 44 1 22 40
M  V30 45 1 23 41
M  V30 46 1 25 42
M  V30 47 1 26 43
M  V30 48 1 27 44
M  V30 END BOND
M  V30 END CTAB
M  END
>  <Dataset>  (598) 
ChEMBL_Kinases

>  <Ligand_Instance>  (598) 
nan

>  <PDB_ID>  (598) 
nan

>  <Standardized_SMILES>  (598) 
Cc1c(Nc2c(C#N)cncc2-c2cc3ccccc3o2)ccc2[nH]ccc12

>  <Name>  (598) 
nan

>  <Pocket>  (598) 
nan

>  <ATP_Site>  (598) 
nan

>  <Peripheral>  (598) 
nan

>  <Num_H_Atoms_ProtBoundConf>  (598) 
nan

>  <Num_Resolved_Atoms>  (598) 
nan

>  <Num_Not_Resolved_Atoms>  (598) 
nan

$$$$
CHEMBL3715380
     RDKit          3D

  0  0  0  0  0  0  0  0  0  0999 V3000
M  V30 BEGIN CTAB
M  V30 COUNTS 68 72 0 0 0
M  V30 BEGIN ATOM
M  V30 1 O 0.208331 1.152976 3.837006 0
M  V30 2 C 0.248182 0.532028 2.745409 0
M  V30 3 N 1.456467 0.540326 2.011779 0
M  V30 4 C 2.652473 1.229826 2.456200 0
M  V30 5 C 3.743170 0.207712 2.641036 0
M  V30 6 C 4.416742 -0.085622 1.310471 0
M  V30 7 C 5.175364 1.179818 0.913436 0
M  V30 8 C 4.172157 2.251010 0.671900 0
M  V30 9 C 4.330810 3.255289 -0.244430 0
M  V30 10 C 3.367894 4.235912 -0.437592 0
M  V30 11 C 2.202480 4.211700 0.313545 0
M  V30 12 C 2.029568 3.194161 1.249609 0
M  V30 13 C 3.008729 2.233668 1.416204 0
M  V30 14 C -1.004361 -0.148920 2.350673 0
M  V30 15 N -0.860847 -0.828233 1.094532 0
M  V30 16 C -1.050356 -2.238644 0.899223 0
M  V30 17 O -1.359435 -2.788120 1.987527 0
M  V30 18 C -0.854419 -2.744723 -0.477255 0
M  V30 19 C -1.776866 -2.121652 -1.447360 0
M  V30 20 C -3.152703 -2.109876 -1.362657 0
M  V30 21 C -3.968676 -1.517607 -2.298780 0
M  V30 22 C -3.424500 -0.893542 -3.391487 0
M  V30 23 C -2.055575 -0.857446 -3.555969 0
M  V30 24 C -1.300013 -1.465261 -2.589248 0
M  V30 25 C -0.832502 -4.224776 -0.462493 0
M  V30 26 C -0.638576 -4.891756 -1.798401 0
M  V30 27 C -0.746032 -6.367364 -1.391989 0
M  V30 28 C -1.589729 -6.381364 -0.114540 0
M  V30 29 C -2.045522 -4.918717 0.048879 0
M  V30 30 C -2.151644 0.811331 2.247732 0
M  V30 31 C -3.119192 0.952272 3.216409 0
M  V30 32 C -4.150196 1.855481 3.060349 0
M  V30 33 C -4.236179 2.639115 1.929628 0
M  V30 34 N -3.295935 2.514766 0.968385 0
M  V30 35 C -2.298635 1.625382 1.144121 0
M  V30 36 H 1.473561 0.024718 1.115274 0
M  V30 37 H 2.490316 1.734613 3.423867 0
M  V30 38 H 3.282092 -0.724260 3.008946 0
M  V30 39 H 4.526324 0.570009 3.360379 0
M  V30 40 H 5.154925 -0.884940 1.483517 0
M  V30 41 H 3.658339 -0.335185 0.565843 0
M  V30 42 H 5.846714 1.419119 1.775425 0
M  V30 43 H 5.820909 0.996792 0.040439 0
M  V30 44 H 5.250286 3.250204 -0.817383 0
M  V30 45 H 3.504236 5.026769 -1.166347 0
M  V30 46 H 1.458714 4.980801 0.154856 0
M  V30 47 H 1.092233 3.250456 1.792126 0
M  V30 48 H -1.283555 -0.895908 3.132963 0
M  V30 49 H -0.595516 -0.176687 0.304771 0
M  V30 50 H 0.196014 -2.433893 -0.774099 0
M  V30 51 H -3.611093 -2.584591 -0.520229 0
M  V30 52 H -5.047871 -1.554400 -2.155072 0
M  V30 53 H -4.034108 -0.417600 -4.147234 0
M  V30 54 H -1.566517 -0.381426 -4.394933 0
M  V30 55 H -0.210615 -1.437298 -2.718862 0
M  V30 56 H 0.028677 -4.540721 0.165664 0
M  V30 57 H 0.302025 -4.654914 -2.300020 0
M  V30 58 H -1.543027 -4.713532 -2.437819 0
M  V30 59 H -1.147033 -7.003346 -2.181619 0
M  V30 60 H 0.292035 -6.711423 -1.121915 0
M  V30 61 H -0.978751 -6.644550 0.778423 0
M  V30 62 H -2.471257 -7.043840 -0.228388 0
M  V30 63 H -2.894116 -4.844940 -0.694174 0
M  V30 64 H -2.335912 -4.707276 1.077045 0
M  V30 65 H -3.028683 0.317919 4.106003 0
M  V30 66 H -4.903912 1.959891 3.823428 0
M  V30 67 H -5.045315 3.339086 1.821142 0
M  V30 68 H -1.597815 1.600339 0.320900 0
M  V30 END ATOM
M  V30 BEGIN BOND
M  V30 1 2 1 2
M  V30 2 1 2 3
M  V30 3 1 3 4
M  V30 4 1 4 5
M  V30 5 1 5 6
M  V30 6 1 6 7
M  V30 7 1 7 8
M  V30 8 2 8 9
M  V30 9 1 9 10
M  V30 10 2 10 11
M  V30 11 1 11 12
M  V30 12 2 12 13
M  V30 13 1 2 14
M  V30 14 1 14 15
M  V30 15 1 15 16
M  V30 16 2 16 17
M  V30 17 1 16 18
M  V30 18 1 18 19
M  V30 19 2 19 20
M  V30 20 1 20 21
M  V30 21 2 21 22
M  V30 22 1 22 23
M  V30 23 2 23 24
M  V30 24 1 18 25
M  V30 25 1 25 26
M  V30 26 1 26 27
M  V30 27 1 27 28
M  V30 28 1 28 29
M  V30 29 1 14 30
M  V30 30 2 30 31
M  V30 31 1 31 32
M  V30 32 2 32 33
M  V30 33 1 33 34
M  V30 34 2 34 35
M  V30 35 1 13 4
M  V30 36 1 24 19
M  V30 37 1 29 25
M  V30 38 1 35 30
M  V30 39 1 13 8
M  V30 40 1 3 36
M  V30 41 1 4 37
M  V30 42 1 5 38
M  V30 43 1 5 39
M  V30 44 1 6 40
M  V30 45 1 6 41
M  V30 46 1 7 42
M  V30 47 1 7 43
M  V30 48 1 9 44
M  V30 49 1 10 45
M  V30 50 1 11 46
M  V30 51 1 12 47
M  V30 52 1 14 48
M  V30 53 1 15 49
M  V30 54 1 18 50
M  V30 55 1 20 51
M  V30 56 1 21 52
M  V30 57 1 22 53
M  V30 58 1 23 54
M  V30 59 1 24 55
M  V30 60 1 25 56
M  V30 61 1 26 57
M  V30 62 1 26 58
M  V30 63 1 27 59
M  V30 64 1 27 60
M  V30 65 1 28 61
M  V30 66 1 28 62
M  V30 67 1 29 63
M  V30 68 1 29 64
M  V30 69 1 31 65
M  V30 70 1 32 66
M  V30 71 1 33 67
M  V30 72 1 35 68
M  V30 END BOND
M  V30 END CTAB
M  END
>  <Dataset>  (599) 
ChEMBL_Kinases

>  <Ligand_Instance>  (599) 
nan

>  <PDB_ID>  (599) 
nan

>  <Standardized_SMILES>  (599) 
O=C(NC1CCCc2ccccc21)C(NC(=O)C(c1ccccc1)C1CCCC1)c1cccnc1

>  <Name>  (599) 
nan

>  <Pocket>  (599) 
nan

>  <ATP_Site>  (599) 
nan

>  <Peripheral>  (599) 
nan

>  <Num_H_Atoms_ProtBoundConf>  (599) 
nan

>  <Num_Resolved_Atoms>  (599) 
nan

>  <Num_Not_Resolved_Atoms>  (599) 
nan

$$$$
CHEMBL570474
     RDKit          3D

  0  0  0  0  0  0  0  0  0  0999 V3000
M  V30 BEGIN CTAB
M  V30 COUNTS 67 70 0 0 0
M  V30 BEGIN ATOM
M  V30 1 C 1.432513 -0.168346 5.794207 0
M  V30 2 C 1.671369 -0.632243 4.318150 0 CFG=2
M  V30 3 C 3.107047 -0.825920 4.167835 0
M  V30 4 C 3.885239 -1.039302 5.314844 0
M  V30 5 C 5.242949 -1.231920 5.357632 0
M  V30 6 F 5.945112 -1.432500 6.481756 0
M  V30 7 C 5.942013 -1.221266 4.181674 0
M  V30 8 C 5.260797 -1.019090 3.009128 0
M  V30 9 F 5.923872 -1.003208 1.828813 0
M  V30 10 C 3.909914 -0.835511 3.056138 0
M  V30 11 N 1.088466 0.380733 3.449612 0
M  V30 12 C -0.151429 0.097866 2.795493 0
M  V30 13 C 0.009205 -0.470780 1.439066 0
M  V30 14 O 1.087363 -0.706285 0.850922 0
M  V30 15 N -1.160989 -0.788370 0.714490 0
M  V30 16 C -1.329098 -1.333052 -0.576252 0
M  V30 17 C -0.338535 -1.692835 -1.458215 0
M  V30 18 C -0.514229 -2.225276 -2.716721 0
M  V30 19 C -1.805553 -2.427543 -3.159922 0
M  V30 20 C -2.834586 -2.080994 -2.308465 0
M  V30 21 C -2.599638 -1.552330 -1.060737 0
M  V30 22 C -4.118848 -2.395972 -3.017739 0
M  V30 23 C -3.708366 -3.283264 -4.155242 0 CFG=1
M  V30 24 C -2.271315 -2.981829 -4.458779 0
M  V30 25 C -3.988920 -4.698100 -3.875547 0
M  V30 26 O -3.723427 -5.241389 -2.778441 0
M  V30 27 N -4.589781 -5.295648 -5.037103 0
M  V30 28 C -4.867233 -4.242496 -5.922396 0
M  V30 29 O -5.407853 -4.387824 -7.070436 0
M  V30 30 N -4.464962 -2.996367 -5.366890 0
M  V30 31 C -4.762560 -1.676259 -5.921022 0
M  V30 32 C 1.811509 1.582803 3.387301 0
M  V30 33 O 2.857336 1.562235 4.089432 0
M  V30 34 C 1.544532 2.836188 2.645288 0
M  V30 35 C 0.241382 3.423920 3.142544 0
M  V30 36 C 1.465271 2.541670 1.148208 0
M  V30 37 C 2.678967 3.827524 2.798012 0
M  V30 38 H 2.230539 0.522938 6.042623 0
M  V30 39 H 0.432250 0.296670 5.812368 0
M  V30 40 H 1.406055 -1.052567 6.453649 0
M  V30 41 H 1.130799 -1.574921 4.287026 0
M  V30 42 H 3.439485 -1.072800 6.321716 0
M  V30 43 H 7.009909 -1.366766 4.147110 0
M  V30 44 H 3.421171 -0.677399 2.116144 0
M  V30 45 H -0.831527 0.979557 2.796277 0
M  V30 46 H -0.677014 -0.700358 3.405862 0
M  V30 47 H -2.065968 -0.578040 1.238170 0
M  V30 48 H 0.693083 -1.561713 -1.176932 0
M  V30 49 H 0.315386 -2.483574 -3.352947 0
M  V30 50 H -3.488995 -1.310781 -0.461999 0
M  V30 51 H -4.761024 -2.870720 -2.268898 0
M  V30 52 H -4.581546 -1.496275 -3.438142 0
M  V30 53 H -1.775736 -3.978473 -4.651846 0
M  V30 54 H -2.095850 -2.323057 -5.307850 0
M  V30 55 H -4.771832 -6.326381 -5.165784 0
M  V30 56 H -4.059082 -0.920887 -5.524768 0
M  V30 57 H -5.789122 -1.360754 -5.663966 0
M  V30 58 H -4.575167 -1.679005 -7.031225 0
M  V30 59 H -0.102473 2.880662 4.041451 0
M  V30 60 H -0.556575 3.311768 2.365583 0
M  V30 61 H 0.400949 4.506048 3.384656 0
M  V30 62 H 0.420209 2.348667 0.908555 0
M  V30 63 H 2.199205 1.804957 0.825511 0
M  V30 64 H 1.728304 3.486733 0.593853 0
M  V30 65 H 2.538496 4.478211 3.669901 0
M  V30 66 H 2.648462 4.521863 1.910140 0
M  V30 67 H 3.660835 3.329162 2.741899 0
M  V30 END ATOM
M  V30 BEGIN BOND
M  V30 1 1 1 2
M  V30 2 1 2 3
M  V30 3 2 3 4
M  V30 4 1 4 5
M  V30 5 1 5 6
M  V30 6 2 5 7
M  V30 7 1 7 8
M  V30 8 1 8 9
M  V30 9 2 8 10
M  V30 10 1 2 11
M  V30 11 1 11 12
M  V30 12 1 12 13
M  V30 13 2 13 14
M  V30 14 1 13 15
M  V30 15 1 15 16
M  V30 16 2 16 17
M  V30 17 1 17 18
M  V30 18 2 18 19
M  V30 19 1 19 20
M  V30 20 2 20 21
M  V30 21 1 20 22
M  V30 22 1 22 23
M  V30 23 1 23 24
M  V30 24 1 23 25
M  V30 25 2 25 26
M  V30 26 1 25 27
M  V30 27 1 27 28
M  V30 28 2 28 29
M  V30 29 1 28 30
M  V30 30 1 30 31
M  V30 31 1 11 32
M  V30 32 2 32 33
M  V30 33 1 32 34
M  V30 34 1 34 35
M  V30 35 1 34 36
M  V30 36 1 34 37
M  V30 37 1 10 3
M  V30 38 1 21 16
M  V30 39 1 23 30 CFG=3
M  V30 40 1 24 19
M  V30 41 1 1 38
M  V30 42 1 1 39
M  V30 43 1 1 40
M  V30 44 1 2 41 CFG=1
M  V30 45 1 4 42
M  V30 46 1 7 43
M  V30 47 1 10 44
M  V30 48 1 12 45
M  V30 49 1 12 46
M  V30 50 1 15 47
M  V30 51 1 17 48
M  V30 52 1 18 49
M  V30 53 1 21 50
M  V30 54 1 22 51
M  V30 55 1 22 52
M  V30 56 1 24 53
M  V30 57 1 24 54
M  V30 58 1 27 55
M  V30 59 1 31 56
M  V30 60 1 31 57
M  V30 61 1 31 58
M  V30 62 1 35 59
M  V30 63 1 35 60
M  V30 64 1 35 61
M  V30 65 1 36 62
M  V30 66 1 36 63
M  V30 67 1 36 64
M  V30 68 1 37 65
M  V30 69 1 37 66
M  V30 70 1 37 67
M  V30 END BOND
M  V30 END CTAB
M  END
>  <Dataset>  (600) 
ChEMBL_Kinases

>  <Ligand_Instance>  (600) 
nan

>  <PDB_ID>  (600) 
nan

>  <Standardized_SMILES>  (600) 
C[C@H](c1cc(F)cc(F)c1)N(CC(=O)Nc1ccc2c(c1)C[C@@]1(C2)C(=O)NC(=O)N1C)C(=O)C(C)(C)C

>  <Name>  (600) 
nan

>  <Pocket>  (600) 
nan

>  <ATP_Site>  (600) 
nan

>  <Peripheral>  (600) 
nan

>  <Num_H_Atoms_ProtBoundConf>  (600) 
nan

>  <Num_Resolved_Atoms>  (600) 
nan

>  <Num_Not_Resolved_Atoms>  (600) 
nan

$$$$
CHEMBL570277
     RDKit          3D

  0  0  0  0  0  0  0  0  0  0999 V3000
M  V30 BEGIN CTAB
M  V30 COUNTS 64 69 0 0 0
M  V30 BEGIN ATOM
M  V30 1 C 1.315366 0.413336 5.276728 0
M  V30 2 C 1.393509 1.687212 4.482045 0
M  V30 3 C 2.179321 1.673984 3.338211 0
M  V30 4 N 2.899948 0.521752 2.897844 0
M  V30 5 C 3.638099 0.706522 1.720790 0
M  V30 6 C 4.963926 1.148429 1.821744 0
M  V30 7 C 5.530239 1.399421 3.116531 0
M  V30 8 N 5.973319 1.602928 4.177727 0
M  V30 9 C 5.707753 1.335838 0.656353 0
M  V30 10 N 5.204322 1.108067 -0.591441 0
M  V30 11 C 3.914673 0.676972 -0.713561 0
M  V30 12 C 3.225888 0.507410 0.444711 0
M  V30 13 C 1.851905 0.045361 0.256185 0
M  V30 14 C 1.033882 -0.277799 -0.864704 0
M  V30 15 C -0.245246 -0.688507 -0.643276 0
M  V30 16 C -1.122043 -1.025344 -1.650006 0
M  V30 17 C -2.372480 -1.420406 -1.303392 0
M  V30 18 C -3.352139 -1.795578 -2.387886 0
M  V30 19 N -3.353248 -3.133150 -2.755878 0
M  V30 20 C -4.245278 -3.557337 -3.766861 0
M  V30 21 C -3.592421 -4.425727 -4.811553 0
M  V30 22 N -2.828005 -5.508138 -4.223092 0
M  V30 23 C -3.660502 -6.476071 -3.578891 0
M  V30 24 C -1.821064 -4.924864 -3.381185 0
M  V30 25 C -2.362309 -4.014139 -2.312205 0
M  V30 26 C -2.882650 -1.527716 -0.035802 0
M  V30 27 C -2.050681 -1.205077 0.983553 0
M  V30 28 C -0.687231 -0.768793 0.719762 0
M  V30 29 S 0.667704 -0.276620 1.677321 0
M  V30 30 C 2.241751 2.867253 2.610051 0
M  V30 31 C 1.543333 4.007851 3.024354 0
M  V30 32 C 0.773488 3.975969 4.168867 0
M  V30 33 N 0.019738 4.937620 4.759727 0
M  V30 34 C -0.535574 4.393332 5.863593 0
M  V30 35 C -0.132820 3.069295 5.980259 0
M  V30 36 C 0.701152 2.806338 4.898934 0
M  V30 37 H 0.689340 -0.266131 4.694583 0
M  V30 38 H 2.341845 0.039597 5.452957 0
M  V30 39 H 0.902783 0.668999 6.275244 0
M  V30 40 H 2.799412 -0.332528 3.499096 0
M  V30 41 H 6.740339 1.681754 0.772261 0
M  V30 42 H 3.503136 0.492681 -1.694450 0
M  V30 43 H 1.575059 -0.143297 -1.778506 0
M  V30 44 H -0.890630 -1.000008 -2.710773 0
M  V30 45 H -4.358493 -1.410480 -2.095500 0
M  V30 46 H -3.074104 -1.173538 -3.275189 0
M  V30 47 H -5.133498 -4.087038 -3.332668 0
M  V30 48 H -4.650751 -2.664350 -4.287067 0
M  V30 49 H -4.365184 -4.844105 -5.487929 0
M  V30 50 H -2.917345 -3.798091 -5.429153 0
M  V30 51 H -3.156065 -6.782015 -2.628809 0
M  V30 52 H -3.755977 -7.369415 -4.257327 0
M  V30 53 H -4.674542 -6.123763 -3.310319 0
M  V30 54 H -1.282140 -5.777173 -2.882108 0
M  V30 55 H -1.060973 -4.443202 -4.019533 0
M  V30 56 H -2.736481 -4.658205 -1.476658 0
M  V30 57 H -1.503517 -3.445275 -1.899730 0
M  V30 58 H -3.863297 -1.836866 0.247016 0
M  V30 59 H -2.205104 -1.205458 2.037634 0
M  V30 60 H 2.828444 2.952142 1.705607 0
M  V30 61 H 1.614726 4.919219 2.433143 0
M  V30 62 H -0.101590 5.930559 4.407419 0
M  V30 63 H -1.196193 4.886542 6.568414 0
M  V30 64 H -0.394357 2.344440 6.750501 0
M  V30 END ATOM
M  V30 BEGIN BOND
M  V30 1 1 1 2
M  V30 2 2 2 3
M  V30 3 1 3 4
M  V30 4 1 4 5
M  V30 5 2 5 6
M  V30 6 1 6 7
M  V30 7 3 7 8
M  V30 8 1 6 9
M  V30 9 2 9 10
M  V30 10 1 10 11
M  V30 11 2 11 12
M  V30 12 1 12 13
M  V30 13 2 13 14
M  V30 14 1 14 15
M  V30 15 2 15 16
M  V30 16 1 16 17
M  V30 17 1 17 18
M  V30 18 1 18 19
M  V30 19 1 19 20
M  V30 20 1 20 21
M  V30 21 1 21 22
M  V30 22 1 22 23
M  V30 23 1 22 24
M  V30 24 1 24 25
M  V30 25 2 17 26
M  V30 26 1 26 27
M  V30 27 2 27 28
M  V30 28 1 28 29
M  V30 29 1 3 30
M  V30 30 2 30 31
M  V30 31 1 31 32
M  V30 32 1 32 33
M  V30 33 1 33 34
M  V30 34 2 34 35
M  V30 35 1 35 36
M  V30 36 1 36 2
M  V30 37 1 12 5
M  V30 38 1 29 13
M  V30 39 2 36 32
M  V30 40 1 28 15
M  V30 41 1 25 19
M  V30 42 1 1 37
M  V30 43 1 1 38
M  V30 44 1 1 39
M  V30 45 1 4 40
M  V30 46 1 9 41
M  V30 47 1 11 42
M  V30 48 1 14 43
M  V30 49 1 16 44
M  V30 50 1 18 45
M  V30 51 1 18 46
M  V30 52 1 20 47
M  V30 53 1 20 48
M  V30 54 1 21 49
M  V30 55 1 21 50
M  V30 56 1 23 51
M  V30 57 1 23 52
M  V30 58 1 23 53
M  V30 59 1 24 54
M  V30 60 1 24 55
M  V30 61 1 25 56
M  V30 62 1 25 57
M  V30 63 1 26 58
M  V30 64 1 27 59
M  V30 65 1 30 60
M  V30 66 1 31 61
M  V30 67 1 33 62
M  V30 68 1 34 63
M  V30 69 1 35 64
M  V30 END BOND
M  V30 END CTAB
M  END
>  <Dataset>  (601) 
ChEMBL_Kinases

>  <Ligand_Instance>  (601) 
nan

>  <PDB_ID>  (601) 
nan

>  <Standardized_SMILES>  (601) 
Cc1c(Nc2c(C#N)cncc2-c2cc3cc(CN4CCN(C)CC4)ccc3s2)ccc2[nH]ccc12

>  <Name>  (601) 
nan

>  <Pocket>  (601) 
nan

>  <ATP_Site>  (601) 
nan

>  <Peripheral>  (601) 
nan

>  <Num_H_Atoms_ProtBoundConf>  (601) 
nan

>  <Num_Resolved_Atoms>  (601) 
nan

>  <Num_Not_Resolved_Atoms>  (601) 
nan

$$$$
CHEMBL570345
     RDKit          3D

  0  0  0  0  0  0  0  0  0  0999 V3000
M  V30 BEGIN CTAB
M  V30 COUNTS 26 28 0 0 0
M  V30 BEGIN ATOM
M  V30 1 O 3.060157 1.747913 1.966627 0
M  V30 2 C 2.221974 1.001089 1.351771 0
M  V30 3 C 2.708249 -0.358767 1.219432 0
M  V30 4 C 3.775585 -0.871855 2.017235 0
M  V30 5 C 4.104746 -2.154906 1.692237 0
M  V30 6 C 3.502832 -2.947324 0.692846 0
M  V30 7 S 2.269170 -1.720818 0.092087 0
M  V30 8 C 0.988876 1.588616 0.900913 0
M  V30 9 N 1.093979 2.922533 0.616618 0
M  V30 10 O -0.074455 3.335331 0.225637 0
M  V30 11 N -0.954745 2.414409 0.219889 0 CHG=1 VAL=4
M  V30 12 O -2.232103 2.643948 -0.148846 0 CHG=-1 VAL=1
M  V30 13 C -0.328125 1.308792 0.637744 0
M  V30 14 C -0.867193 0.002863 0.902644 0
M  V30 15 O -0.307867 -0.786734 1.686825 0
M  V30 16 C -2.081458 -0.432445 0.258745 0
M  V30 17 C -2.594826 -1.700512 0.590788 0
M  V30 18 C -3.724657 -2.187798 0.025594 0
M  V30 19 C -4.377398 -1.332606 -0.940441 0
M  V30 20 S -3.228595 0.178270 -0.937020 0
M  V30 21 H 4.336652 -0.408975 2.810506 0
M  V30 22 H 4.872145 -2.764923 2.144481 0
M  V30 23 H 3.516936 -3.829844 0.258660 0
M  V30 24 H -2.315856 -2.507405 1.252068 0
M  V30 25 H -4.451101 -2.951093 -0.084697 0
M  V30 26 H -5.136963 -0.924689 -1.734198 0
M  V30 END ATOM
M  V30 BEGIN BOND
M  V30 1 2 1 2
M  V30 2 1 2 3
M  V30 3 2 3 4
M  V30 4 1 4 5
M  V30 5 2 5 6
M  V30 6 1 6 7
M  V30 7 1 2 8
M  V30 8 2 8 9
M  V30 9 1 9 10
M  V30 10 1 10 11
M  V30 11 1 11 12
M  V30 12 2 11 13
M  V30 13 1 13 14
M  V30 14 2 14 15
M  V30 15 1 14 16
M  V30 16 2 16 17
M  V30 17 1 17 18
M  V30 18 2 18 19
M  V30 19 1 19 20
M  V30 20 1 7 3
M  V30 21 1 13 8
M  V30 22 1 20 16
M  V30 23 1 4 21
M  V30 24 1 5 22
M  V30 25 1 6 23
M  V30 26 1 17 24
M  V30 27 1 18 25
M  V30 28 1 19 26
M  V30 END BOND
M  V30 END CTAB
M  END
>  <Dataset>  (602) 
ChEMBL_Kinases

>  <Ligand_Instance>  (602) 
nan

>  <PDB_ID>  (602) 
nan

>  <Standardized_SMILES>  (602) 
O=C(c1cccs1)c1no[n+]([O-])c1C(=O)c1cccs1

>  <Name>  (602) 
nan

>  <Pocket>  (602) 
nan

>  <ATP_Site>  (602) 
nan

>  <Peripheral>  (602) 
nan

>  <Num_H_Atoms_ProtBoundConf>  (602) 
nan

>  <Num_Resolved_Atoms>  (602) 
nan

>  <Num_Not_Resolved_Atoms>  (602) 
nan

$$$$
CHEMBL3715401
     RDKit          3D

  0  0  0  0  0  0  0  0  0  0999 V3000
M  V30 BEGIN CTAB
M  V30 COUNTS 44 46 0 0 0
M  V30 BEGIN ATOM
M  V30 1 C 3.268948 -4.669265 -0.412922 0
M  V30 2 C 3.531456 -3.458392 0.410236 0
M  V30 3 O 2.539696 -2.467533 0.367900 0
M  V30 4 C 2.118124 -1.797284 -0.772022 0
M  V30 5 C 2.652417 -2.048378 -2.022807 0
M  V30 6 C 2.159419 -1.687162 -3.259695 0
M  V30 7 C 1.144913 -0.811510 -3.584504 0
M  V30 8 C 0.315353 -0.134186 -2.726787 0
M  V30 9 O -0.556347 0.578487 -3.288312 0
M  V30 10 C 0.314898 -0.134705 -1.345259 0
M  V30 11 C -0.514848 0.629606 -0.549040 0
M  V30 12 C -1.533425 1.568878 -1.062553 0
M  V30 13 N -0.267987 0.401179 0.754592 0
M  V30 14 C -0.873232 0.958327 1.919260 0
M  V30 15 C -0.600279 2.231873 2.379910 0
M  V30 16 C -1.262059 2.638414 3.522321 0
M  V30 17 C -2.161544 1.841910 4.202811 0
M  V30 18 C -2.877036 2.276497 5.434742 0
M  V30 19 C -2.418586 0.572392 3.723615 0
M  V30 20 C -1.770820 0.118248 2.569056 0
M  V30 21 C 0.734621 -0.523059 0.833033 0
M  V30 22 C 1.339984 -1.081852 2.064206 0
M  V30 23 C 1.114350 -0.872219 -0.464376 0
M  V30 24 H 3.271857 -5.567658 0.215260 0
M  V30 25 H 4.054565 -4.819700 -1.178253 0
M  V30 26 H 2.300882 -4.668047 -0.950069 0
M  V30 27 H 4.538882 -3.045103 0.125441 0
M  V30 28 H 3.649891 -3.738100 1.477257 0
M  V30 29 H 3.563518 -2.596716 -1.937919 0
M  V30 30 H 2.660273 -2.178276 -4.085942 0
M  V30 31 H 1.042395 -0.687153 -4.659128 0
M  V30 32 H -0.980797 2.282600 -1.737653 0
M  V30 33 H -2.354280 1.083657 -1.617719 0
M  V30 34 H -1.956847 2.203969 -0.269758 0
M  V30 35 H 0.097053 2.848031 1.851542 0
M  V30 36 H -1.095499 3.616216 3.933191 0
M  V30 37 H -3.918962 1.922545 5.354701 0
M  V30 38 H -2.775760 3.344498 5.628800 0
M  V30 39 H -2.449614 1.757596 6.341994 0
M  V30 40 H -3.107938 -0.114357 4.195761 0
M  V30 41 H -1.984539 -0.895693 2.197535 0
M  V30 42 H 2.429480 -0.830543 2.151067 0
M  V30 43 H 1.139405 -2.149167 2.212279 0
M  V30 44 H 0.875907 -0.569684 2.935794 0
M  V30 END ATOM
M  V30 BEGIN BOND
M  V30 1 1 1 2
M  V30 2 1 2 3
M  V30 3 1 3 4
M  V30 4 2 4 5
M  V30 5 1 5 6
M  V30 6 2 6 7
M  V30 7 1 7 8
M  V30 8 2 8 9
M  V30 9 1 8 10
M  V30 10 2 10 11
M  V30 11 1 11 12
M  V30 12 1 11 13
M  V30 13 1 13 14
M  V30 14 2 14 15
M  V30 15 1 15 16
M  V30 16 2 16 17
M  V30 17 1 17 18
M  V30 18 1 17 19
M  V30 19 2 19 20
M  V30 20 1 13 21
M  V30 21 1 21 22
M  V30 22 2 21 23
M  V30 23 1 23 4
M  V30 24 1 23 10
M  V30 25 1 20 14
M  V30 26 1 1 24
M  V30 27 1 1 25
M  V30 28 1 1 26
M  V30 29 1 2 27
M  V30 30 1 2 28
M  V30 31 1 5 29
M  V30 32 1 6 30
M  V30 33 1 7 31
M  V30 34 1 12 32
M  V30 35 1 12 33
M  V30 36 1 12 34
M  V30 37 1 15 35
M  V30 38 1 16 36
M  V30 39 1 18 37
M  V30 40 1 18 38
M  V30 41 1 18 39
M  V30 42 1 19 40
M  V30 43 1 20 41
M  V30 44 1 22 42
M  V30 45 1 22 43
M  V30 46 1 22 44
M  V30 END BOND
M  V30 END CTAB
M  END
>  <Dataset>  (603) 
ChEMBL_Kinases

>  <Ligand_Instance>  (603) 
nan

>  <PDB_ID>  (603) 
nan

>  <Standardized_SMILES>  (603) 
CCOc1cccc(=O)c2c(C)n(-c3ccc(C)cc3)c(C)c12

>  <Name>  (603) 
nan

>  <Pocket>  (603) 
nan

>  <ATP_Site>  (603) 
nan

>  <Peripheral>  (603) 
nan

>  <Num_H_Atoms_ProtBoundConf>  (603) 
nan

>  <Num_Resolved_Atoms>  (603) 
nan

>  <Num_Not_Resolved_Atoms>  (603) 
nan

$$$$
CHEMBL3715897
     RDKit          3D

  0  0  0  0  0  0  0  0  0  0999 V3000
M  V30 BEGIN CTAB
M  V30 COUNTS 58 62 0 0 0
M  V30 BEGIN ATOM
M  V30 1 N 0.892919 -5.625912 2.990920 0
M  V30 2 C 1.692863 -4.970656 1.976389 0 CFG=1
M  V30 3 C 0.964584 -3.665746 1.642173 0
M  V30 4 C 1.723821 -3.046138 0.494991 0
M  V30 5 C 3.084268 -2.656716 0.951889 0 CFG=1
M  V30 6 C 3.007819 -1.442165 1.827744 0
M  V30 7 N 2.413344 -0.348638 1.066583 0
M  V30 8 C 2.311604 0.850822 1.863621 0
M  V30 9 O 2.721504 0.864533 3.072266 0
M  V30 10 C 1.718719 2.050517 1.230205 0
M  V30 11 C 2.278614 3.320935 1.241940 0
M  V30 12 C 1.603126 4.352693 0.612647 0
M  V30 13 C 0.394994 4.143538 -0.019915 0
M  V30 14 O -0.297153 5.150669 -0.652012 0
M  V30 15 C -0.150689 2.893416 -0.028872 0
M  V30 16 N -1.266780 2.337593 -0.529138 0
M  V30 17 C -1.393338 1.033894 -0.289980 0
M  V30 18 C -2.315524 -0.040293 -0.558006 0
M  V30 19 C -3.735642 0.148615 -0.025591 0
M  V30 20 C -4.606011 -0.653492 -0.933743 0
M  V30 21 C -5.008323 0.251440 -2.077157 0
M  V30 22 C -3.621614 0.602652 -2.630550 0
M  V30 23 C -2.637226 -0.332753 -2.001903 0
M  V30 24 C -3.591490 -1.516847 -1.706577 0
M  V30 25 N -0.251457 0.768446 0.421553 0
M  V30 26 C 0.491225 1.850134 0.584263 0
M  V30 27 C 3.858188 -3.782742 1.582408 0
M  V30 28 C 3.024920 -4.600669 2.534220 0
M  V30 29 H 1.342500 -5.699393 3.913743 0
M  V30 30 H -0.099784 -5.289281 3.005496 0
M  V30 31 H 1.736530 -5.555179 1.045582 0
M  V30 32 H -0.094104 -3.875515 1.370447 0
M  V30 33 H 1.043469 -2.991699 2.514800 0
M  V30 34 H 1.198716 -2.139913 0.133389 0
M  V30 35 H 1.746402 -3.780264 -0.357448 0
M  V30 36 H 3.674690 -2.348703 0.037503 0
M  V30 37 H 2.462506 -1.572465 2.762628 0
M  V30 38 H 4.056576 -1.074623 2.051337 0
M  V30 39 H 2.066389 -0.301099 0.079845 0
M  V30 40 H 3.228376 3.412991 1.758180 0
M  V30 41 H 2.047747 5.324502 0.631729 0
M  V30 42 H -1.058610 5.626190 -0.186285 0
M  V30 43 H -1.997580 2.848270 -1.062414 0
M  V30 44 H -2.010366 -1.031098 -0.128643 0
M  V30 45 H -3.984203 1.238525 -0.132074 0
M  V30 46 H -3.823162 -0.102958 1.049062 0
M  V30 47 H -5.400185 -1.236068 -0.485325 0
M  V30 48 H -5.587202 -0.373835 -2.792372 0
M  V30 49 H -5.548777 1.122052 -1.694000 0
M  V30 50 H -3.645442 0.347807 -3.726990 0
M  V30 51 H -3.463992 1.663087 -2.467022 0
M  V30 52 H -1.795000 -0.619854 -2.628636 0
M  V30 53 H -3.091108 -2.241050 -1.053753 0
M  V30 54 H -4.010099 -1.941023 -2.622319 0
M  V30 55 H 4.306296 -4.439483 0.807759 0
M  V30 56 H 4.694477 -3.337333 2.157353 0
M  V30 57 H 3.584591 -5.531191 2.763007 0
M  V30 58 H 2.857689 -4.076382 3.502319 0
M  V30 END ATOM
M  V30 BEGIN BOND
M  V30 1 1 1 2
M  V30 2 1 2 3
M  V30 3 1 3 4
M  V30 4 1 4 5
M  V30 5 1 5 6
M  V30 6 1 6 7
M  V30 7 1 7 8
M  V30 8 2 8 9
M  V30 9 1 8 10
M  V30 10 1 10 11
M  V30 11 2 11 12
M  V30 12 1 12 13
M  V30 13 1 13 14
M  V30 14 2 13 15
M  V30 15 1 15 16
M  V30 16 1 16 17
M  V30 17 1 17 18
M  V30 18 1 18 19
M  V30 19 1 19 20
M  V30 20 1 20 21
M  V30 21 1 21 22
M  V30 22 1 22 23
M  V30 23 1 23 24
M  V30 24 2 17 25
M  V30 25 1 25 26
M  V30 26 1 5 27
M  V30 27 1 27 28
M  V30 28 1 28 2
M  V30 29 2 26 10
M  V30 30 1 26 15
M  V30 31 1 23 18
M  V30 32 1 24 20
M  V30 33 1 1 29
M  V30 34 1 1 30
M  V30 35 1 2 31 CFG=3
M  V30 36 1 3 32
M  V30 37 1 3 33
M  V30 38 1 4 34
M  V30 39 1 4 35
M  V30 40 1 5 36 CFG=3
M  V30 41 1 6 37
M  V30 42 1 6 38
M  V30 43 1 7 39
M  V30 44 1 11 40
M  V30 45 1 12 41
M  V30 46 1 14 42
M  V30 47 1 16 43
M  V30 48 1 18 44
M  V30 49 1 19 45
M  V30 50 1 19 46
M  V30 51 1 20 47
M  V30 52 1 21 48
M  V30 53 1 21 49
M  V30 54 1 22 50
M  V30 55 1 22 51
M  V30 56 1 23 52
M  V30 57 1 24 53
M  V30 58 1 24 54
M  V30 59 1 27 55
M  V30 60 1 27 56
M  V30 61 1 28 57
M  V30 62 1 28 58
M  V30 END BOND
M  V30 END CTAB
M  END
>  <Dataset>  (604) 
ChEMBL_Kinases

>  <Ligand_Instance>  (604) 
nan

>  <PDB_ID>  (604) 
nan

>  <Standardized_SMILES>  (604) 
N[C@H]1CC[C@@H](CNC(=O)c2ccc(O)c3[nH]c(C4CC5CCC4C5)nc23)CC1

>  <Name>  (604) 
nan

>  <Pocket>  (604) 
nan

>  <ATP_Site>  (604) 
nan

>  <Peripheral>  (604) 
nan

>  <Num_H_Atoms_ProtBoundConf>  (604) 
nan

>  <Num_Resolved_Atoms>  (604) 
nan

>  <Num_Not_Resolved_Atoms>  (604) 
nan

$$$$
CHEMBL3715887
     RDKit          3D

  0  0  0  0  0  0  0  0  0  0999 V3000
M  V30 BEGIN CTAB
M  V30 COUNTS 61 64 0 0 0
M  V30 BEGIN ATOM
M  V30 1 O -2.979787 -2.333036 2.378927 0
M  V30 2 C -3.600413 -1.329307 2.876007 0
M  V30 3 C -3.183348 -0.570409 4.085766 0
M  V30 4 O -2.002087 -1.045415 4.681145 0
M  V30 5 C -0.778701 -1.078125 4.055773 0
M  V30 6 C 0.184101 -1.611151 4.917471 0
M  V30 7 C 1.521103 -1.752567 4.521640 0
M  V30 8 C 1.904092 -1.360413 3.256282 0
M  V30 9 O 3.237471 -1.490097 2.834234 0
M  V30 10 C 3.548330 -1.054682 1.500484 0
M  V30 11 C 5.000414 -1.269252 1.260281 0
M  V30 12 C 5.559015 -2.426208 0.740442 0
M  V30 13 C 6.941176 -2.518600 0.558267 0
M  V30 14 C 7.744192 -1.429076 0.908209 0
M  V30 15 C 7.200515 -0.253533 1.434461 0
M  V30 16 C 5.819757 -0.195528 1.602781 0
M  V30 17 C 0.941891 -0.831476 2.403280 0
M  V30 18 C -0.372944 -0.693864 2.798282 0
M  V30 19 N -4.814991 -0.838807 2.261090 0
M  V30 20 C -5.360684 -1.443779 1.089775 0
M  V30 21 C -4.529491 -1.430490 -0.107577 0
M  V30 22 O -5.121457 -2.003390 -1.063433 0
M  V30 23 N -3.242244 -0.916203 -0.382680 0
M  V30 24 C -2.643309 -1.038793 -1.668072 0
M  V30 25 C -1.378800 -1.866252 -1.696267 0
M  V30 26 C -1.121992 -2.165161 -3.180578 0
M  V30 27 C -0.806358 -0.937501 -3.961270 0
M  V30 28 C -1.431182 0.252223 -3.322029 0
M  V30 29 C -1.062485 1.438803 -3.915477 0
M  V30 30 C -1.537918 2.668450 -3.467626 0
M  V30 31 C -2.404574 2.665544 -2.393701 0
M  V30 32 C -2.800297 1.474550 -1.766267 0
M  V30 33 C -2.301376 0.281640 -2.247679 0
M  V30 34 H -3.146227 0.525415 3.878690 0
M  V30 35 H -4.005645 -0.664378 4.852905 0
M  V30 36 H 0.024100 -1.962831 5.947172 0
M  V30 37 H 2.279276 -2.167321 5.185336 0
M  V30 38 H 2.998242 -1.689104 0.750441 0
M  V30 39 H 3.240341 -0.017805 1.329399 0
M  V30 40 H 4.885554 -3.228531 0.491914 0
M  V30 41 H 7.362430 -3.433423 0.149658 0
M  V30 42 H 8.819547 -1.469744 0.778529 0
M  V30 43 H 7.878859 0.551054 1.686415 0
M  V30 44 H 5.419663 0.716744 2.010125 0
M  V30 45 H 1.184474 -0.506980 1.395637 0
M  V30 46 H -1.182665 -0.294391 2.207588 0
M  V30 47 H -5.316535 -0.008368 2.686787 0
M  V30 48 H -6.314195 -0.925125 0.822502 0
M  V30 49 H -5.656697 -2.507523 1.293266 0
M  V30 50 H -2.808305 -0.447669 0.441077 0
M  V30 51 H -3.352395 -1.554925 -2.356435 0
M  V30 52 H -0.501877 -1.333344 -1.315817 0
M  V30 53 H -1.517714 -2.876253 -1.233148 0
M  V30 54 H -0.366561 -2.957823 -3.291620 0
M  V30 55 H -2.094915 -2.626065 -3.522658 0
M  V30 56 H 0.270756 -0.786663 -4.169368 0
M  V30 57 H -1.331290 -1.030478 -4.958674 0
M  V30 58 H -0.382173 1.520200 -4.768455 0
M  V30 59 H -1.242642 3.604354 -3.941679 0
M  V30 60 H -2.819820 3.583463 -1.984919 0
M  V30 61 H -3.479022 1.428805 -0.921178 0
M  V30 END ATOM
M  V30 BEGIN BOND
M  V30 1 2 1 2
M  V30 2 1 2 3
M  V30 3 1 3 4
M  V30 4 1 4 5
M  V30 5 2 5 6
M  V30 6 1 6 7
M  V30 7 2 7 8
M  V30 8 1 8 9
M  V30 9 1 9 10
M  V30 10 1 10 11
M  V30 11 2 11 12
M  V30 12 1 12 13
M  V30 13 2 13 14
M  V30 14 1 14 15
M  V30 15 2 15 16
M  V30 16 1 8 17
M  V30 17 2 17 18
M  V30 18 1 2 19
M  V30 19 1 19 20
M  V30 20 1 20 21
M  V30 21 2 21 22
M  V30 22 1 21 23
M  V30 23 1 23 24
M  V30 24 1 24 25
M  V30 25 1 25 26
M  V30 26 1 26 27
M  V30 27 1 27 28
M  V30 28 2 28 29
M  V30 29 1 29 30
M  V30 30 2 30 31
M  V30 31 1 31 32
M  V30 32 2 32 33
M  V30 33 1 18 5
M  V30 34 1 33 24
M  V30 35 1 16 11
M  V30 36 1 33 28
M  V30 37 1 3 34
M  V30 38 1 3 35
M  V30 39 1 6 36
M  V30 40 1 7 37
M  V30 41 1 10 38
M  V30 42 1 10 39
M  V30 43 1 12 40
M  V30 44 1 13 41
M  V30 45 1 14 42
M  V30 46 1 15 43
M  V30 47 1 16 44
M  V30 48 1 17 45
M  V30 49 1 18 46
M  V30 50 1 19 47
M  V30 51 1 20 48
M  V30 52 1 20 49
M  V30 53 1 23 50
M  V30 54 1 24 51
M  V30 55 1 25 52
M  V30 56 1 25 53
M  V30 57 1 26 54
M  V30 58 1 26 55
M  V30 59 1 27 56
M  V30 60 1 27 57
M  V30 61 1 29 58
M  V30 62 1 30 59
M  V30 63 1 31 60
M  V30 64 1 32 61
M  V30 END BOND
M  V30 END CTAB
M  END
>  <Dataset>  (605) 
ChEMBL_Kinases

>  <Ligand_Instance>  (605) 
nan

>  <PDB_ID>  (605) 
nan

>  <Standardized_SMILES>  (605) 
O=C(COc1ccc(OCc2ccccc2)cc1)NCC(=O)NC1CCCc2ccccc21

>  <Name>  (605) 
nan

>  <Pocket>  (605) 
nan

>  <ATP_Site>  (605) 
nan

>  <Peripheral>  (605) 
nan

>  <Num_H_Atoms_ProtBoundConf>  (605) 
nan

>  <Num_Resolved_Atoms>  (605) 
nan

>  <Num_Not_Resolved_Atoms>  (605) 
nan

$$$$
CHEMBL3715884
     RDKit          3D

  0  0  0  0  0  0  0  0  0  0999 V3000
M  V30 BEGIN CTAB
M  V30 COUNTS 33 34 0 0 0
M  V30 BEGIN ATOM
M  V30 1 C -1.462828 -4.895447 2.638547 0
M  V30 2 O -1.550617 -4.404480 1.332289 0
M  V30 3 C -1.150119 -3.146101 0.921122 0
M  V30 4 C -0.617011 -2.288517 1.860367 0
M  V30 5 C -0.225744 -1.032303 1.411940 0
M  V30 6 F 0.290426 -0.201493 2.326559 0
M  V30 7 C -0.367812 -0.670739 0.088970 0
M  V30 8 C 0.036665 0.642394 -0.402433 0
M  V30 9 N -0.063447 1.088540 -1.666310 0
M  V30 10 N 0.390441 2.323968 -1.785497 0
M  V30 11 C 0.814707 2.734253 -0.560696 0
M  V30 12 S 1.524681 4.312099 -0.112585 0
M  V30 13 C 1.895664 4.274217 1.662441 0
M  V30 14 C 2.976160 3.266693 1.863176 0
M  V30 15 O 3.304493 3.173133 3.080821 0
M  V30 16 O 3.677750 2.429449 0.998996 0
M  V30 17 N 0.581852 1.687074 0.242534 0
M  V30 18 C -0.908613 -1.574681 -0.802372 0
M  V30 19 C -1.314728 -2.835299 -0.414528 0
M  V30 20 O -1.861730 -3.768707 -1.281507 0
M  V30 21 C -2.019702 -3.426140 -2.643264 0
M  V30 22 H -0.451253 -5.302970 2.887581 0
M  V30 23 H -2.138034 -5.791182 2.718279 0
M  V30 24 H -1.693820 -4.151401 3.427679 0
M  V30 25 H -0.504726 -2.568381 2.896704 0
M  V30 26 H 1.029982 3.952678 2.264089 0
M  V30 27 H 2.300762 5.266117 1.996854 0
M  V30 28 H 3.857561 1.450548 1.222364 0
M  V30 29 H 0.816186 1.725183 1.255277 0
M  V30 30 H -1.011402 -1.274034 -1.831097 0
M  V30 31 H -1.162657 -2.876702 -3.076456 0
M  V30 32 H -2.131953 -4.331386 -3.288946 0
M  V30 33 H -2.920153 -2.768452 -2.795792 0
M  V30 END ATOM
M  V30 BEGIN BOND
M  V30 1 1 1 2
M  V30 2 1 2 3
M  V30 3 2 3 4
M  V30 4 1 4 5
M  V30 5 1 5 6
M  V30 6 2 5 7
M  V30 7 1 7 8
M  V30 8 2 8 9
M  V30 9 1 9 10
M  V30 10 2 10 11
M  V30 11 1 11 12
M  V30 12 1 12 13
M  V30 13 1 13 14
M  V30 14 2 14 15
M  V30 15 1 14 16
M  V30 16 1 11 17
M  V30 17 1 7 18
M  V30 18 2 18 19
M  V30 19 1 19 20
M  V30 20 1 20 21
M  V30 21 1 19 3
M  V30 22 1 17 8
M  V30 23 1 1 22
M  V30 24 1 1 23
M  V30 25 1 1 24
M  V30 26 1 4 25
M  V30 27 1 13 26
M  V30 28 1 13 27
M  V30 29 1 16 28
M  V30 30 1 17 29
M  V30 31 1 18 30
M  V30 32 1 21 31
M  V30 33 1 21 32
M  V30 34 1 21 33
M  V30 END BOND
M  V30 END CTAB
M  END
>  <Dataset>  (606) 
ChEMBL_Kinases

>  <Ligand_Instance>  (606) 
nan

>  <PDB_ID>  (606) 
nan

>  <Standardized_SMILES>  (606) 
COc1cc(F)c(-c2nnc(SCC(=O)O)[nH]2)cc1OC

>  <Name>  (606) 
nan

>  <Pocket>  (606) 
nan

>  <ATP_Site>  (606) 
nan

>  <Peripheral>  (606) 
nan

>  <Num_H_Atoms_ProtBoundConf>  (606) 
nan

>  <Num_Resolved_Atoms>  (606) 
nan

>  <Num_Not_Resolved_Atoms>  (606) 
nan

$$$$
CHEMBL57
     RDKit          3D

  0  0  0  0  0  0  0  0  0  0999 V3000
M  V30 BEGIN CTAB
M  V30 COUNTS 34 37 0 0 0
M  V30 BEGIN ATOM
M  V30 1 C 2.058809 -2.529121 3.652402 0
M  V30 2 C 0.820927 -2.496948 2.794651 0
M  V30 3 C -0.225580 -3.385771 3.040569 0
M  V30 4 C -1.302191 -3.256727 2.187649 0
M  V30 5 N -1.361412 -2.354511 1.192030 0
M  V30 6 C -0.335437 -1.483581 0.951428 0
M  V30 7 C 0.760109 -1.570805 1.772589 0
M  V30 8 N 1.921979 -0.786470 1.713078 0
M  V30 9 C 2.035277 0.509170 1.133479 0
M  V30 10 O 2.990833 1.222260 1.562025 0
M  V30 11 C 1.187998 1.113078 0.109988 0
M  V30 12 C 1.659432 2.335798 -0.321920 0
M  V30 13 C 0.983094 3.058864 -1.294378 0
M  V30 14 C -0.167696 2.472728 -1.781611 0
M  V30 15 N -0.593480 1.279299 -1.334247 0
M  V30 16 C 0.033535 0.551949 -0.396054 0
M  V30 17 N -0.700732 -0.648454 -0.176373 0
M  V30 18 C -1.764210 -1.053229 -1.007248 0
M  V30 19 C -2.938036 -0.057302 -1.045881 0
M  V30 20 C -2.238302 -0.558033 -2.255492 0
M  V30 21 H 2.921553 -2.961770 3.146149 0
M  V30 22 H 1.807333 -3.136774 4.555654 0
M  V30 23 H 2.268793 -1.505998 4.081243 0
M  V30 24 H -0.156598 -4.101342 3.844877 0
M  V30 25 H -2.150179 -3.918870 2.325356 0
M  V30 26 H 2.806722 -1.191919 2.139758 0
M  V30 27 H 2.569359 2.736003 0.103985 0
M  V30 28 H 1.320103 4.020249 -1.659242 0
M  V30 29 H -0.762356 2.973550 -2.549932 0
M  V30 30 H -2.054933 -2.129120 -0.782655 0
M  V30 31 H -3.923114 -0.502324 -0.740472 0
M  V30 32 H -2.818468 0.947386 -0.633679 0
M  V30 33 H -2.907302 -1.236771 -2.873012 0
M  V30 34 H -1.747435 0.102023 -2.996470 0
M  V30 END ATOM
M  V30 BEGIN BOND
M  V30 1 1 1 2
M  V30 2 2 2 3
M  V30 3 1 3 4
M  V30 4 2 4 5
M  V30 5 1 5 6
M  V30 6 2 6 7
M  V30 7 1 7 8
M  V30 8 1 8 9
M  V30 9 2 9 10
M  V30 10 1 9 11
M  V30 11 2 11 12
M  V30 12 1 12 13
M  V30 13 2 13 14
M  V30 14 1 14 15
M  V30 15 2 15 16
M  V30 16 1 16 17
M  V30 17 1 17 18
M  V30 18 1 18 19
M  V30 19 1 19 20
M  V30 20 1 7 2
M  V30 21 1 16 11
M  V30 22 1 20 18
M  V30 23 1 17 6
M  V30 24 1 1 21
M  V30 25 1 1 22
M  V30 26 1 1 23
M  V30 27 1 3 24
M  V30 28 1 4 25
M  V30 29 1 8 26
M  V30 30 1 12 27
M  V30 31 1 13 28
M  V30 32 1 14 29
M  V30 33 1 18 30
M  V30 34 1 19 31
M  V30 35 1 19 32
M  V30 36 1 20 33
M  V30 37 1 20 34
M  V30 END BOND
M  V30 END CTAB
M  END
>  <Dataset>  (607) 
ChEMBL_Kinases

>  <Ligand_Instance>  (607) 
nan

>  <PDB_ID>  (607) 
nan

>  <Standardized_SMILES>  (607) 
Cc1ccnc2c1NC(=O)c1cccnc1N2C1CC1

>  <Name>  (607) 
NEVIRAPINE

>  <Pocket>  (607) 
nan

>  <ATP_Site>  (607) 
nan

>  <Peripheral>  (607) 
nan

>  <Num_H_Atoms_ProtBoundConf>  (607) 
nan

>  <Num_Resolved_Atoms>  (607) 
nan

>  <Num_Not_Resolved_Atoms>  (607) 
nan

$$$$
CHEMBL3715871
     RDKit          3D

  0  0  0  0  0  0  0  0  0  0999 V3000
M  V30 BEGIN CTAB
M  V30 COUNTS 36 38 0 0 0
M  V30 BEGIN ATOM
M  V30 1 N -1.302303 -1.367412 2.702714 0
M  V30 2 C -0.235795 -2.358425 2.475957 0
M  V30 3 C -0.720249 -3.299675 1.450089 0
M  V30 4 C 0.097752 -3.567655 0.256500 0
M  V30 5 C 1.520984 -3.170643 0.359678 0
M  V30 6 C 1.634089 -1.797515 0.880781 0
M  V30 7 N 0.931024 -0.819268 0.022945 0
M  V30 8 C 1.632200 0.390018 -0.298645 0
M  V30 9 O 2.802302 0.660299 0.083481 0
M  V30 10 C 0.690018 1.184199 -1.123973 0
M  V30 11 C 0.326442 1.032006 -2.438626 0
M  V30 12 C -0.614660 1.927800 -2.934177 0
M  V30 13 N -1.153944 2.913888 -2.149251 0
M  V30 14 C -0.784184 3.042495 -0.868133 0
M  V30 15 N -1.221832 3.945544 0.040806 0
M  V30 16 C -0.586142 3.692253 1.191467 0
M  V30 17 N 0.236060 2.636521 0.972456 0
M  V30 18 C 0.148665 2.183792 -0.313945 0
M  V30 19 C 1.021653 -1.639282 2.267990 0
M  V30 20 H -1.750708 -1.453988 3.612687 0
M  V30 21 H -1.003029 -0.424231 2.421809 0
M  V30 22 H -0.146032 -2.900763 3.460081 0
M  V30 23 H -1.749643 -2.999433 1.061118 0
M  V30 24 H -0.973017 -4.298824 1.939741 0
M  V30 25 H 0.080178 -4.685984 0.033870 0
M  V30 26 H -0.366997 -3.139199 -0.671205 0
M  V30 27 H 2.005769 -3.212984 -0.643508 0
M  V30 28 H 2.088269 -3.873443 1.011764 0
M  V30 29 H 2.686619 -1.475485 0.893406 0
M  V30 30 H 0.007118 -1.158923 -0.238056 0
M  V30 31 H 0.846616 0.218534 -2.870951 0
M  V30 32 H -0.835800 1.729776 -3.980386 0
M  V30 33 H -0.639781 4.186816 2.166389 0
M  V30 34 H 0.873637 2.164287 1.651520 0
M  V30 35 H 1.807708 -1.877846 2.998103 0
M  V30 36 H 0.860682 -0.514125 2.370490 0
M  V30 END ATOM
M  V30 BEGIN BOND
M  V30 1 1 1 2
M  V30 2 1 2 3
M  V30 3 1 3 4
M  V30 4 1 4 5
M  V30 5 1 5 6
M  V30 6 1 6 7
M  V30 7 1 7 8
M  V30 8 2 8 9
M  V30 9 1 8 10
M  V30 10 2 10 11
M  V30 11 1 11 12
M  V30 12 2 12 13
M  V30 13 1 13 14
M  V30 14 1 14 15
M  V30 15 2 15 16
M  V30 16 1 16 17
M  V30 17 1 17 18
M  V30 18 1 6 19
M  V30 19 1 19 2
M  V30 20 1 18 10
M  V30 21 2 18 14
M  V30 22 1 1 20
M  V30 23 1 1 21
M  V30 24 1 2 22
M  V30 25 1 3 23
M  V30 26 1 3 24
M  V30 27 1 4 25
M  V30 28 1 4 26
M  V30 29 1 5 27
M  V30 30 1 5 28
M  V30 31 1 6 29
M  V30 32 1 7 30
M  V30 33 1 11 31
M  V30 34 1 12 32
M  V30 35 1 16 33
M  V30 36 1 17 34
M  V30 37 1 19 35
M  V30 38 1 19 36
M  V30 END BOND
M  V30 END CTAB
M  END
>  <Dataset>  (608) 
ChEMBL_Kinases

>  <Ligand_Instance>  (608) 
nan

>  <PDB_ID>  (608) 
nan

>  <Standardized_SMILES>  (608) 
NC1CCCC(NC(=O)c2ccnc3nc[nH]c23)C1

>  <Name>  (608) 
nan

>  <Pocket>  (608) 
nan

>  <ATP_Site>  (608) 
nan

>  <Peripheral>  (608) 
nan

>  <Num_H_Atoms_ProtBoundConf>  (608) 
nan

>  <Num_Resolved_Atoms>  (608) 
nan

>  <Num_Not_Resolved_Atoms>  (608) 
nan

$$$$
CHEMBL3715856
     RDKit          3D

  0  0  0  0  0  0  0  0  0  0999 V3000
M  V30 BEGIN CTAB
M  V30 COUNTS 29 30 0 0 0
M  V30 BEGIN ATOM
M  V30 1 C -1.010236 -1.859513 3.831873 0
M  V30 2 O 0.032186 -2.777370 3.629929 0
M  V30 3 C 0.843624 -2.821117 2.504162 0
M  V30 4 C 1.867580 -3.742342 2.333019 0
M  V30 5 C 2.641020 -3.724238 1.172574 0
M  V30 6 C 2.428565 -2.796747 0.145845 0
M  V30 7 F 3.151644 -2.752039 -0.978032 0
M  V30 8 C 1.400991 -1.858160 0.297999 0
M  V30 9 C 1.103893 -0.854758 -0.720608 0
M  V30 10 N 1.754368 -0.742513 -1.886039 0
M  V30 11 N 1.237939 0.267995 -2.592800 0
M  V30 12 C 0.243126 0.825832 -1.893138 0
M  V30 13 S -0.827197 2.208374 -2.296881 0
M  V30 14 C -1.957892 2.468645 -0.875784 0
M  V30 15 C -1.128792 2.925826 0.269103 0
M  V30 16 O 0.013149 2.931161 -0.289133 0
M  V30 17 O -0.387343 3.346596 1.333728 0
M  V30 18 N 0.174105 0.120507 -0.739910 0
M  V30 19 C 0.686188 -1.940673 1.464030 0
M  V30 20 H -1.583767 -1.620779 2.914116 0
M  V30 21 H -0.650215 -0.901413 4.282718 0
M  V30 22 H -1.728318 -2.341488 4.553849 0
M  V30 23 H 2.054575 -4.469628 3.110834 0
M  V30 24 H 3.450354 -4.444492 1.025871 0
M  V30 25 H -2.720630 3.211411 -1.138902 0
M  V30 26 H -2.475034 1.513116 -0.654825 0
M  V30 27 H -0.317019 2.760069 2.181898 0
M  V30 28 H -0.464093 0.219328 0.094484 0
M  V30 29 H -0.109876 -1.203988 1.568716 0
M  V30 END ATOM
M  V30 BEGIN BOND
M  V30 1 1 1 2
M  V30 2 1 2 3
M  V30 3 2 3 4
M  V30 4 1 4 5
M  V30 5 2 5 6
M  V30 6 1 6 7
M  V30 7 1 6 8
M  V30 8 1 8 9
M  V30 9 2 9 10
M  V30 10 1 10 11
M  V30 11 2 11 12
M  V30 12 1 12 13
M  V30 13 1 13 14
M  V30 14 1 14 15
M  V30 15 2 15 16
M  V30 16 1 15 17
M  V30 17 1 12 18
M  V30 18 2 8 19
M  V30 19 1 19 3
M  V30 20 1 18 9
M  V30 21 1 1 20
M  V30 22 1 1 21
M  V30 23 1 1 22
M  V30 24 1 4 23
M  V30 25 1 5 24
M  V30 26 1 14 25
M  V30 27 1 14 26
M  V30 28 1 17 27
M  V30 29 1 18 28
M  V30 30 1 19 29
M  V30 END BOND
M  V30 END CTAB
M  END
>  <Dataset>  (609) 
ChEMBL_Kinases

>  <Ligand_Instance>  (609) 
nan

>  <PDB_ID>  (609) 
nan

>  <Standardized_SMILES>  (609) 
COc1ccc(F)c(-c2nnc(SCC(=O)O)[nH]2)c1

>  <Name>  (609) 
nan

>  <Pocket>  (609) 
nan

>  <ATP_Site>  (609) 
nan

>  <Peripheral>  (609) 
nan

>  <Num_H_Atoms_ProtBoundConf>  (609) 
nan

>  <Num_Resolved_Atoms>  (609) 
nan

>  <Num_Not_Resolved_Atoms>  (609) 
nan

$$$$
CHEMBL3715854
     RDKit          3D

  0  0  0  0  0  0  0  0  0  0999 V3000
M  V30 BEGIN CTAB
M  V30 COUNTS 33 34 0 0 0
M  V30 BEGIN ATOM
M  V30 1 C -0.574774 -3.913890 1.679749 0
M  V30 2 N 0.780949 -4.434170 1.688918 0
M  V30 3 S 1.943748 -3.164533 1.779155 0
M  V30 4 O 3.316258 -3.720010 1.955627 0
M  V30 5 O 1.654967 -2.313513 3.002443 0
M  V30 6 C 1.866266 -2.082974 0.409952 0
M  V30 7 C 2.682198 -2.477340 -0.655223 0
M  V30 8 C 2.739119 -1.729212 -1.814852 0
M  V30 9 C 1.969090 -0.575385 -1.903499 0
M  V30 10 C 1.159092 -0.180931 -0.849824 0
M  V30 11 C 0.334964 1.021644 -0.894856 0
M  V30 12 N 0.297305 1.856593 -1.969501 0
M  V30 13 N -0.544597 2.863761 -1.705921 0
M  V30 14 C -1.042194 2.670241 -0.464588 0
M  V30 15 S -2.224198 3.791115 0.308107 0
M  V30 16 C -2.577967 3.073198 1.954622 0
M  V30 17 C -3.293992 1.786009 1.671489 0
M  V30 18 O -3.691702 1.007489 2.595763 0
M  V30 19 O -3.646986 1.214784 0.465451 0
M  V30 20 N -0.503292 1.553219 0.016126 0
M  V30 21 C 1.104212 -0.935151 0.314514 0
M  V30 22 H -0.592206 -2.822415 1.406266 0
M  V30 23 H -1.054964 -3.960129 2.680380 0
M  V30 24 H -1.137824 -4.505855 0.941462 0
M  V30 25 H 0.859485 -4.980340 2.576346 0
M  V30 26 H 3.314133 -3.352597 -0.682919 0
M  V30 27 H 3.350818 -1.979813 -2.674570 0
M  V30 28 H 1.952178 0.066301 -2.768814 0
M  V30 29 H -1.575491 2.827553 2.399613 0
M  V30 30 H -3.161643 3.731912 2.594597 0
M  V30 31 H -3.573941 0.242267 0.247737 0
M  V30 32 H -0.689409 1.140836 0.948551 0
M  V30 33 H 0.501376 -0.700735 1.182807 0
M  V30 END ATOM
M  V30 BEGIN BOND
M  V30 1 1 1 2
M  V30 2 1 2 3
M  V30 3 2 3 4
M  V30 4 2 3 5
M  V30 5 1 3 6
M  V30 6 2 6 7
M  V30 7 1 7 8
M  V30 8 2 8 9
M  V30 9 1 9 10
M  V30 10 1 10 11
M  V30 11 2 11 12
M  V30 12 1 12 13
M  V30 13 2 13 14
M  V30 14 1 14 15
M  V30 15 1 15 16
M  V30 16 1 16 17
M  V30 17 2 17 18
M  V30 18 1 17 19
M  V30 19 1 14 20
M  V30 20 2 10 21
M  V30 21 1 21 6
M  V30 22 1 20 11
M  V30 23 1 1 22
M  V30 24 1 1 23
M  V30 25 1 1 24
M  V30 26 1 2 25
M  V30 27 1 7 26
M  V30 28 1 8 27
M  V30 29 1 9 28
M  V30 30 1 16 29
M  V30 31 1 16 30
M  V30 32 1 19 31
M  V30 33 1 20 32
M  V30 34 1 21 33
M  V30 END BOND
M  V30 END CTAB
M  END
>  <Dataset>  (610) 
ChEMBL_Kinases

>  <Ligand_Instance>  (610) 
nan

>  <PDB_ID>  (610) 
nan

>  <Standardized_SMILES>  (610) 
CNS(=O)(=O)c1cccc(-c2nnc(SCC(=O)O)[nH]2)c1

>  <Name>  (610) 
nan

>  <Pocket>  (610) 
nan

>  <ATP_Site>  (610) 
nan

>  <Peripheral>  (610) 
nan

>  <Num_H_Atoms_ProtBoundConf>  (610) 
nan

>  <Num_Resolved_Atoms>  (610) 
nan

>  <Num_Not_Resolved_Atoms>  (610) 
nan

$$$$
CHEMBL3715846
     RDKit          3D

  0  0  0  0  0  0  0  0  0  0999 V3000
M  V30 BEGIN CTAB
M  V30 COUNTS 31 32 0 0 0
M  V30 BEGIN ATOM
M  V30 1 C -1.912747 -4.040377 3.885446 0
M  V30 2 O -2.412278 -3.358652 2.779243 0
M  V30 3 C -1.731009 -2.507399 1.938132 0
M  V30 4 C -0.407222 -2.140127 2.002062 0
M  V30 5 C 0.230226 -1.280453 1.132419 0
M  V30 6 C -0.563650 -0.767026 0.126343 0
M  V30 7 C 0.038597 0.156211 -0.839329 0
M  V30 8 N -0.583078 0.752121 -1.881579 0
M  V30 9 N 0.294942 1.525044 -2.533372 0
M  V30 10 C 1.486398 1.432412 -1.916159 0
M  V30 11 S 3.038841 2.239593 -2.331764 0
M  V30 12 C 4.269609 1.685701 -1.086785 0
M  V30 13 C 3.840941 2.242352 0.236134 0
M  V30 14 O 2.780831 2.892109 -0.024498 0
M  V30 15 O 4.167463 2.301430 1.575433 0
M  V30 16 N 1.320674 0.582639 -0.867551 0
M  V30 17 C -1.898494 -1.088205 -0.002803 0
M  V30 18 C -2.472242 -1.956903 0.905107 0
M  V30 19 N -3.852562 -2.268099 0.743796 0 CHG=1 VAL=4
M  V30 20 O -4.459394 -2.245441 -0.331506 0
M  V30 21 O -4.648645 -2.634039 1.823948 0 CHG=-1 VAL=1
M  V30 22 H -2.020345 -5.138636 3.669705 0
M  V30 23 H -0.837021 -3.831375 4.017428 0
M  V30 24 H -2.437445 -3.772789 4.838672 0
M  V30 25 H 0.173943 -2.567320 2.805517 0
M  V30 26 H 1.276743 -1.047060 1.256350 0
M  V30 27 H 4.259526 0.571999 -0.993624 0
M  V30 28 H 5.274225 2.057452 -1.293493 0
M  V30 29 H 3.431474 2.079867 2.258314 0
M  V30 30 H 1.999432 0.261619 -0.163690 0
M  V30 31 H -2.493096 -0.660963 -0.812433 0
M  V30 END ATOM
M  V30 BEGIN BOND
M  V30 1 1 1 2
M  V30 2 1 2 3
M  V30 3 2 3 4
M  V30 4 1 4 5
M  V30 5 2 5 6
M  V30 6 1 6 7
M  V30 7 2 7 8
M  V30 8 1 8 9
M  V30 9 2 9 10
M  V30 10 1 10 11
M  V30 11 1 11 12
M  V30 12 1 12 13
M  V30 13 2 13 14
M  V30 14 1 13 15
M  V30 15 1 10 16
M  V30 16 1 6 17
M  V30 17 2 17 18
M  V30 18 1 18 19
M  V30 19 2 19 20
M  V30 20 1 19 21
M  V30 21 1 18 3
M  V30 22 1 16 7
M  V30 23 1 1 22
M  V30 24 1 1 23
M  V30 25 1 1 24
M  V30 26 1 4 25
M  V30 27 1 5 26
M  V30 28 1 12 27
M  V30 29 1 12 28
M  V30 30 1 15 29
M  V30 31 1 16 30
M  V30 32 1 17 31
M  V30 END BOND
M  V30 END CTAB
M  END
>  <Dataset>  (611) 
ChEMBL_Kinases

>  <Ligand_Instance>  (611) 
nan

>  <PDB_ID>  (611) 
nan

>  <Standardized_SMILES>  (611) 
COc1ccc(-c2nnc(SCC(=O)O)[nH]2)cc1[N+](=O)[O-]

>  <Name>  (611) 
nan

>  <Pocket>  (611) 
nan

>  <ATP_Site>  (611) 
nan

>  <Peripheral>  (611) 
nan

>  <Num_H_Atoms_ProtBoundConf>  (611) 
nan

>  <Num_Resolved_Atoms>  (611) 
nan

>  <Num_Not_Resolved_Atoms>  (611) 
nan

$$$$
CHEMBL3715825
     RDKit          3D

  0  0  0  0  0  0  0  0  0  0999 V3000
M  V30 BEGIN CTAB
M  V30 COUNTS 43 46 0 0 0
M  V30 BEGIN ATOM
M  V30 1 O -0.873905 0.277269 4.151221 0
M  V30 2 C -0.378389 0.577614 3.038246 0
M  V30 3 N 0.716295 -0.251293 2.585306 0
M  V30 4 C 1.064211 -1.296919 3.489321 0
M  V30 5 C 2.199273 -2.184812 3.048484 0 CFG=1
M  V30 6 C 1.976904 -2.909696 1.771379 0
M  V30 7 C 2.383481 -2.230641 0.521522 0
M  V30 8 C 3.506885 -1.264148 0.588239 0
M  V30 9 N 3.830591 -0.741972 1.868446 0
M  V30 10 C 3.529128 -1.529109 2.991082 0
M  V30 11 C -0.794968 1.682016 2.149766 0
M  V30 12 C -0.777002 2.995505 2.563834 0
M  V30 13 C -1.189794 3.944204 1.623877 0
M  V30 14 N -1.581617 3.595566 0.386723 0
M  V30 15 C -1.607095 2.316027 -0.038449 0
M  V30 16 N -1.935242 1.669892 -1.177934 0
M  V30 17 C -1.733948 0.364427 -0.954702 0
M  V30 18 C -1.995535 -0.607818 -2.004378 0
M  V30 19 C -2.440648 -0.547780 -3.334808 0
M  V30 20 C -2.564605 -1.698432 -4.028978 0
M  V30 21 C -2.251000 -2.961175 -3.429241 0
M  V30 22 S -1.733440 -2.423203 -1.710254 0
M  V30 23 N -1.289063 0.106097 0.273656 0
M  V30 24 C -1.202535 1.328155 0.867246 0
M  V30 25 H 1.140695 -0.013852 1.662803 0
M  V30 26 H 0.192284 -1.976595 3.663991 0
M  V30 27 H 1.285736 -0.850223 4.473083 0
M  V30 28 H 2.272554 -2.980525 3.851862 0
M  V30 29 H 0.897469 -3.217371 1.734088 0
M  V30 30 H 2.549352 -3.883897 1.830194 0
M  V30 31 H 1.463269 -1.767887 0.071036 0
M  V30 32 H 2.634747 -3.032511 -0.237021 0
M  V30 33 H 3.269832 -0.399697 -0.076865 0
M  V30 34 H 4.423653 -1.719040 0.156750 0
M  V30 35 H 3.500253 0.238501 2.019635 0
M  V30 36 H 3.751170 -0.915361 3.907455 0
M  V30 37 H 4.297674 -2.355526 3.044049 0
M  V30 38 H -0.459685 3.235137 3.552087 0
M  V30 39 H -1.178236 4.976709 1.940730 0
M  V30 40 H -2.640002 0.454459 -3.662770 0
M  V30 41 H -2.908517 -1.671849 -5.059011 0
M  V30 42 H -2.315712 -3.884551 -3.908810 0
M  V30 43 H -1.059552 -0.825078 0.685904 0
M  V30 END ATOM
M  V30 BEGIN BOND
M  V30 1 2 1 2
M  V30 2 1 2 3
M  V30 3 1 3 4
M  V30 4 1 4 5
M  V30 5 1 5 6
M  V30 6 1 6 7
M  V30 7 1 7 8
M  V30 8 1 8 9
M  V30 9 1 9 10
M  V30 10 1 2 11
M  V30 11 2 11 12
M  V30 12 1 12 13
M  V30 13 2 13 14
M  V30 14 1 14 15
M  V30 15 1 15 16
M  V30 16 2 16 17
M  V30 17 1 17 18
M  V30 18 2 18 19
M  V30 19 1 19 20
M  V30 20 2 20 21
M  V30 21 1 21 22
M  V30 22 1 17 23
M  V30 23 1 23 24
M  V30 24 1 10 5
M  V30 25 1 24 11
M  V30 26 2 24 15
M  V30 27 1 22 18
M  V30 28 1 3 25
M  V30 29 1 4 26
M  V30 30 1 4 27
M  V30 31 1 5 28 CFG=1
M  V30 32 1 6 29
M  V30 33 1 6 30
M  V30 34 1 7 31
M  V30 35 1 7 32
M  V30 36 1 8 33
M  V30 37 1 8 34
M  V30 38 1 9 35
M  V30 39 1 10 36
M  V30 40 1 10 37
M  V30 41 1 12 38
M  V30 42 1 13 39
M  V30 43 1 19 40
M  V30 44 1 20 41
M  V30 45 1 21 42
M  V30 46 1 23 43
M  V30 END BOND
M  V30 END CTAB
M  END
>  <Dataset>  (612) 
ChEMBL_Kinases

>  <Ligand_Instance>  (612) 
nan

>  <PDB_ID>  (612) 
nan

>  <Standardized_SMILES>  (612) 
O=C(NC[C@H]1CCCNC1)c1ccnc2nc(-c3cccs3)[nH]c12

>  <Name>  (612) 
nan

>  <Pocket>  (612) 
nan

>  <ATP_Site>  (612) 
nan

>  <Peripheral>  (612) 
nan

>  <Num_H_Atoms_ProtBoundConf>  (612) 
nan

>  <Num_Resolved_Atoms>  (612) 
nan

>  <Num_Not_Resolved_Atoms>  (612) 
nan

$$$$
CHEMBL3715822
     RDKit          3D

  0  0  0  0  0  0  0  0  0  0999 V3000
M  V30 BEGIN CTAB
M  V30 COUNTS 51 55 0 0 0
M  V30 BEGIN ATOM
M  V30 1 N 0.657818 -1.393097 4.302282 0
M  V30 2 C -0.005066 -1.851712 3.122780 0
M  V30 3 N -0.021568 -1.167541 1.963449 0
M  V30 4 C -0.651427 -1.614325 0.860234 0
M  V30 5 N -0.488572 -0.722334 -0.229029 0
M  V30 6 C 0.192064 -0.662895 -1.508773 0
M  V30 7 C 1.023059 0.569203 -1.707944 0
M  V30 8 C 1.121732 1.497405 -0.552730 0
M  V30 9 C 2.306254 1.075901 0.300447 0
M  V30 10 C 2.532481 1.919494 1.472293 0
M  V30 11 C 3.341810 3.023825 1.267759 0
M  V30 12 C 3.683982 3.940693 2.235164 0
M  V30 13 C 3.205534 3.782427 3.514422 0
M  V30 14 C 2.398076 2.697285 3.757861 0
M  V30 15 C 2.075039 1.798283 2.766688 0
M  V30 16 C -0.159182 1.622143 0.185132 0
M  V30 17 C -1.187187 0.552694 -0.093671 0
M  V30 18 C -1.291210 -2.820255 0.965192 0
M  V30 19 C -1.284599 -3.532970 2.141051 0
M  V30 20 N -0.639758 -3.034418 3.201406 0
M  V30 21 N -1.999069 -4.645721 1.891016 0
M  V30 22 C -2.441732 -4.645245 0.620160 0
M  V30 23 C -3.198380 -5.523169 -0.114479 0
M  V30 24 C -3.518252 -5.275108 -1.415940 0
M  V30 25 C -3.067904 -4.097226 -2.026858 0
M  V30 26 O -3.440419 -3.922744 -3.358252 0
M  V30 27 C -2.308298 -3.221745 -1.280576 0
M  V30 28 C -1.997108 -3.488393 0.023859 0
M  V30 29 H 0.118334 -0.524627 4.521547 0
M  V30 30 H 1.468794 -1.745459 4.877842 0
M  V30 31 H -0.618470 -0.571936 -2.294353 0
M  V30 32 H 0.811878 -1.561593 -1.689571 0
M  V30 33 H 0.689867 1.170980 -2.611296 0
M  V30 34 H 2.057448 0.216943 -2.019272 0
M  V30 35 H 1.456978 2.487638 -0.991252 0
M  V30 36 H 3.199941 1.081431 -0.339731 0
M  V30 37 H 2.157448 0.008095 0.587011 0
M  V30 38 H 3.775909 3.249659 0.299684 0
M  V30 39 H 4.317346 4.795411 2.052808 0
M  V30 40 H 3.387806 4.414159 4.365136 0
M  V30 41 H 1.980790 2.499323 4.733288 0
M  V30 42 H 1.451904 0.953275 2.953828 0
M  V30 43 H -0.019241 1.786863 1.276964 0
M  V30 44 H -0.627371 2.591593 -0.170559 0
M  V30 45 H -1.889553 0.565253 0.773512 0
M  V30 46 H -1.738672 0.847008 -1.011851 0
M  V30 47 H -2.162345 -5.389068 2.624929 0
M  V30 48 H -3.539026 -6.427461 0.369384 0
M  V30 49 H -4.113316 -5.986911 -1.960025 0
M  V30 50 H -2.716880 -4.081309 -4.061913 0
M  V30 51 H -2.039987 -2.366432 -1.864394 0
M  V30 END ATOM
M  V30 BEGIN BOND
M  V30 1 1 1 2
M  V30 2 2 2 3
M  V30 3 1 3 4
M  V30 4 1 4 5
M  V30 5 1 5 6
M  V30 6 1 6 7
M  V30 7 1 7 8
M  V30 8 1 8 9
M  V30 9 1 9 10
M  V30 10 2 10 11
M  V30 11 1 11 12
M  V30 12 2 12 13
M  V30 13 1 13 14
M  V30 14 2 14 15
M  V30 15 1 8 16
M  V30 16 1 16 17
M  V30 17 2 4 18
M  V30 18 1 18 19
M  V30 19 2 19 20
M  V30 20 1 19 21
M  V30 21 1 21 22
M  V30 22 2 22 23
M  V30 23 1 23 24
M  V30 24 2 24 25
M  V30 25 1 25 26
M  V30 26 1 25 27
M  V30 27 2 27 28
M  V30 28 1 20 2
M  V30 29 1 28 22
M  V30 30 1 17 5
M  V30 31 1 28 18
M  V30 32 1 15 10
M  V30 33 1 1 29
M  V30 34 1 1 30
M  V30 35 1 6 31
M  V30 36 1 6 32
M  V30 37 1 7 33
M  V30 38 1 7 34
M  V30 39 1 8 35
M  V30 40 1 9 36
M  V30 41 1 9 37
M  V30 42 1 11 38
M  V30 43 1 12 39
M  V30 44 1 13 40
M  V30 45 1 14 41
M  V30 46 1 15 42
M  V30 47 1 16 43
M  V30 48 1 16 44
M  V30 49 1 17 45
M  V30 50 1 17 46
M  V30 51 1 21 47
M  V30 52 1 23 48
M  V30 53 1 24 49
M  V30 54 1 26 50
M  V30 55 1 27 51
M  V30 END BOND
M  V30 END CTAB
M  END
>  <Dataset>  (613) 
ChEMBL_Kinases

>  <Ligand_Instance>  (613) 
nan

>  <PDB_ID>  (613) 
nan

>  <Standardized_SMILES>  (613) 
Nc1nc(N2CCC(Cc3ccccc3)CC2)c2c(n1)[nH]c1ccc(O)cc12

>  <Name>  (613) 
nan

>  <Pocket>  (613) 
nan

>  <ATP_Site>  (613) 
nan

>  <Peripheral>  (613) 
nan

>  <Num_H_Atoms_ProtBoundConf>  (613) 
nan

>  <Num_Resolved_Atoms>  (613) 
nan

>  <Num_Not_Resolved_Atoms>  (613) 
nan

$$$$
CHEMBL3715821
     RDKit          3D

  0  0  0  0  0  0  0  0  0  0999 V3000
M  V30 BEGIN CTAB
M  V30 COUNTS 62 64 0 0 0
M  V30 BEGIN ATOM
M  V30 1 C 5.584358 -2.403716 4.784988 0
M  V30 2 C 6.928232 -1.816540 4.394600 0
M  V30 3 C 6.793351 -0.491541 3.682217 0
M  V30 4 C 6.127846 0.487582 4.615195 0
M  V30 5 C 5.949049 1.861720 3.996738 0
M  V30 6 C 5.045336 1.798489 2.761873 0
M  V30 7 O 3.796220 1.329201 3.115926 0
M  V30 8 C 2.642303 1.111368 2.452381 0
M  V30 9 C 2.394158 1.336142 1.116082 0
M  V30 10 C 1.182140 1.101446 0.472501 0
M  V30 11 C 0.139261 0.595130 1.243687 0
M  V30 12 C -1.153774 0.351225 0.618082 0
M  V30 13 O -1.263792 0.649595 -0.588189 0
M  V30 14 N -2.282907 -0.197156 1.270270 0
M  V30 15 C -3.581970 -0.470080 0.754942 0
M  V30 16 C -3.598925 -1.436892 -0.395138 0
M  V30 17 O -2.563340 -1.927679 -0.848103 0
M  V30 18 N -4.911298 -1.682970 -0.834386 0
M  V30 19 C -5.230124 -2.619019 -1.887766 0
M  V30 20 C -6.671237 -2.782623 -2.173363 0
M  V30 21 C -7.299333 -1.599130 -2.868164 0
M  V30 22 C -6.340612 -0.728354 -3.637103 0
M  V30 23 C -5.059311 -1.389820 -3.953780 0
M  V30 24 C -4.311587 -1.162381 -5.115801 0
M  V30 25 C -3.127378 -1.773694 -5.456441 0
M  V30 26 C -2.590376 -2.711712 -4.596861 0
M  V30 27 C -3.283511 -2.983588 -3.424672 0
M  V30 28 C -4.454979 -2.324283 -3.168678 0
M  V30 29 C 0.388201 0.368855 2.583106 0
M  V30 30 C 1.591118 0.601066 3.239994 0
M  V30 31 H 5.248400 -2.024955 5.759327 0
M  V30 32 H 4.825440 -2.167672 4.032075 0
M  V30 33 H 5.693773 -3.517329 4.854930 0
M  V30 34 H 7.484677 -2.566680 3.808474 0
M  V30 35 H 7.498889 -1.676483 5.361983 0
M  V30 36 H 6.100894 -0.597079 2.809820 0
M  V30 37 H 7.787817 -0.137337 3.327010 0
M  V30 38 H 6.760635 0.553416 5.503486 0
M  V30 39 H 5.123737 0.089343 4.853886 0
M  V30 40 H 5.481417 2.539594 4.696380 0
M  V30 41 H 6.904077 2.293217 3.654267 0
M  V30 42 H 4.982673 2.826076 2.366266 0
M  V30 43 H 5.534942 1.167770 1.978148 0
M  V30 44 H 3.253631 1.739498 0.548413 0
M  V30 45 H 1.081146 1.316221 -0.583473 0
M  V30 46 H -2.104840 -0.421893 2.282058 0
M  V30 47 H -4.055432 0.480319 0.400666 0
M  V30 48 H -4.232920 -0.855069 1.542646 0
M  V30 49 H -5.782867 -1.211143 -0.436214 0
M  V30 50 H -4.787153 -3.603057 -1.571838 0
M  V30 51 H -7.220956 -2.866450 -1.188941 0
M  V30 52 H -6.854257 -3.702943 -2.762351 0
M  V30 53 H -7.857586 -0.968030 -2.144440 0
M  V30 54 H -8.045779 -1.987153 -3.583100 0
M  V30 55 H -6.129844 0.176830 -3.018667 0
M  V30 56 H -6.809507 -0.330447 -4.595925 0
M  V30 57 H -4.703514 -0.423514 -5.831090 0
M  V30 58 H -2.618299 -1.525053 -6.385862 0
M  V30 59 H -1.677924 -3.169190 -4.886823 0
M  V30 60 H -2.852747 -3.731279 -2.771625 0
M  V30 61 H -0.389798 -0.021571 3.229153 0
M  V30 62 H 1.722973 0.409162 4.280933 0
M  V30 END ATOM
M  V30 BEGIN BOND
M  V30 1 1 1 2
M  V30 2 1 2 3
M  V30 3 1 3 4
M  V30 4 1 4 5
M  V30 5 1 5 6
M  V30 6 1 6 7
M  V30 7 1 7 8
M  V30 8 2 8 9
M  V30 9 1 9 10
M  V30 10 2 10 11
M  V30 11 1 11 12
M  V30 12 2 12 13
M  V30 13 1 12 14
M  V30 14 1 14 15
M  V30 15 1 15 16
M  V30 16 2 16 17
M  V30 17 1 16 18
M  V30 18 1 18 19
M  V30 19 1 19 20
M  V30 20 1 20 21
M  V30 21 1 21 22
M  V30 22 1 22 23
M  V30 23 2 23 24
M  V30 24 1 24 25
M  V30 25 2 25 26
M  V30 26 1 26 27
M  V30 27 2 27 28
M  V30 28 1 11 29
M  V30 29 2 29 30
M  V30 30 1 30 8
M  V30 31 1 28 19
M  V30 32 1 28 23
M  V30 33 1 1 31
M  V30 34 1 1 32
M  V30 35 1 1 33
M  V30 36 1 2 34
M  V30 37 1 2 35
M  V30 38 1 3 36
M  V30 39 1 3 37
M  V30 40 1 4 38
M  V30 41 1 4 39
M  V30 42 1 5 40
M  V30 43 1 5 41
M  V30 44 1 6 42
M  V30 45 1 6 43
M  V30 46 1 9 44
M  V30 47 1 10 45
M  V30 48 1 14 46
M  V30 49 1 15 47
M  V30 50 1 15 48
M  V30 51 1 18 49
M  V30 52 1 19 50
M  V30 53 1 20 51
M  V30 54 1 20 52
M  V30 55 1 21 53
M  V30 56 1 21 54
M  V30 57 1 22 55
M  V30 58 1 22 56
M  V30 59 1 24 57
M  V30 60 1 25 58
M  V30 61 1 26 59
M  V30 62 1 27 60
M  V30 63 1 29 61
M  V30 64 1 30 62
M  V30 END BOND
M  V30 END CTAB
M  END
>  <Dataset>  (614) 
ChEMBL_Kinases

>  <Ligand_Instance>  (614) 
nan

>  <PDB_ID>  (614) 
nan

>  <Standardized_SMILES>  (614) 
CCCCCCOc1ccc(C(=O)NCC(=O)NC2CCCc3ccccc32)cc1

>  <Name>  (614) 
nan

>  <Pocket>  (614) 
nan

>  <ATP_Site>  (614) 
nan

>  <Peripheral>  (614) 
nan

>  <Num_H_Atoms_ProtBoundConf>  (614) 
nan

>  <Num_Resolved_Atoms>  (614) 
nan

>  <Num_Not_Resolved_Atoms>  (614) 
nan

$$$$
CHEMBL3715553
     RDKit          3D

  0  0  0  0  0  0  0  0  0  0999 V3000
M  V30 BEGIN CTAB
M  V30 COUNTS 54 58 0 0 0
M  V30 BEGIN ATOM
M  V30 1 O 1.860032 -0.963396 0.731443 0
M  V30 2 C 2.334097 0.137324 0.685908 0
M  V30 3 N 2.719326 1.040394 1.730998 0
M  V30 4 C 2.579225 0.781234 3.106476 0 CFG=2
M  V30 5 C 3.653701 0.969132 4.067812 0
M  V30 6 C 4.286546 -0.310122 4.615639 0
M  V30 7 C 3.329682 -1.327950 5.121076 0
M  V30 8 N 1.998218 -0.996392 4.648016 0
M  V30 9 C 2.161485 -0.725132 3.226724 0
M  V30 10 C 2.633331 0.808902 -0.610173 0
M  V30 11 C 3.769195 1.435852 -1.053015 0
M  V30 12 C 3.787823 1.954092 -2.328393 0
M  V30 13 N 2.714123 1.855400 -3.153755 0
M  V30 14 C 1.579443 1.243296 -2.737950 0
M  V30 15 N 0.379254 1.006645 -3.364194 0
M  V30 16 C -0.408990 0.331692 -2.477492 0
M  V30 17 C -1.762301 -0.170516 -2.658185 0
M  V30 18 C -2.588692 -0.160086 -3.771514 0
M  V30 19 C -3.801372 -0.763871 -3.440831 0
M  V30 20 C -3.666554 -1.121383 -2.130227 0
M  V30 21 N -4.400985 -1.757220 -1.087206 0
M  V30 22 C -4.535846 -1.443300 0.327055 0
M  V30 23 C -4.516297 -2.776728 1.087583 0
M  V30 24 N -3.757528 -3.758607 0.365196 0
M  V30 25 C -4.321853 -4.124900 -0.888944 0
M  V30 26 C -5.114650 -2.968297 -1.489121 0
M  V30 27 O -2.511339 -0.756945 -1.784084 0
M  V30 28 N 0.282478 0.146700 -1.300296 0
M  V30 29 C 1.513389 0.709194 -1.459368 0
M  V30 30 H 3.144388 1.993791 1.746799 0
M  V30 31 H 1.616420 1.232141 3.458835 0
M  V30 32 H 4.487132 1.636165 3.731329 0
M  V30 33 H 3.252373 1.500150 4.951548 0
M  V30 34 H 4.952783 -0.002191 5.477520 0
M  V30 35 H 4.973100 -0.766086 3.875935 0
M  V30 36 H 3.638215 -2.343041 4.737347 0
M  V30 37 H 3.366244 -1.380882 6.233313 0
M  V30 38 H 1.333726 -1.778645 4.741232 0
M  V30 39 H 2.906728 -1.379589 2.817851 0
M  V30 40 H 1.170726 -0.893137 2.787873 0
M  V30 41 H 4.551398 1.436163 -0.295873 0
M  V30 42 H 4.727447 2.426264 -2.556608 0
M  V30 43 H -2.352881 0.241351 -4.742022 0
M  V30 44 H -4.704402 -0.973780 -3.987326 0
M  V30 45 H -5.512147 -0.960879 0.579790 0
M  V30 46 H -3.722352 -0.792167 0.710166 0
M  V30 47 H -5.536937 -3.141361 1.302525 0
M  V30 48 H -4.013852 -2.550695 2.033907 0
M  V30 49 H -2.765756 -3.517828 0.396374 0
M  V30 50 H -4.959276 -5.035218 -0.821056 0
M  V30 51 H -3.494964 -4.314665 -1.611471 0
M  V30 52 H -5.109634 -3.105863 -2.581299 0
M  V30 53 H -6.145099 -2.999807 -1.103105 0
M  V30 54 H -0.107361 -0.348658 -0.454064 0
M  V30 END ATOM
M  V30 BEGIN BOND
M  V30 1 2 1 2
M  V30 2 1 2 3
M  V30 3 1 3 4
M  V30 4 1 4 5
M  V30 5 1 5 6
M  V30 6 1 6 7
M  V30 7 1 7 8
M  V30 8 1 8 9
M  V30 9 1 2 10
M  V30 10 2 10 11
M  V30 11 1 11 12
M  V30 12 2 12 13
M  V30 13 1 13 14
M  V30 14 1 14 15
M  V30 15 2 15 16
M  V30 16 1 16 17
M  V30 17 2 17 18
M  V30 18 1 18 19
M  V30 19 2 19 20
M  V30 20 1 20 21
M  V30 21 1 21 22
M  V30 22 1 22 23
M  V30 23 1 23 24
M  V30 24 1 24 25
M  V30 25 1 25 26
M  V30 26 1 20 27
M  V30 27 1 16 28
M  V30 28 1 28 29
M  V30 29 1 9 4
M  V30 30 1 29 10
M  V30 31 2 29 14
M  V30 32 1 27 17
M  V30 33 1 26 21
M  V30 34 1 3 30
M  V30 35 1 4 31 CFG=1
M  V30 36 1 5 32
M  V30 37 1 5 33
M  V30 38 1 6 34
M  V30 39 1 6 35
M  V30 40 1 7 36
M  V30 41 1 7 37
M  V30 42 1 8 38
M  V30 43 1 9 39
M  V30 44 1 9 40
M  V30 45 1 11 41
M  V30 46 1 12 42
M  V30 47 1 18 43
M  V30 48 1 19 44
M  V30 49 1 22 45
M  V30 50 1 22 46
M  V30 51 1 23 47
M  V30 52 1 23 48
M  V30 53 1 24 49
M  V30 54 1 25 50
M  V30 55 1 25 51
M  V30 56 1 26 52
M  V30 57 1 26 53
M  V30 58 1 28 54
M  V30 END BOND
M  V30 END CTAB
M  END
>  <Dataset>  (615) 
ChEMBL_Kinases

>  <Ligand_Instance>  (615) 
nan

>  <PDB_ID>  (615) 
nan

>  <Standardized_SMILES>  (615) 
O=C(N[C@@H]1CCCNC1)c1ccnc2nc(-c3ccc(N4CCNCC4)o3)[nH]c12

>  <Name>  (615) 
nan

>  <Pocket>  (615) 
nan

>  <ATP_Site>  (615) 
nan

>  <Peripheral>  (615) 
nan

>  <Num_H_Atoms_ProtBoundConf>  (615) 
nan

>  <Num_Resolved_Atoms>  (615) 
nan

>  <Num_Not_Resolved_Atoms>  (615) 
nan

$$$$
CHEMBL3715801
     RDKit          3D

  0  0  0  0  0  0  0  0  0  0999 V3000
M  V30 BEGIN CTAB
M  V30 COUNTS 29 31 0 0 0
M  V30 BEGIN ATOM
M  V30 1 N -1.932183 -1.681126 5.079716 0
M  V30 2 C -1.430601 -2.060994 3.802081 0
M  V30 3 O -1.579320 -3.273305 3.497963 0
M  V30 4 C -0.794330 -1.066044 2.942589 0
M  V30 5 C -0.301227 -1.380669 1.716871 0
M  V30 6 C 0.310749 -0.439404 0.882107 0
M  V30 7 C 0.798673 -0.907978 -0.411875 0
M  V30 8 C 1.497274 -2.108054 -0.355787 0
M  V30 9 C 2.034348 -2.706308 -1.482700 0
M  V30 10 C 1.884022 -2.105041 -2.732210 0
M  V30 11 C 1.185931 -0.915679 -2.752778 0
M  V30 12 O 1.015773 -0.283653 -3.991990 0
M  V30 13 C 0.645524 -0.307197 -1.642372 0
M  V30 14 C 0.390981 0.847220 1.372243 0
M  V30 15 C 0.934008 1.954507 0.771788 0
M  V30 16 N 0.755005 2.952746 1.672417 0
M  V30 17 N 0.138476 2.486904 2.762047 0
M  V30 18 C -0.108872 1.170286 2.616870 0
M  V30 19 N -0.685508 0.215387 3.368385 0
M  V30 20 H -1.704594 -1.657704 6.105245 0
M  V30 21 H -2.899168 -1.260133 4.990154 0
M  V30 22 H -0.412177 -2.409897 1.425661 0
M  V30 23 H 1.687190 -2.678076 0.538884 0
M  V30 24 H 2.581615 -3.635948 -1.476530 0
M  V30 25 H 2.269453 -2.500566 -3.662938 0
M  V30 26 H 0.073511 0.031165 -4.193258 0
M  V30 27 H 0.102648 0.609472 -1.628677 0
M  V30 28 H 1.396213 2.027171 -0.187641 0
M  V30 29 H -0.130518 3.030520 3.622429 0
M  V30 END ATOM
M  V30 BEGIN BOND
M  V30 1 1 1 2
M  V30 2 2 2 3
M  V30 3 1 2 4
M  V30 4 2 4 5
M  V30 5 1 5 6
M  V30 6 1 6 7
M  V30 7 2 7 8
M  V30 8 1 8 9
M  V30 9 2 9 10
M  V30 10 1 10 11
M  V30 11 1 11 12
M  V30 12 2 11 13
M  V30 13 2 6 14
M  V30 14 1 14 15
M  V30 15 2 15 16
M  V30 16 1 16 17
M  V30 17 1 17 18
M  V30 18 2 18 19
M  V30 19 1 19 4
M  V30 20 1 13 7
M  V30 21 1 18 14
M  V30 22 1 1 20
M  V30 23 1 1 21
M  V30 24 1 5 22
M  V30 25 1 8 23
M  V30 26 1 9 24
M  V30 27 1 10 25
M  V30 28 1 12 26
M  V30 29 1 13 27
M  V30 30 1 15 28
M  V30 31 1 17 29
M  V30 END BOND
M  V30 END CTAB
M  END
>  <Dataset>  (616) 
ChEMBL_Kinases

>  <Ligand_Instance>  (616) 
nan

>  <PDB_ID>  (616) 
nan

>  <Standardized_SMILES>  (616) 
NC(=O)c1cc(-c2cccc(O)c2)c2cn[nH]c2n1

>  <Name>  (616) 
nan

>  <Pocket>  (616) 
nan

>  <ATP_Site>  (616) 
nan

>  <Peripheral>  (616) 
nan

>  <Num_H_Atoms_ProtBoundConf>  (616) 
nan

>  <Num_Resolved_Atoms>  (616) 
nan

>  <Num_Not_Resolved_Atoms>  (616) 
nan

$$$$
CHEMBL3715796
     RDKit          3D

  0  0  0  0  0  0  0  0  0  0999 V3000
M  V30 BEGIN CTAB
M  V30 COUNTS 41 45 0 0 0
M  V30 BEGIN ATOM
M  V30 1 O -0.962589 0.646159 2.654963 0
M  V30 2 C -0.810974 -0.553792 2.245834 0
M  V30 3 N 0.330781 -0.858120 1.500295 0
M  V30 4 C 1.322394 0.125159 1.184089 0
M  V30 5 N 2.397629 0.105876 0.552961 0
M  V30 6 C 3.133968 1.207683 0.416855 0
M  V30 7 C 4.334413 1.293202 -0.259332 0
M  V30 8 C 5.000490 2.472504 -0.333950 0
M  V30 9 C 4.588253 3.663164 0.222248 0
M  V30 10 N 4.936262 4.953729 0.362350 0
M  V30 11 N 4.037950 5.624770 1.063543 0
M  V30 12 C 3.037710 4.805285 1.428269 0
M  V30 13 C 3.391091 3.590361 0.899903 0
M  V30 14 C 2.701581 2.388450 0.982158 0
M  V30 15 S 1.151936 1.842960 1.739508 0
M  V30 16 C -1.869033 -1.536033 2.599524 0
M  V30 17 N -1.752456 -2.883676 2.136685 0
M  V30 18 C -1.753596 -3.304410 0.780000 0
M  V30 19 C -1.878306 -2.465165 -0.303955 0
M  V30 20 C -1.876049 -2.902332 -1.612087 0
M  V30 21 C -1.743772 -4.246085 -1.889768 0
M  V30 22 C -1.616826 -5.113446 -0.827569 0
M  V30 23 O -1.485967 -6.450767 -1.127460 0
M  V30 24 C -1.623411 -4.639547 0.466872 0
M  V30 25 C -2.710841 -1.316097 3.795536 0
M  V30 26 C -3.271307 -0.915562 2.499195 0
M  V30 27 H 0.509969 -1.796023 1.151012 0
M  V30 28 H 4.805372 0.448240 -0.757920 0
M  V30 29 H 5.960728 2.550751 -0.872224 0
M  V30 30 H 5.837339 5.292190 -0.072365 0
M  V30 31 H 2.144104 5.033329 2.009071 0
M  V30 32 H -1.659612 -3.598507 2.887351 0
M  V30 33 H -1.984844 -1.389591 -0.101872 0
M  V30 34 H -1.975209 -2.227309 -2.450165 0
M  V30 35 H -1.738879 -4.614868 -2.904280 0
M  V30 36 H -0.790387 -6.843468 -1.756122 0
M  V30 37 H -1.516691 -5.410481 1.228410 0
M  V30 38 H -3.138042 -2.207632 4.293638 0
M  V30 39 H -2.498035 -0.493062 4.508034 0
M  V30 40 H -4.031251 -1.525033 1.941414 0
M  V30 41 H -3.381059 0.151148 2.274434 0
M  V30 END ATOM
M  V30 BEGIN BOND
M  V30 1 2 1 2
M  V30 2 1 2 3
M  V30 3 1 3 4
M  V30 4 2 4 5
M  V30 5 1 5 6
M  V30 6 2 6 7
M  V30 7 1 7 8
M  V30 8 2 8 9
M  V30 9 1 9 10
M  V30 10 1 10 11
M  V30 11 2 11 12
M  V30 12 1 12 13
M  V30 13 2 13 14
M  V30 14 1 14 15
M  V30 15 1 2 16
M  V30 16 1 16 17
M  V30 17 1 17 18
M  V30 18 2 18 19
M  V30 19 1 19 20
M  V30 20 2 20 21
M  V30 21 1 21 22
M  V30 22 1 22 23
M  V30 23 2 22 24
M  V30 24 1 16 25
M  V30 25 1 25 26
M  V30 26 1 15 4
M  V30 27 1 26 16
M  V30 28 1 14 6
M  V30 29 1 24 18
M  V30 30 1 13 9
M  V30 31 1 3 27
M  V30 32 1 7 28
M  V30 33 1 8 29
M  V30 34 1 10 30
M  V30 35 1 12 31
M  V30 36 1 17 32
M  V30 37 1 19 33
M  V30 38 1 20 34
M  V30 39 1 21 35
M  V30 40 1 23 36
M  V30 41 1 24 37
M  V30 42 1 25 38
M  V30 43 1 25 39
M  V30 44 1 26 40
M  V30 45 1 26 41
M  V30 END BOND
M  V30 END CTAB
M  END
>  <Dataset>  (617) 
ChEMBL_Kinases

>  <Ligand_Instance>  (617) 
nan

>  <PDB_ID>  (617) 
nan

>  <Standardized_SMILES>  (617) 
O=C(Nc1nc2ccc3[nH]ncc3c2s1)C1(Nc2cccc(O)c2)CC1

>  <Name>  (617) 
nan

>  <Pocket>  (617) 
nan

>  <ATP_Site>  (617) 
nan

>  <Peripheral>  (617) 
nan

>  <Num_H_Atoms_ProtBoundConf>  (617) 
nan

>  <Num_Resolved_Atoms>  (617) 
nan

>  <Num_Not_Resolved_Atoms>  (617) 
nan

$$$$
CHEMBL3715789
     RDKit          3D

  0  0  0  0  0  0  0  0  0  0999 V3000
M  V30 BEGIN CTAB
M  V30 COUNTS 25 26 0 0 0
M  V30 BEGIN ATOM
M  V30 1 O -1.278590 -4.688567 4.855821 0
M  V30 2 C -1.134830 -4.570316 3.603466 0
M  V30 3 O -1.904030 -5.646640 3.185192 0
M  V30 4 C -0.281184 -3.431957 3.166754 0
M  V30 5 S -0.214644 -3.455288 1.334144 0
M  V30 6 C 0.813571 -2.086777 0.757517 0
M  V30 7 N 2.131695 -1.976647 0.501612 0
M  V30 8 N 2.372879 -0.735838 0.095916 0
M  V30 9 C 1.243678 -0.016517 0.075925 0
M  V30 10 C 1.073127 1.380249 -0.305849 0
M  V30 11 C -0.196890 1.932282 -0.252918 0
M  V30 12 C -0.370911 3.266328 -0.615698 0
M  V30 13 C 0.743856 3.985110 -1.015998 0
M  V30 14 F 0.493274 5.269621 -1.351225 0
M  V30 15 C 1.989574 3.426655 -1.062924 0
M  V30 16 F 3.009961 4.224702 -1.470544 0
M  V30 17 C 2.186594 2.094727 -0.704663 0
M  V30 18 N 0.280633 -0.864511 0.488550 0
M  V30 19 H -2.900604 -5.661696 3.088949 0
M  V30 20 H -0.720594 -2.477663 3.525497 0
M  V30 21 H 0.711032 -3.542457 3.623605 0
M  V30 22 H -1.069452 1.369147 0.060558 0
M  V30 23 H -1.356775 3.697077 -0.575280 0
M  V30 24 H 3.184604 1.679527 -0.751713 0
M  V30 25 H -0.720526 -0.575187 0.573267 0
M  V30 END ATOM
M  V30 BEGIN BOND
M  V30 1 2 1 2
M  V30 2 1 2 3
M  V30 3 1 2 4
M  V30 4 1 4 5
M  V30 5 1 5 6
M  V30 6 2 6 7
M  V30 7 1 7 8
M  V30 8 2 8 9
M  V30 9 1 9 10
M  V30 10 2 10 11
M  V30 11 1 11 12
M  V30 12 2 12 13
M  V30 13 1 13 14
M  V30 14 1 13 15
M  V30 15 1 15 16
M  V30 16 2 15 17
M  V30 17 1 9 18
M  V30 18 1 18 6
M  V30 19 1 17 10
M  V30 20 1 3 19
M  V30 21 1 4 20
M  V30 22 1 4 21
M  V30 23 1 11 22
M  V30 24 1 12 23
M  V30 25 1 17 24
M  V30 26 1 18 25
M  V30 END BOND
M  V30 END CTAB
M  END
>  <Dataset>  (618) 
ChEMBL_Kinases

>  <Ligand_Instance>  (618) 
nan

>  <PDB_ID>  (618) 
nan

>  <Standardized_SMILES>  (618) 
O=C(O)CSc1nnc(-c2ccc(F)c(F)c2)[nH]1

>  <Name>  (618) 
nan

>  <Pocket>  (618) 
nan

>  <ATP_Site>  (618) 
nan

>  <Peripheral>  (618) 
nan

>  <Num_H_Atoms_ProtBoundConf>  (618) 
nan

>  <Num_Resolved_Atoms>  (618) 
nan

>  <Num_Not_Resolved_Atoms>  (618) 
nan

$$$$
CHEMBL570047
     RDKit          3D

  0  0  0  0  0  0  0  0  0  0999 V3000
M  V30 BEGIN CTAB
M  V30 COUNTS 62 67 0 0 0
M  V30 BEGIN ATOM
M  V30 1 C 2.742176 2.671276 4.330845 0
M  V30 2 C 1.669017 1.705881 4.682730 0
M  V30 3 C 1.503429 0.402012 4.197922 0
M  V30 4 N 2.434369 -0.050544 3.273984 0
M  V30 5 C 3.167184 0.036893 2.114443 0
M  V30 6 C 4.532635 0.305120 2.336066 0
M  V30 7 C 5.068913 0.401330 3.688948 0
M  V30 8 N 5.484702 0.471766 4.790098 0
M  V30 9 C 5.502482 0.475967 1.373590 0
M  V30 10 N 5.053101 0.365817 0.127688 0
M  V30 11 C 3.793270 0.115195 -0.172825 0
M  V30 12 C 2.836128 -0.052741 0.793322 0
M  V30 13 C 1.488955 -0.327577 0.422173 0
M  V30 14 C 0.984289 -0.444420 -0.839875 0
M  V30 15 C -0.324956 -0.709943 -1.044358 0
M  V30 16 C -1.036942 -0.867455 -2.214403 0
M  V30 17 C -2.384786 -1.138128 -2.216678 0
M  V30 18 C -3.063887 -1.274055 -3.534369 0
M  V30 19 N -2.931335 -2.604998 -4.011080 0
M  V30 20 C -3.464117 -3.643970 -3.207252 0
M  V30 21 C -2.544539 -4.861010 -3.423588 0
M  V30 22 C -2.398350 -5.110236 -4.907730 0
M  V30 23 C -3.361492 -4.242582 -5.702921 0
M  V30 24 C -3.206781 -2.771077 -5.402115 0
M  V30 25 C -3.141349 -1.275557 -1.074878 0
M  V30 26 C -2.502327 -1.132540 0.136473 0
M  V30 27 C -1.134630 -0.859024 0.060475 0
M  V30 28 S 0.066411 -0.601420 1.399415 0
M  V30 29 C 0.406970 -0.289185 4.667477 0
M  V30 30 C -0.518552 0.180089 5.551426 0
M  V30 31 C -0.300310 1.464803 5.989901 0
M  V30 32 N -1.045059 2.186525 6.860526 0
M  V30 33 C -0.527289 3.412160 7.055548 0
M  V30 34 C 0.599264 3.448460 6.261234 0
M  V30 35 C 0.751049 2.241343 5.592634 0
M  V30 36 H 3.042980 2.579265 3.263655 0
M  V30 37 H 2.400534 3.720408 4.438850 0
M  V30 38 H 3.615643 2.545100 4.985544 0
M  V30 39 H 2.735731 -0.972170 3.716549 0
M  V30 40 H 6.539179 0.681284 1.582404 0
M  V30 41 H 3.602368 0.058056 -1.233488 0
M  V30 42 H 1.672512 -0.316512 -1.695777 0
M  V30 43 H -0.543548 -0.780143 -3.179357 0
M  V30 44 H -4.148530 -1.001014 -3.389679 0
M  V30 45 H -2.686397 -0.506366 -4.244401 0
M  V30 46 H -3.591272 -3.446304 -2.142086 0
M  V30 47 H -4.460334 -3.995829 -3.573330 0
M  V30 48 H -1.568870 -4.544148 -3.006217 0
M  V30 49 H -2.881120 -5.729975 -2.856301 0
M  V30 50 H -2.664713 -6.150412 -5.106346 0
M  V30 51 H -1.354824 -4.921464 -5.199419 0
M  V30 52 H -3.063633 -4.384096 -6.782056 0
M  V30 53 H -4.388855 -4.602834 -5.589353 0
M  V30 54 H -2.355790 -2.331096 -5.984616 0
M  V30 55 H -4.167552 -2.287942 -5.715327 0
M  V30 56 H -4.197368 -1.478062 -1.012797 0
M  V30 57 H -2.937437 -1.208000 1.110540 0
M  V30 58 H 0.272453 -1.302657 4.297727 0
M  V30 59 H -1.339107 -0.437437 5.856023 0
M  V30 60 H -1.914676 1.864268 7.337159 0
M  V30 61 H -0.884583 4.214849 7.684783 0
M  V30 62 H 1.268378 4.282815 6.166176 0
M  V30 END ATOM
M  V30 BEGIN BOND
M  V30 1 1 1 2
M  V30 2 2 2 3
M  V30 3 1 3 4
M  V30 4 1 4 5
M  V30 5 2 5 6
M  V30 6 1 6 7
M  V30 7 3 7 8
M  V30 8 1 6 9
M  V30 9 2 9 10
M  V30 10 1 10 11
M  V30 11 2 11 12
M  V30 12 1 12 13
M  V30 13 2 13 14
M  V30 14 1 14 15
M  V30 15 2 15 16
M  V30 16 1 16 17
M  V30 17 1 17 18
M  V30 18 1 18 19
M  V30 19 1 19 20
M  V30 20 1 20 21
M  V30 21 1 21 22
M  V30 22 1 22 23
M  V30 23 1 23 24
M  V30 24 2 17 25
M  V30 25 1 25 26
M  V30 26 2 26 27
M  V30 27 1 27 28
M  V30 28 1 3 29
M  V30 29 2 29 30
M  V30 30 1 30 31
M  V30 31 1 31 32
M  V30 32 1 32 33
M  V30 33 2 33 34
M  V30 34 1 34 35
M  V30 35 1 35 2
M  V30 36 1 12 5
M  V30 37 1 28 13
M  V30 38 2 35 31
M  V30 39 1 27 15
M  V30 40 1 24 19
M  V30 41 1 1 36
M  V30 42 1 1 37
M  V30 43 1 1 38
M  V30 44 1 4 39
M  V30 45 1 9 40
M  V30 46 1 11 41
M  V30 47 1 14 42
M  V30 48 1 16 43
M  V30 49 1 18 44
M  V30 50 1 18 45
M  V30 51 1 20 46
M  V30 52 1 20 47
M  V30 53 1 21 48
M  V30 54 1 21 49
M  V30 55 1 22 50
M  V30 56 1 22 51
M  V30 57 1 23 52
M  V30 58 1 23 53
M  V30 59 1 24 54
M  V30 60 1 24 55
M  V30 61 1 25 56
M  V30 62 1 26 57
M  V30 63 1 29 58
M  V30 64 1 30 59
M  V30 65 1 32 60
M  V30 66 1 33 61
M  V30 67 1 34 62
M  V30 END BOND
M  V30 END CTAB
M  END
>  <Dataset>  (619) 
ChEMBL_Kinases

>  <Ligand_Instance>  (619) 
nan

>  <PDB_ID>  (619) 
nan

>  <Standardized_SMILES>  (619) 
Cc1c(Nc2c(C#N)cncc2-c2cc3cc(CN4CCCCC4)ccc3s2)ccc2[nH]ccc12

>  <Name>  (619) 
nan

>  <Pocket>  (619) 
nan

>  <ATP_Site>  (619) 
nan

>  <Peripheral>  (619) 
nan

>  <Num_H_Atoms_ProtBoundConf>  (619) 
nan

>  <Num_Resolved_Atoms>  (619) 
nan

>  <Num_Not_Resolved_Atoms>  (619) 
nan

$$$$
CHEMBL3715740
     RDKit          3D

  0  0  0  0  0  0  0  0  0  0999 V3000
M  V30 BEGIN CTAB
M  V30 COUNTS 42 45 0 0 0
M  V30 BEGIN ATOM
M  V30 1 O -1.126384 0.131773 -2.207816 0
M  V30 2 C -0.155158 0.281005 -1.407345 0
M  V30 3 N 0.175515 -1.025578 -0.888176 0
M  V30 4 C -0.270591 -2.413428 -1.017030 0 CFG=1
M  V30 5 C 0.831017 -3.235175 -1.640800 0
M  V30 6 C 1.842670 -3.594737 -0.594701 0
M  V30 7 C 1.224407 -4.456289 0.470749 0
M  V30 8 N -0.212639 -4.399586 0.402893 0
M  V30 9 C -0.615905 -3.022710 0.323248 0
M  V30 10 C 0.739665 1.308178 -0.831676 0
M  V30 11 C 1.693516 2.051780 -1.489534 0
M  V30 12 C 2.461983 2.966501 -0.777588 0
M  V30 13 C 2.192112 3.051000 0.569233 0
M  V30 14 O 2.976288 3.973908 1.266383 0
M  V30 15 C 1.258421 2.343290 1.284921 0
M  V30 16 N 0.874145 2.305328 2.571254 0
M  V30 17 C -0.107024 1.394452 2.672195 0
M  V30 18 C -0.914884 0.933996 3.834186 0
M  V30 19 C -2.322051 0.519028 3.623881 0
M  V30 20 C -1.322344 -0.543675 3.882914 0
M  V30 21 N -0.328028 0.876441 1.469741 0
M  V30 22 C 0.505280 1.434479 0.541350 0
M  V30 23 H 0.963064 -1.172415 -0.187043 0
M  V30 24 H -1.157921 -2.464682 -1.704304 0
M  V30 25 H 0.357648 -4.206507 -1.973247 0
M  V30 26 H 1.285448 -2.721166 -2.515300 0
M  V30 27 H 2.697048 -4.145765 -1.086509 0
M  V30 28 H 2.252111 -2.691604 -0.121536 0
M  V30 29 H 1.590394 -4.148320 1.469772 0
M  V30 30 H 1.536619 -5.514456 0.286165 0
M  V30 31 H -0.576081 -4.753687 1.333240 0
M  V30 32 H -0.032077 -2.448855 1.099103 0
M  V30 33 H -1.707930 -2.908606 0.525180 0
M  V30 34 H 1.766220 1.853329 -2.549607 0
M  V30 35 H 3.192375 3.529501 -1.305342 0
M  V30 36 H 3.879361 3.728838 1.640099 0
M  V30 37 H 1.245577 2.862754 3.368430 0
M  V30 38 H -0.703089 1.427421 4.811875 0
M  V30 39 H -2.768000 0.611772 2.601879 0
M  V30 40 H -3.062762 0.703185 4.423848 0
M  V30 41 H -1.267960 -1.070281 4.855520 0
M  V30 42 H -1.025162 -1.142981 3.001206 0
M  V30 END ATOM
M  V30 BEGIN BOND
M  V30 1 2 1 2
M  V30 2 1 2 3
M  V30 3 1 3 4
M  V30 4 1 4 5
M  V30 5 1 5 6
M  V30 6 1 6 7
M  V30 7 1 7 8
M  V30 8 1 8 9
M  V30 9 1 2 10
M  V30 10 2 10 11
M  V30 11 1 11 12
M  V30 12 2 12 13
M  V30 13 1 13 14
M  V30 14 1 13 15
M  V30 15 1 15 16
M  V30 16 1 16 17
M  V30 17 1 17 18
M  V30 18 1 18 19
M  V30 19 1 19 20
M  V30 20 2 17 21
M  V30 21 1 21 22
M  V30 22 1 9 4
M  V30 23 1 22 10
M  V30 24 2 22 15
M  V30 25 1 20 18
M  V30 26 1 3 23
M  V30 27 1 4 24 CFG=3
M  V30 28 1 5 25
M  V30 29 1 5 26
M  V30 30 1 6 27
M  V30 31 1 6 28
M  V30 32 1 7 29
M  V30 33 1 7 30
M  V30 34 1 8 31
M  V30 35 1 9 32
M  V30 36 1 9 33
M  V30 37 1 11 34
M  V30 38 1 12 35
M  V30 39 1 14 36
M  V30 40 1 16 37
M  V30 41 1 18 38
M  V30 42 1 19 39
M  V30 43 1 19 40
M  V30 44 1 20 41
M  V30 45 1 20 42
M  V30 END BOND
M  V30 END CTAB
M  END
>  <Dataset>  (620) 
ChEMBL_Kinases

>  <Ligand_Instance>  (620) 
nan

>  <PDB_ID>  (620) 
nan

>  <Standardized_SMILES>  (620) 
O=C(N[C@H]1CCCNC1)c1ccc(O)c2[nH]c(C3CC3)nc12

>  <Name>  (620) 
nan

>  <Pocket>  (620) 
nan

>  <ATP_Site>  (620) 
nan

>  <Peripheral>  (620) 
nan

>  <Num_H_Atoms_ProtBoundConf>  (620) 
nan

>  <Num_Resolved_Atoms>  (620) 
nan

>  <Num_Not_Resolved_Atoms>  (620) 
nan

$$$$
CHEMBL3715689
     RDKit          3D

  0  0  0  0  0  0  0  0  0  0999 V3000
M  V30 BEGIN CTAB
M  V30 COUNTS 36 37 0 0 0
M  V30 BEGIN ATOM
M  V30 1 C -0.478761 -3.419969 3.289326 0
M  V30 2 N 0.488334 -4.335589 2.702973 0
M  V30 3 C -0.140927 -5.049338 1.630784 0
M  V30 4 C 1.688376 -3.635941 2.290783 0
M  V30 5 C 1.443442 -2.593678 1.286867 0
M  V30 6 C 1.151699 -1.289230 1.640417 0
M  V30 7 C 0.906094 -0.241541 0.763303 0
M  V30 8 C 0.958522 -0.531757 -0.585293 0
M  V30 9 C 0.703365 0.552832 -1.529166 0
M  V30 10 N 0.693493 0.547803 -2.868287 0
M  V30 11 N 0.407967 1.784607 -3.307405 0
M  V30 12 C 0.233069 2.590556 -2.244131 0
M  V30 13 S -0.164667 4.329798 -2.411017 0
M  V30 14 C -0.326077 5.086027 -0.747335 0
M  V30 15 C -1.496007 4.532461 -0.018654 0
M  V30 16 O -1.817539 4.898768 1.161312 0
M  V30 17 O -2.443677 3.582750 -0.375303 0
M  V30 18 N 0.419079 1.813871 -1.154028 0
M  V30 19 C 1.242898 -1.806260 -1.002732 0
M  V30 20 C 1.480094 -2.815097 -0.095445 0
M  V30 21 H 0.061187 -2.908847 4.118077 0
M  V30 22 H -1.304869 -4.030022 3.691473 0
M  V30 23 H -0.903108 -2.726037 2.559313 0
M  V30 24 H 0.415053 -5.976527 1.398521 0
M  V30 25 H -1.149392 -5.363635 1.997517 0
M  V30 26 H -0.307728 -4.416781 0.737974 0
M  V30 27 H 2.374407 -4.413850 1.881471 0
M  V30 28 H 2.111020 -3.131651 3.184590 0
M  V30 29 H 1.120621 -1.105049 2.715618 0
M  V30 30 H 0.686114 0.748753 1.132491 0
M  V30 31 H -0.287760 6.173732 -0.792349 0
M  V30 32 H 0.580433 4.758194 -0.162416 0
M  V30 33 H -3.437585 3.821149 -0.403196 0
M  V30 34 H 0.322891 2.268733 -0.223385 0
M  V30 35 H 1.276933 -2.003866 -2.048543 0
M  V30 36 H 1.706672 -3.822236 -0.419140 0
M  V30 END ATOM
M  V30 BEGIN BOND
M  V30 1 1 1 2
M  V30 2 1 2 3
M  V30 3 1 2 4
M  V30 4 1 4 5
M  V30 5 2 5 6
M  V30 6 1 6 7
M  V30 7 2 7 8
M  V30 8 1 8 9
M  V30 9 2 9 10
M  V30 10 1 10 11
M  V30 11 2 11 12
M  V30 12 1 12 13
M  V30 13 1 13 14
M  V30 14 1 14 15
M  V30 15 2 15 16
M  V30 16 1 15 17
M  V30 17 1 12 18
M  V30 18 1 8 19
M  V30 19 2 19 20
M  V30 20 1 20 5
M  V30 21 1 18 9
M  V30 22 1 1 21
M  V30 23 1 1 22
M  V30 24 1 1 23
M  V30 25 1 3 24
M  V30 26 1 3 25
M  V30 27 1 3 26
M  V30 28 1 4 27
M  V30 29 1 4 28
M  V30 30 1 6 29
M  V30 31 1 7 30
M  V30 32 1 14 31
M  V30 33 1 14 32
M  V30 34 1 17 33
M  V30 35 1 18 34
M  V30 36 1 19 35
M  V30 37 1 20 36
M  V30 END BOND
M  V30 END CTAB
M  END
>  <Dataset>  (621) 
ChEMBL_Kinases

>  <Ligand_Instance>  (621) 
nan

>  <PDB_ID>  (621) 
nan

>  <Standardized_SMILES>  (621) 
CN(C)Cc1ccc(-c2nnc(SCC(=O)O)[nH]2)cc1

>  <Name>  (621) 
nan

>  <Pocket>  (621) 
nan

>  <ATP_Site>  (621) 
nan

>  <Peripheral>  (621) 
nan

>  <Num_H_Atoms_ProtBoundConf>  (621) 
nan

>  <Num_Resolved_Atoms>  (621) 
nan

>  <Num_Not_Resolved_Atoms>  (621) 
nan

$$$$
CHEMBL3715293
     RDKit          3D

  0  0  0  0  0  0  0  0  0  0999 V3000
M  V30 BEGIN CTAB
M  V30 COUNTS 54 58 0 0 0
M  V30 BEGIN ATOM
M  V30 1 C -1.390960 3.742838 -2.213420 0
M  V30 2 N -0.691384 2.734231 -1.440877 0
M  V30 3 C 0.570010 2.860416 -0.989581 0
M  V30 4 C 0.929494 1.712740 -0.287854 0
M  V30 5 C 2.236036 1.524436 0.333994 0
M  V30 6 C 3.348659 0.964352 -0.258004 0
M  V30 7 C 4.536883 0.840371 0.440054 0
M  V30 8 C 5.657502 0.224695 -0.300928 0
M  V30 9 N 6.874887 0.101161 0.424023 0
M  V30 10 O 5.568104 -0.172019 -1.492642 0
M  V30 11 N 4.619781 1.266779 1.709340 0
M  V30 12 C 3.534682 1.821757 2.311243 0
M  V30 13 N 3.427820 2.301942 3.564391 0
M  V30 14 N 2.171468 2.749668 3.714660 0
M  V30 15 C 1.482354 2.558217 2.570950 0
M  V30 16 C 2.320345 1.963925 1.641219 0
M  V30 17 C -0.197942 0.910284 -0.357284 0
M  V30 18 C -0.325002 -0.346181 0.199513 0
M  V30 19 C -1.536842 -0.981411 0.014866 0
M  V30 20 O -1.886006 -2.227547 0.476463 0
M  V30 21 C -1.081611 -3.086916 1.219344 0
M  V30 22 C -1.750483 -4.392009 1.579708 0
M  V30 23 C -2.990353 -4.155820 2.401951 0
M  V30 24 C -4.119203 -4.881385 1.728085 0
M  V30 25 C -4.257998 -4.490702 0.275423 0
M  V30 26 N -3.066766 -4.800993 -0.435474 0
M  V30 27 C -1.983064 -5.264591 0.370168 0
M  V30 28 C -2.563981 -0.363731 -0.701448 0
M  V30 29 C -2.418276 0.904844 -1.256537 0
M  V30 30 C -1.194150 1.545479 -1.069513 0
M  V30 31 H -2.499813 3.588603 -2.176073 0
M  V30 32 H -1.127631 3.716652 -3.289288 0
M  V30 33 H -1.200557 4.766641 -1.857318 0
M  V30 34 H 1.194780 3.720541 -1.152265 0
M  V30 35 H 3.227680 0.635998 -1.285692 0
M  V30 36 H 7.197798 -0.808839 0.812407 0
M  V30 37 H 7.441402 -0.611476 0.907832 0
M  V30 38 H 4.193298 2.314614 4.273758 0
M  V30 39 H 0.456789 2.811111 2.377762 0
M  V30 40 H 0.415329 -0.869716 0.753738 0
M  V30 41 H -0.837252 -2.599368 2.200621 0
M  V30 42 H -0.139713 -3.303538 0.714480 0
M  V30 43 H -1.023063 -4.933110 2.217017 0
M  V30 44 H -2.879633 -4.608720 3.405983 0
M  V30 45 H -3.198888 -3.075657 2.537409 0
M  V30 46 H -3.977800 -5.964009 1.845752 0
M  V30 47 H -5.060487 -4.616290 2.278105 0
M  V30 48 H -5.177013 -4.881918 -0.157245 0
M  V30 49 H -4.378454 -3.372695 0.281599 0
M  V30 50 H -2.774954 -4.100450 -1.140591 0
M  V30 51 H -1.045336 -5.156707 -0.250002 0
M  V30 52 H -2.023191 -6.341784 0.630640 0
M  V30 53 H -3.529043 -0.797872 -0.883231 0
M  V30 54 H -3.187294 1.399703 -1.808535 0
M  V30 END ATOM
M  V30 BEGIN BOND
M  V30 1 1 1 2
M  V30 2 1 2 3
M  V30 3 2 3 4
M  V30 4 1 4 5
M  V30 5 2 5 6
M  V30 6 1 6 7
M  V30 7 1 7 8
M  V30 8 1 8 9
M  V30 9 2 8 10
M  V30 10 2 7 11
M  V30 11 1 11 12
M  V30 12 1 12 13
M  V30 13 1 13 14
M  V30 14 2 14 15
M  V30 15 1 15 16
M  V30 16 1 4 17
M  V30 17 2 17 18
M  V30 18 1 18 19
M  V30 19 1 19 20
M  V30 20 1 20 21
M  V30 21 1 21 22
M  V30 22 1 22 23
M  V30 23 1 23 24
M  V30 24 1 24 25
M  V30 25 1 25 26
M  V30 26 1 26 27
M  V30 27 2 19 28
M  V30 28 1 28 29
M  V30 29 2 29 30
M  V30 30 1 30 2
M  V30 31 1 16 5
M  V30 32 1 30 17
M  V30 33 2 16 12
M  V30 34 1 27 22
M  V30 35 1 1 31
M  V30 36 1 1 32
M  V30 37 1 1 33
M  V30 38 1 3 34
M  V30 39 1 6 35
M  V30 40 1 9 36
M  V30 41 1 9 37
M  V30 42 1 13 38
M  V30 43 1 15 39
M  V30 44 1 18 40
M  V30 45 1 21 41
M  V30 46 1 21 42
M  V30 47 1 22 43
M  V30 48 1 23 44
M  V30 49 1 23 45
M  V30 50 1 24 46
M  V30 51 1 24 47
M  V30 52 1 25 48
M  V30 53 1 25 49
M  V30 54 1 26 50
M  V30 55 1 27 51
M  V30 56 1 27 52
M  V30 57 1 28 53
M  V30 58 1 29 54
M  V30 END BOND
M  V30 END CTAB
M  END
>  <Dataset>  (622) 
ChEMBL_Kinases

>  <Ligand_Instance>  (622) 
nan

>  <PDB_ID>  (622) 
nan

>  <Standardized_SMILES>  (622) 
Cn1cc(-c2cc(C(N)=O)nc3[nH]ncc23)c2cc(OCC3CCCNC3)ccc21

>  <Name>  (622) 
nan

>  <Pocket>  (622) 
nan

>  <ATP_Site>  (622) 
nan

>  <Peripheral>  (622) 
nan

>  <Num_H_Atoms_ProtBoundConf>  (622) 
nan

>  <Num_Resolved_Atoms>  (622) 
nan

>  <Num_Not_Resolved_Atoms>  (622) 
nan

$$$$
CHEMBL3715663
     RDKit          3D

  0  0  0  0  0  0  0  0  0  0999 V3000
M  V30 BEGIN CTAB
M  V30 COUNTS 30 31 0 0 0
M  V30 BEGIN ATOM
M  V30 1 C -2.001805 -2.487111 3.232572 0
M  V30 2 O -1.424869 -3.703398 2.786127 0
M  V30 3 C -0.355687 -3.610613 1.904723 0
M  V30 4 C 0.129913 -2.380678 1.477021 0
M  V30 5 C 1.191881 -2.271638 0.601187 0
M  V30 6 C 1.651705 -0.947784 0.192545 0
M  V30 7 N 2.660266 -0.665778 -0.643121 0
M  V30 8 N 2.795328 0.645705 -0.784432 0
M  V30 9 C 1.833425 1.219839 -0.006892 0
M  V30 10 S 1.417678 2.951817 0.294771 0
M  V30 11 C 0.188733 3.514837 -0.923788 0
M  V30 12 C -0.163893 4.938531 -0.688522 0
M  V30 13 O -1.023210 5.382696 -1.517152 0
M  V30 14 O -0.056928 6.131671 -0.006831 0
M  V30 15 N 1.124869 0.222719 0.598643 0
M  V30 16 C 1.819882 -3.399631 0.110748 0
M  V30 17 C 1.356124 -4.633442 0.520575 0
M  V30 18 F 1.925360 -5.794137 0.079189 0
M  V30 19 C 0.280931 -4.730337 1.407011 0
M  V30 20 O -0.218004 -5.964970 1.845793 0
M  V30 21 H -1.263572 -1.875495 3.776007 0
M  V30 22 H -2.913604 -2.647152 3.835595 0
M  V30 23 H -2.341114 -1.864676 2.356342 0
M  V30 24 H -0.369591 -1.509255 1.867680 0
M  V30 25 H -0.742202 2.900688 -0.813703 0
M  V30 26 H 0.548740 3.423567 -1.966063 0
M  V30 27 H -0.639066 6.330746 0.796203 0
M  V30 28 H 0.313382 0.316643 1.263604 0
M  V30 29 H 2.651542 -3.317866 -0.575091 0
M  V30 30 H -1.173338 -6.192637 1.562161 0
M  V30 END ATOM
M  V30 BEGIN BOND
M  V30 1 1 1 2
M  V30 2 1 2 3
M  V30 3 2 3 4
M  V30 4 1 4 5
M  V30 5 1 5 6
M  V30 6 2 6 7
M  V30 7 1 7 8
M  V30 8 2 8 9
M  V30 9 1 9 10
M  V30 10 1 10 11
M  V30 11 1 11 12
M  V30 12 2 12 13
M  V30 13 1 12 14
M  V30 14 1 9 15
M  V30 15 2 5 16
M  V30 16 1 16 17
M  V30 17 1 17 18
M  V30 18 2 17 19
M  V30 19 1 19 20
M  V30 20 1 19 3
M  V30 21 1 15 6
M  V30 22 1 1 21
M  V30 23 1 1 22
M  V30 24 1 1 23
M  V30 25 1 4 24
M  V30 26 1 11 25
M  V30 27 1 11 26
M  V30 28 1 14 27
M  V30 29 1 15 28
M  V30 30 1 16 29
M  V30 31 1 20 30
M  V30 END BOND
M  V30 END CTAB
M  END
>  <Dataset>  (623) 
ChEMBL_Kinases

>  <Ligand_Instance>  (623) 
nan

>  <PDB_ID>  (623) 
nan

>  <Standardized_SMILES>  (623) 
COc1cc(-c2nnc(SCC(=O)O)[nH]2)cc(F)c1O

>  <Name>  (623) 
nan

>  <Pocket>  (623) 
nan

>  <ATP_Site>  (623) 
nan

>  <Peripheral>  (623) 
nan

>  <Num_H_Atoms_ProtBoundConf>  (623) 
nan

>  <Num_Resolved_Atoms>  (623) 
nan

>  <Num_Not_Resolved_Atoms>  (623) 
nan

$$$$
CHEMBL3715626
     RDKit          3D

  0  0  0  0  0  0  0  0  0  0999 V3000
M  V30 BEGIN CTAB
M  V30 COUNTS 39 42 0 0 0
M  V30 BEGIN ATOM
M  V30 1 O -1.182914 -1.910197 -2.052063 0
M  V30 2 C -0.713095 -1.233719 -1.076994 0
M  V30 3 N -0.136948 -2.062232 -0.066841 0
M  V30 4 C -0.018049 -3.478164 0.004219 0
M  V30 5 C -0.328984 -4.033641 1.350885 0
M  V30 6 C 1.009597 -4.454611 1.951972 0
M  V30 7 N 1.996095 -3.919901 1.068056 0
M  V30 8 C 1.420546 -3.942865 -0.239281 0
M  V30 9 C -0.776410 0.218168 -1.040482 0
M  V30 10 C -1.305728 0.848834 -2.138016 0
M  V30 11 C -1.405954 2.227545 -2.221783 0
M  V30 12 C -0.976993 3.014893 -1.200056 0
M  V30 13 O -1.048213 4.409903 -1.214887 0
M  V30 14 C -0.448395 2.394834 -0.101154 0
M  V30 15 N 0.066227 2.851060 1.077714 0
M  V30 16 C 0.459143 1.797534 1.838668 0
M  V30 17 C 1.051642 2.038674 3.174997 0
M  V30 18 C 2.146348 1.183233 3.669744 0
M  V30 19 C 0.771933 1.048532 4.243887 0
M  V30 20 N 0.197822 0.682881 1.151432 0
M  V30 21 C -0.344021 1.002684 -0.012272 0
M  V30 22 H 0.266395 -1.609189 0.794685 0
M  V30 23 H -0.644629 -3.932180 -0.767836 0
M  V30 24 H -0.727564 -3.196443 1.997485 0
M  V30 25 H -1.036396 -4.886335 1.350701 0
M  V30 26 H 1.118332 -4.045792 2.981849 0
M  V30 27 H 1.044623 -5.569598 1.964364 0
M  V30 28 H 2.924984 -4.394257 1.110581 0
M  V30 29 H 1.439163 -4.963403 -0.688431 0
M  V30 30 H 1.887319 -3.249293 -0.967798 0
M  V30 31 H -1.685921 0.334962 -3.021838 0
M  V30 32 H -1.822602 2.751091 -3.081188 0
M  V30 33 H -1.918118 4.826683 -1.517294 0
M  V30 34 H 0.105549 3.875921 1.258704 0
M  V30 35 H 1.070784 3.113354 3.511036 0
M  V30 36 H 2.527200 0.374756 3.052356 0
M  V30 37 H 2.901872 1.645727 4.356081 0
M  V30 38 H 0.145793 0.154771 3.972314 0
M  V30 39 H 0.556530 1.444977 5.272598 0
M  V30 END ATOM
M  V30 BEGIN BOND
M  V30 1 2 1 2
M  V30 2 1 2 3
M  V30 3 1 3 4
M  V30 4 1 4 5
M  V30 5 1 5 6
M  V30 6 1 6 7
M  V30 7 1 7 8
M  V30 8 1 2 9
M  V30 9 2 9 10
M  V30 10 1 10 11
M  V30 11 2 11 12
M  V30 12 1 12 13
M  V30 13 1 12 14
M  V30 14 1 14 15
M  V30 15 1 15 16
M  V30 16 1 16 17
M  V30 17 1 17 18
M  V30 18 1 18 19
M  V30 19 2 16 20
M  V30 20 1 20 21
M  V30 21 1 8 4
M  V30 22 1 21 9
M  V30 23 2 21 14
M  V30 24 1 19 17
M  V30 25 1 3 22
M  V30 26 1 4 23
M  V30 27 1 5 24
M  V30 28 1 5 25
M  V30 29 1 6 26
M  V30 30 1 6 27
M  V30 31 1 7 28
M  V30 32 1 8 29
M  V30 33 1 8 30
M  V30 34 1 10 31
M  V30 35 1 11 32
M  V30 36 1 13 33
M  V30 37 1 15 34
M  V30 38 1 17 35
M  V30 39 1 18 36
M  V30 40 1 18 37
M  V30 41 1 19 38
M  V30 42 1 19 39
M  V30 END BOND
M  V30 END CTAB
M  END
>  <Dataset>  (624) 
ChEMBL_Kinases

>  <Ligand_Instance>  (624) 
nan

>  <PDB_ID>  (624) 
nan

>  <Standardized_SMILES>  (624) 
O=C(NC1CCNC1)c1ccc(O)c2[nH]c(C3CC3)nc12

>  <Name>  (624) 
nan

>  <Pocket>  (624) 
nan

>  <ATP_Site>  (624) 
nan

>  <Peripheral>  (624) 
nan

>  <Num_H_Atoms_ProtBoundConf>  (624) 
nan

>  <Num_Resolved_Atoms>  (624) 
nan

>  <Num_Not_Resolved_Atoms>  (624) 
nan

$$$$
CHEMBL570488
     RDKit          3D

  0  0  0  0  0  0  0  0  0  0999 V3000
M  V30 BEGIN CTAB
M  V30 COUNTS 64 67 0 0 0
M  V30 BEGIN ATOM
M  V30 1 C 3.923031 0.829508 3.862551 0
M  V30 2 N 4.875690 1.845243 3.424575 0
M  V30 3 C 6.259180 2.054039 3.761396 0
M  V30 4 O 6.951684 1.106204 4.218194 0
M  V30 5 N 6.511964 3.437866 3.454385 0
M  V30 6 C 5.290569 4.012005 2.949320 0
M  V30 7 O 5.229525 5.272643 3.020133 0
M  V30 8 C 4.483973 2.869253 2.497097 0
M  V30 9 C 4.872213 2.550107 1.075029 0
M  V30 10 C 3.671576 1.786373 0.591710 0
M  V30 11 C 3.597562 0.890251 -0.454825 0
M  V30 12 C 2.394625 0.283456 -0.749315 0
M  V30 13 C 1.312603 0.619540 0.041936 0
M  V30 14 N 0.073058 -0.032024 -0.292676 0
M  V30 15 C -0.027823 -1.239375 0.433206 0
M  V30 16 O 0.920559 -1.564010 1.226140 0
M  V30 17 C -1.059063 -2.289948 0.486763 0
M  V30 18 N -2.197730 -2.056066 -0.363909 0
M  V30 19 C -3.314275 -1.316676 0.246444 0
M  V30 20 C -4.293933 -2.224667 0.890013 0
M  V30 21 C -4.235585 -2.634933 2.204874 0
M  V30 22 C -5.144962 -3.479282 2.804288 0
M  V30 23 C -6.194545 -3.943255 2.008746 0
M  V30 24 F -7.069190 -4.778439 2.652130 0
M  V30 25 C -6.293336 -3.558649 0.686132 0
M  V30 26 C -5.357475 -2.713002 0.136986 0
M  V30 27 C -2.496334 -2.387090 -1.697987 0
M  V30 28 O -1.361634 -2.773245 -1.340237 0
M  V30 29 C -2.820086 -2.718744 -3.066307 0
M  V30 30 C -3.094504 -1.490727 -3.917635 0
M  V30 31 C -1.722955 -3.485829 -3.768629 0
M  V30 32 C -4.039756 -3.656562 -3.096098 0
M  V30 33 C 1.367749 1.512212 1.091133 0
M  V30 34 C 2.587854 2.124999 1.386599 0
M  V30 35 C 3.009995 3.120880 2.427466 0
M  V30 36 H 3.428464 0.420374 2.961967 0
M  V30 37 H 4.421034 -0.005356 4.377751 0
M  V30 38 H 3.199618 1.270885 4.583442 0
M  V30 39 H 7.495732 3.799462 3.635541 0
M  V30 40 H 5.795609 1.962151 0.974867 0
M  V30 41 H 4.989465 3.519061 0.535584 0
M  V30 42 H 4.455366 0.652811 -1.047305 0
M  V30 43 H 2.331538 -0.420998 -1.570039 0
M  V30 44 H -0.785513 0.094479 -0.902312 0
M  V30 45 H -0.590193 -3.251570 0.207946 0
M  V30 46 H -1.400808 -2.444385 1.544428 0
M  V30 47 H -2.928058 -0.667212 1.086371 0
M  V30 48 H -3.805150 -0.629506 -0.440159 0
M  V30 49 H -3.424234 -2.275498 2.818686 0
M  V30 50 H -5.028163 -3.756703 3.850951 0
M  V30 51 H -7.151071 -3.996355 0.205933 0
M  V30 52 H -5.520978 -2.470600 -0.903404 0
M  V30 53 H -4.027299 -1.599062 -4.482566 0
M  V30 54 H -2.291404 -1.309237 -4.661407 0
M  V30 55 H -3.081706 -0.617221 -3.235782 0
M  V30 56 H -2.120280 -4.287341 -4.427709 0
M  V30 57 H -1.148055 -2.819728 -4.471538 0
M  V30 58 H -1.051519 -3.932862 -3.000958 0
M  V30 59 H -4.964919 -3.076052 -3.295268 0
M  V30 60 H -3.956911 -4.378670 -3.933743 0
M  V30 61 H -4.055354 -4.200072 -2.137627 0
M  V30 62 H 0.490316 1.744716 1.684697 0
M  V30 63 H 2.472286 2.990584 3.376139 0
M  V30 64 H 2.852429 4.126470 1.969599 0
M  V30 END ATOM
M  V30 BEGIN BOND
M  V30 1 1 1 2
M  V30 2 1 2 3
M  V30 3 2 3 4
M  V30 4 1 3 5
M  V30 5 1 5 6
M  V30 6 2 6 7
M  V30 7 1 6 8
M  V30 8 1 8 9
M  V30 9 1 9 10
M  V30 10 2 10 11
M  V30 11 1 11 12
M  V30 12 2 12 13
M  V30 13 1 13 14
M  V30 14 1 14 15
M  V30 15 2 15 16
M  V30 16 1 15 17
M  V30 17 1 17 18
M  V30 18 1 18 19
M  V30 19 1 19 20
M  V30 20 2 20 21
M  V30 21 1 21 22
M  V30 22 2 22 23
M  V30 23 1 23 24
M  V30 24 1 23 25
M  V30 25 2 25 26
M  V30 26 1 18 27
M  V30 27 2 27 28
M  V30 28 1 27 29
M  V30 29 1 29 30
M  V30 30 1 29 31
M  V30 31 1 29 32
M  V30 32 1 13 33
M  V30 33 2 33 34
M  V30 34 1 34 35
M  V30 35 1 8 2
M  V30 36 1 34 10
M  V30 37 1 35 8
M  V30 38 1 26 20
M  V30 39 1 1 36
M  V30 40 1 1 37
M  V30 41 1 1 38
M  V30 42 1 5 39
M  V30 43 1 9 40
M  V30 44 1 9 41
M  V30 45 1 11 42
M  V30 46 1 12 43
M  V30 47 1 14 44
M  V30 48 1 17 45
M  V30 49 1 17 46
M  V30 50 1 19 47
M  V30 51 1 19 48
M  V30 52 1 21 49
M  V30 53 1 22 50
M  V30 54 1 25 51
M  V30 55 1 26 52
M  V30 56 1 30 53
M  V30 57 1 30 54
M  V30 58 1 30 55
M  V30 59 1 31 56
M  V30 60 1 31 57
M  V30 61 1 31 58
M  V30 62 1 32 59
M  V30 63 1 32 60
M  V30 64 1 32 61
M  V30 65 1 33 62
M  V30 66 1 35 63
M  V30 67 1 35 64
M  V30 END BOND
M  V30 END CTAB
M  END
>  <Dataset>  (625) 
ChEMBL_Kinases

>  <Ligand_Instance>  (625) 
nan

>  <PDB_ID>  (625) 
nan

>  <Standardized_SMILES>  (625) 
CN1C(=O)NC(=O)C12Cc1ccc(NC(=O)CN(Cc3ccc(F)cc3)C(=O)C(C)(C)C)cc1C2

>  <Name>  (625) 
nan

>  <Pocket>  (625) 
nan

>  <ATP_Site>  (625) 
nan

>  <Peripheral>  (625) 
nan

>  <Num_H_Atoms_ProtBoundConf>  (625) 
nan

>  <Num_Resolved_Atoms>  (625) 
nan

>  <Num_Not_Resolved_Atoms>  (625) 
nan

$$$$
CHEMBL3715563
     RDKit          3D

  0  0  0  0  0  0  0  0  0  0999 V3000
M  V30 BEGIN CTAB
M  V30 COUNTS 43 46 0 0 0
M  V30 BEGIN ATOM
M  V30 1 C -1.246880 -4.454273 1.880756 0
M  V30 2 N -0.744742 -3.209772 1.314334 0
M  V30 3 C -0.268316 -2.975397 0.062418 0
M  V30 4 C 0.086987 -1.644199 0.001678 0
M  V30 5 C 0.642956 -1.017608 -1.192805 0
M  V30 6 C -0.108481 -0.409994 -2.196998 0
M  V30 7 C 0.604958 0.132282 -3.258599 0
M  V30 8 C -0.189181 0.769494 -4.310963 0
M  V30 9 N 0.523533 1.340081 -5.423586 0
M  V30 10 O -1.433495 0.848076 -4.303636 0
M  V30 11 N 1.956043 0.070609 -3.309018 0
M  V30 12 C 2.684743 -0.512431 -2.346353 0
M  V30 13 N 4.023277 -0.659743 -2.241113 0
M  V30 14 N 4.213307 -1.302589 -1.106425 0
M  V30 15 C 3.055345 -1.572222 -0.482563 0
M  V30 16 C 2.036706 -1.071128 -1.262996 0
M  V30 17 C -0.166801 -1.041432 1.217786 0
M  V30 18 C -0.003298 0.247454 1.700302 0
M  V30 19 C -0.359089 0.571527 3.011963 0
M  V30 20 O -0.123417 1.896181 3.304996 0
M  V30 21 C -0.391954 2.478980 4.551360 0
M  V30 22 C 0.368001 1.840026 5.673465 0
M  V30 23 N 1.308998 0.785400 5.849777 0
M  V30 24 O 0.037646 2.455622 6.741006 0
M  V30 25 C -0.871929 -0.434387 3.790690 0
M  V30 26 C -1.027356 -1.709180 3.294613 0
M  V30 27 C -0.681156 -2.040280 2.006421 0
M  V30 28 H -0.401072 -5.005330 2.372727 0
M  V30 29 H -2.058742 -4.253678 2.610035 0
M  V30 30 H -1.616569 -5.069773 1.031751 0
M  V30 31 H -0.208406 -3.759383 -0.709080 0
M  V30 32 H -1.164655 -0.407384 -2.075472 0
M  V30 33 H 0.809999 2.338405 -5.537060 0
M  V30 34 H 0.791220 2.366374 -5.489080 0
M  V30 35 H 4.727774 -0.322321 -2.932851 0
M  V30 36 H 2.872002 -2.082267 0.457646 0
M  V30 37 H 0.410432 0.941027 0.982863 0
M  V30 38 H -1.472489 2.307641 4.757523 0
M  V30 39 H -0.185230 3.567774 4.503717 0
M  V30 40 H 1.067727 0.073480 6.576854 0
M  V30 41 H 1.044759 0.086529 6.582529 0
M  V30 42 H -1.123996 -0.106817 4.793101 0
M  V30 43 H -1.444192 -2.434754 3.997077 0
M  V30 END ATOM
M  V30 BEGIN BOND
M  V30 1 1 1 2
M  V30 2 1 2 3
M  V30 3 2 3 4
M  V30 4 1 4 5
M  V30 5 2 5 6
M  V30 6 1 6 7
M  V30 7 1 7 8
M  V30 8 1 8 9
M  V30 9 2 8 10
M  V30 10 2 7 11
M  V30 11 1 11 12
M  V30 12 1 12 13
M  V30 13 1 13 14
M  V30 14 2 14 15
M  V30 15 1 15 16
M  V30 16 1 4 17
M  V30 17 2 17 18
M  V30 18 1 18 19
M  V30 19 1 19 20
M  V30 20 1 20 21
M  V30 21 1 21 22
M  V30 22 1 22 23
M  V30 23 2 22 24
M  V30 24 2 19 25
M  V30 25 1 25 26
M  V30 26 2 26 27
M  V30 27 1 27 2
M  V30 28 1 16 5
M  V30 29 1 27 17
M  V30 30 2 16 12
M  V30 31 1 1 28
M  V30 32 1 1 29
M  V30 33 1 1 30
M  V30 34 1 3 31
M  V30 35 1 6 32
M  V30 36 1 9 33
M  V30 37 1 9 34
M  V30 38 1 13 35
M  V30 39 1 15 36
M  V30 40 1 18 37
M  V30 41 1 21 38
M  V30 42 1 21 39
M  V30 43 1 23 40
M  V30 44 1 23 41
M  V30 45 1 25 42
M  V30 46 1 26 43
M  V30 END BOND
M  V30 END CTAB
M  END
>  <Dataset>  (626) 
ChEMBL_Kinases

>  <Ligand_Instance>  (626) 
nan

>  <PDB_ID>  (626) 
nan

>  <Standardized_SMILES>  (626) 
Cn1cc(-c2cc(C(N)=O)nc3[nH]ncc23)c2cc(OCC(N)=O)ccc21

>  <Name>  (626) 
nan

>  <Pocket>  (626) 
nan

>  <ATP_Site>  (626) 
nan

>  <Peripheral>  (626) 
nan

>  <Num_H_Atoms_ProtBoundConf>  (626) 
nan

>  <Num_Resolved_Atoms>  (626) 
nan

>  <Num_Not_Resolved_Atoms>  (626) 
nan

$$$$
CHEMBL570013
     RDKit          3D

  0  0  0  0  0  0  0  0  0  0999 V3000
M  V30 BEGIN CTAB
M  V30 COUNTS 29 31 0 0 0
M  V30 BEGIN ATOM
M  V30 1 O -0.342447 1.276130 0.556471 0
M  V30 2 C 0.471859 0.749953 1.366153 0
M  V30 3 N 1.263143 1.378477 2.362884 0
M  V30 4 C 2.048581 0.417545 3.060351 0
M  V30 5 C 2.953006 0.577992 4.096841 0
M  V30 6 C 3.579990 -0.558162 4.585630 0
M  V30 7 C 3.357765 -1.833995 4.103227 0
M  V30 8 C 2.445387 -1.952671 3.065576 0
M  V30 9 C 1.788728 -0.836142 2.540135 0
M  V30 10 C 0.799694 -0.666527 1.470249 0
M  V30 11 N 0.309325 -1.617488 0.749161 0
M  V30 12 C -0.654793 -1.378390 -0.280172 0
M  V30 13 C -0.164569 -1.030132 -1.544924 0
M  V30 14 C -1.000686 -0.770552 -2.636374 0
M  V30 15 C -2.352873 -0.880479 -2.385412 0
M  V30 16 N -3.234563 -0.625994 -3.463113 0 CHG=1 VAL=4
M  V30 17 O -2.852523 -0.314481 -4.601456 0
M  V30 18 O -4.601074 -0.693303 -3.376060 0 CHG=-1 VAL=1
M  V30 19 C -2.892073 -1.219519 -1.161809 0
M  V30 20 C -2.040546 -1.469381 -0.105430 0
M  V30 21 H 1.233682 2.411990 2.520440 0
M  V30 22 H 3.188216 1.551015 4.537932 0
M  V30 23 H 4.286671 -0.445052 5.393243 0
M  V30 24 H 3.877774 -2.696473 4.523321 0
M  V30 25 H 2.225045 -2.920739 2.641958 0
M  V30 26 H 0.894285 -0.954128 -1.703089 0
M  V30 27 H -0.578773 -0.506110 -3.590598 0
M  V30 28 H -3.949703 -1.301745 -0.979798 0
M  V30 29 H -2.335630 -1.744038 0.903359 0
M  V30 END ATOM
M  V30 BEGIN BOND
M  V30 1 2 1 2
M  V30 2 1 2 3
M  V30 3 1 3 4
M  V30 4 2 4 5
M  V30 5 1 5 6
M  V30 6 2 6 7
M  V30 7 1 7 8
M  V30 8 2 8 9
M  V30 9 1 9 10
M  V30 10 2 10 11
M  V30 11 1 11 12
M  V30 12 2 12 13
M  V30 13 1 13 14
M  V30 14 2 14 15
M  V30 15 1 15 16
M  V30 16 2 16 17
M  V30 17 1 16 18
M  V30 18 1 15 19
M  V30 19 2 19 20
M  V30 20 1 10 2
M  V30 21 1 20 12
M  V30 22 1 9 4
M  V30 23 1 3 21
M  V30 24 1 5 22
M  V30 25 1 6 23
M  V30 26 1 7 24
M  V30 27 1 8 25
M  V30 28 1 13 26
M  V30 29 1 14 27
M  V30 30 1 19 28
M  V30 31 1 20 29
M  V30 END BOND
M  V30 END CTAB
M  END
>  <Dataset>  (627) 
ChEMBL_Kinases

>  <Ligand_Instance>  (627) 
nan

>  <PDB_ID>  (627) 
nan

>  <Standardized_SMILES>  (627) 
O=C1Nc2ccccc2/C1=N/c1ccc([N+](=O)[O-])cc1

>  <Name>  (627) 
nan

>  <Pocket>  (627) 
nan

>  <ATP_Site>  (627) 
nan

>  <Peripheral>  (627) 
nan

>  <Num_H_Atoms_ProtBoundConf>  (627) 
nan

>  <Num_Resolved_Atoms>  (627) 
nan

>  <Num_Not_Resolved_Atoms>  (627) 
nan

$$$$
CHEMBL3717019
     RDKit          3D

  0  0  0  0  0  0  0  0  0  0999 V3000
M  V30 BEGIN CTAB
M  V30 COUNTS 63 67 0 0 0
M  V30 BEGIN ATOM
M  V30 1 C 1.286983 -5.664827 1.762679 0
M  V30 2 C 1.637129 -4.371344 1.011272 0
M  V30 3 C 2.958890 -3.899487 1.511109 0
M  V30 4 N 1.705332 -4.693504 -0.378958 0
M  V30 5 C 1.996044 -3.767919 -1.446242 0
M  V30 6 C 2.059015 -4.119284 -2.798756 0
M  V30 7 C 2.342748 -3.168960 -3.755818 0
M  V30 8 C 2.572673 -1.837500 -3.392380 0
M  V30 9 Cl 2.913596 -0.806260 -4.766044 0
M  V30 10 C 2.511579 -1.490930 -2.069331 0
M  V30 11 C 2.770895 -0.081273 -1.839574 0
M  V30 12 O 3.790453 0.095383 -1.095175 0
M  V30 13 N 1.973968 0.975060 -2.386375 0
M  V30 14 O 2.439341 2.175194 -2.014086 0
M  V30 15 C 1.727858 3.241954 -2.503130 0
M  V30 16 C 0.314716 3.266498 -2.095082 0
M  V30 17 C -0.048260 3.921289 -0.919759 0
M  V30 18 C -1.376463 3.938653 -0.547637 0
M  V30 19 C -2.385786 3.336851 -1.280663 0
M  V30 20 C -2.021311 2.680989 -2.458092 0
M  V30 21 C -0.707139 2.677080 -2.804396 0
M  V30 22 C 2.226652 -2.448732 -1.116013 0
M  V30 23 C 0.533713 -3.407925 1.327975 0
M  V30 24 O -0.326099 -2.856278 0.558283 0
M  V30 25 N 0.390520 -3.028510 2.667770 0
M  V30 26 C -0.669289 -2.114868 2.914189 0
M  V30 27 N -1.526169 -1.530141 2.338894 0
M  V30 28 C -2.414258 -0.703570 2.846680 0
M  V30 29 C -3.440935 0.009460 2.219807 0
M  V30 30 C -3.678250 -0.093483 0.737183 0
M  V30 31 F -2.579860 0.309534 0.033383 0
M  V30 32 F -3.955978 -1.450669 0.521959 0
M  V30 33 F -4.835471 0.587201 0.423597 0
M  V30 34 C -4.238336 0.810434 2.969916 0
M  V30 35 C -4.172234 1.027686 4.327521 0
M  V30 36 N -4.783744 1.721144 5.298491 0
M  V30 37 N -4.209576 1.487239 6.474452 0
M  V30 38 C -3.174822 0.611207 6.319199 0
M  V30 39 C -3.181641 0.347170 4.970285 0
M  V30 40 C -2.323511 -0.497468 4.250045 0
M  V30 41 S -0.932139 -1.547214 4.682496 0
M  V30 42 H 1.851795 -6.491431 1.291674 0
M  V30 43 H 0.190832 -5.849555 1.716587 0
M  V30 44 H 1.625956 -5.537920 2.790961 0
M  V30 45 H 3.433590 -4.665334 2.173761 0
M  V30 46 H 3.648912 -3.794164 0.649408 0
M  V30 47 H 2.927020 -2.903918 1.998659 0
M  V30 48 H 1.540297 -5.677248 -0.740409 0
M  V30 49 H 1.872313 -5.164073 -3.018529 0
M  V30 50 H 2.364756 -3.556891 -4.765507 0
M  V30 51 H 1.188770 0.603243 -2.966099 0
M  V30 52 H 2.214450 4.165585 -2.119884 0
M  V30 53 H 1.759590 3.260971 -3.629121 0
M  V30 54 H 0.739154 4.393980 -0.342960 0
M  V30 55 H -1.608410 4.464457 0.381246 0
M  V30 56 H -3.417478 3.358062 -0.978656 0
M  V30 57 H -2.779387 2.199839 -3.056843 0
M  V30 58 H -0.472891 2.151760 -3.733902 0
M  V30 59 H 2.209065 -2.039037 -0.114416 0
M  V30 60 H 1.019573 -3.397167 3.407148 0
M  V30 61 H -5.039513 1.360208 2.446176 0
M  V30 62 H -5.603276 2.347870 5.085879 0
M  V30 63 H -2.491420 0.198315 7.045445 0
M  V30 END ATOM
M  V30 BEGIN BOND
M  V30 1 1 1 2
M  V30 2 1 2 3
M  V30 3 1 2 4
M  V30 4 1 4 5
M  V30 5 2 5 6
M  V30 6 1 6 7
M  V30 7 2 7 8
M  V30 8 1 8 9
M  V30 9 1 8 10
M  V30 10 1 10 11
M  V30 11 2 11 12
M  V30 12 1 11 13
M  V30 13 1 13 14
M  V30 14 1 14 15
M  V30 15 1 15 16
M  V30 16 2 16 17
M  V30 17 1 17 18
M  V30 18 2 18 19
M  V30 19 1 19 20
M  V30 20 2 20 21
M  V30 21 2 10 22
M  V30 22 1 2 23
M  V30 23 2 23 24
M  V30 24 1 23 25
M  V30 25 1 25 26
M  V30 26 2 26 27
M  V30 27 1 27 28
M  V30 28 2 28 29
M  V30 29 1 29 30
M  V30 30 1 30 31
M  V30 31 1 30 32
M  V30 32 1 30 33
M  V30 33 1 29 34
M  V30 34 2 34 35
M  V30 35 1 35 36
M  V30 36 1 36 37
M  V30 37 2 37 38
M  V30 38 1 38 39
M  V30 39 2 39 40
M  V30 40 1 40 41
M  V30 41 1 22 5
M  V30 42 1 41 26
M  V30 43 1 21 16
M  V30 44 1 40 28
M  V30 45 1 39 35
M  V30 46 1 1 42
M  V30 47 1 1 43
M  V30 48 1 1 44
M  V30 49 1 3 45
M  V30 50 1 3 46
M  V30 51 1 3 47
M  V30 52 1 4 48
M  V30 53 1 6 49
M  V30 54 1 7 50
M  V30 55 1 13 51
M  V30 56 1 15 52
M  V30 57 1 15 53
M  V30 58 1 17 54
M  V30 59 1 18 55
M  V30 60 1 19 56
M  V30 61 1 20 57
M  V30 62 1 21 58
M  V30 63 1 22 59
M  V30 64 1 25 60
M  V30 65 1 34 61
M  V30 66 1 36 62
M  V30 67 1 38 63
M  V30 END BOND
M  V30 END CTAB
M  END
>  <Dataset>  (628) 
ChEMBL_Kinases

>  <Ligand_Instance>  (628) 
nan

>  <PDB_ID>  (628) 
nan

>  <Standardized_SMILES>  (628) 
CC(C)(Nc1ccc(Cl)c(C(=O)NOCc2ccccc2)c1)C(=O)Nc1nc2c(C(F)(F)F)cc3[nH]ncc3c2s1

>  <Name>  (628) 
nan

>  <Pocket>  (628) 
nan

>  <ATP_Site>  (628) 
nan

>  <Peripheral>  (628) 
nan

>  <Num_H_Atoms_ProtBoundConf>  (628) 
nan

>  <Num_Resolved_Atoms>  (628) 
nan

>  <Num_Not_Resolved_Atoms>  (628) 
nan

$$$$
CHEMBL3715148
     RDKit          3D

  0  0  0  0  0  0  0  0  0  0999 V3000
M  V30 BEGIN CTAB
M  V30 COUNTS 47 49 0 0 0
M  V30 BEGIN ATOM
M  V30 1 O 1.398685 -2.456673 2.202033 0
M  V30 2 C 2.267625 -1.663925 1.701172 0
M  V30 3 C 2.865731 -2.355619 0.542811 0
M  V30 4 O 3.842726 -1.621350 -0.136412 0
M  V30 5 C 3.598802 -0.427605 -0.761905 0
M  V30 6 C 4.783722 0.051480 -1.337939 0
M  V30 7 C 4.821288 1.249324 -2.038834 0
M  V30 8 C 3.686925 1.997561 -2.183994 0
M  V30 9 Br 3.630028 3.659498 -3.128903 0
M  V30 10 C 2.517868 1.544397 -1.626933 0
M  V30 11 C 2.460262 0.366993 -0.932769 0
M  V30 12 N 2.474765 -0.395474 2.293711 0
M  V30 13 C 1.767434 0.098424 3.434594 0
M  V30 14 C 0.305196 0.232373 3.250492 0
M  V30 15 O -0.185830 0.656759 4.337846 0
M  V30 16 N -0.543606 -0.011594 2.166027 0
M  V30 17 C -1.961505 0.187944 2.207887 0
M  V30 18 C -2.355106 1.228814 1.179754 0
M  V30 19 C -2.234552 0.580521 -0.183127 0
M  V30 20 C -3.465842 -0.304673 -0.364032 0
M  V30 21 C -3.401094 -1.370696 0.668098 0
M  V30 22 C -3.972125 -2.621349 0.593319 0
M  V30 23 C -3.886148 -3.566123 1.564706 0
M  V30 24 C -3.174117 -3.258802 2.718959 0
M  V30 25 C -2.587260 -2.015515 2.831421 0
M  V30 26 C -2.694891 -1.066274 1.813230 0
M  V30 27 H 2.087305 -2.742212 -0.153758 0
M  V30 28 H 3.363097 -3.273478 0.938602 0
M  V30 29 H 5.770336 -0.417886 -1.316397 0
M  V30 30 H 5.704952 1.663383 -2.501173 0
M  V30 31 H 1.561588 2.049471 -1.676754 0
M  V30 32 H 1.619924 -0.123617 -0.437183 0
M  V30 33 H 3.220953 0.129605 1.792090 0
M  V30 34 H 2.137555 1.153354 3.596755 0
M  V30 35 H 2.030009 -0.455973 4.358729 0
M  V30 36 H -0.045630 -0.345934 1.323056 0
M  V30 37 H -2.322188 0.555033 3.185546 0
M  V30 38 H -1.625476 2.055502 1.293161 0
M  V30 39 H -3.402083 1.570874 1.300439 0
M  V30 40 H -1.356045 -0.095541 -0.218483 0
M  V30 41 H -2.171525 1.338204 -1.001369 0
M  V30 42 H -3.504491 -0.725282 -1.388456 0
M  V30 43 H -4.362286 0.308340 -0.151550 0
M  V30 44 H -4.522085 -2.817722 -0.332945 0
M  V30 45 H -4.353851 -4.535133 1.456617 0
M  V30 46 H -3.132498 -4.040686 3.464182 0
M  V30 47 H -2.066453 -1.912990 3.779273 0
M  V30 END ATOM
M  V30 BEGIN BOND
M  V30 1 2 1 2
M  V30 2 1 2 3
M  V30 3 1 3 4
M  V30 4 1 4 5
M  V30 5 2 5 6
M  V30 6 1 6 7
M  V30 7 2 7 8
M  V30 8 1 8 9
M  V30 9 1 8 10
M  V30 10 2 10 11
M  V30 11 1 2 12
M  V30 12 1 12 13
M  V30 13 1 13 14
M  V30 14 2 14 15
M  V30 15 1 14 16
M  V30 16 1 16 17
M  V30 17 1 17 18
M  V30 18 1 18 19
M  V30 19 1 19 20
M  V30 20 1 20 21
M  V30 21 2 21 22
M  V30 22 1 22 23
M  V30 23 2 23 24
M  V30 24 1 24 25
M  V30 25 2 25 26
M  V30 26 1 11 5
M  V30 27 1 26 17
M  V30 28 1 26 21
M  V30 29 1 3 27
M  V30 30 1 3 28
M  V30 31 1 6 29
M  V30 32 1 7 30
M  V30 33 1 10 31
M  V30 34 1 11 32
M  V30 35 1 12 33
M  V30 36 1 13 34
M  V30 37 1 13 35
M  V30 38 1 16 36
M  V30 39 1 17 37
M  V30 40 1 18 38
M  V30 41 1 18 39
M  V30 42 1 19 40
M  V30 43 1 19 41
M  V30 44 1 20 42
M  V30 45 1 20 43
M  V30 46 1 22 44
M  V30 47 1 23 45
M  V30 48 1 24 46
M  V30 49 1 25 47
M  V30 END BOND
M  V30 END CTAB
M  END
>  <Dataset>  (629) 
ChEMBL_Kinases

>  <Ligand_Instance>  (629) 
nan

>  <PDB_ID>  (629) 
nan

>  <Standardized_SMILES>  (629) 
O=C(COc1ccc(Br)cc1)NCC(=O)NC1CCCc2ccccc21

>  <Name>  (629) 
nan

>  <Pocket>  (629) 
nan

>  <ATP_Site>  (629) 
nan

>  <Peripheral>  (629) 
nan

>  <Num_H_Atoms_ProtBoundConf>  (629) 
nan

>  <Num_Resolved_Atoms>  (629) 
nan

>  <Num_Not_Resolved_Atoms>  (629) 
nan

$$$$
CHEMBL3717017
     RDKit          3D

  0  0  0  0  0  0  0  0  0  0999 V3000
M  V30 BEGIN CTAB
M  V30 COUNTS 59 61 0 0 0
M  V30 BEGIN ATOM
M  V30 1 C 1.307390 -1.945286 9.231274 0
M  V30 2 C 1.052149 -2.357582 7.820252 0
M  V30 3 C 2.287562 -2.216471 6.944292 0
M  V30 4 C 2.657601 -0.743886 7.000727 0
M  V30 5 C 3.877742 -0.443543 6.167607 0
M  V30 6 O 3.792675 -0.729863 4.830417 0
M  V30 7 C 3.006709 -0.307106 3.824613 0
M  V30 8 C 3.356882 -0.950461 2.625914 0
M  V30 9 C 2.694192 -0.693347 1.418393 0
M  V30 10 C 1.663087 0.222243 1.406103 0
M  V30 11 C 0.978113 0.482284 0.144192 0
M  V30 12 O 1.346880 -0.110841 -0.902833 0
M  V30 13 N -0.107942 1.371926 -0.035854 0
M  V30 14 C -0.765072 1.607100 -1.293119 0
M  V30 15 C -1.354053 0.325703 -1.825504 0
M  V30 16 O -1.196316 -0.734673 -1.128592 0
M  V30 17 N -2.051509 0.303532 -3.045182 0
M  V30 18 C -2.607281 -0.974353 -3.518476 0
M  V30 19 C -4.093144 -0.853205 -3.665952 0
M  V30 20 C -4.600271 -0.956251 -5.070896 0
M  V30 21 C -3.694846 -0.191241 -6.047751 0
M  V30 22 C -2.436293 -1.012515 -6.063402 0
M  V30 23 C -1.835244 -1.371300 -7.230924 0
M  V30 24 C -0.670504 -2.132794 -7.193285 0
M  V30 25 C -0.168994 -2.496199 -5.944677 0
M  V30 26 C -0.806268 -2.113863 -4.772588 0
M  V30 27 C -1.976688 -1.348728 -4.807718 0
M  V30 28 C 1.295272 0.868724 2.558885 0
M  V30 29 C 1.977843 0.581704 3.720490 0
M  V30 30 H 0.683404 -2.518323 9.960611 0
M  V30 31 H 1.066635 -0.872591 9.343898 0
M  V30 32 H 2.381176 -2.078716 9.481680 0
M  V30 33 H 0.308768 -1.653502 7.378699 0
M  V30 34 H 0.700249 -3.419032 7.765083 0
M  V30 35 H 2.003859 -2.504391 5.922317 0
M  V30 36 H 3.103715 -2.844934 7.296000 0
M  V30 37 H 1.834476 -0.098179 6.670570 0
M  V30 38 H 2.898868 -0.465811 8.071044 0
M  V30 39 H 4.684706 -1.114509 6.597117 0
M  V30 40 H 4.229253 0.584927 6.407115 0
M  V30 41 H 4.152936 -1.696430 2.492953 0
M  V30 42 H 2.954402 -1.181504 0.491017 0
M  V30 43 H -0.441971 1.888270 0.828331 0
M  V30 44 H -0.020444 1.951326 -2.065780 0
M  V30 45 H -1.547397 2.356002 -1.173926 0
M  V30 46 H -2.161584 1.189364 -3.589307 0
M  V30 47 H -2.332571 -1.723595 -2.737391 0
M  V30 48 H -4.427931 0.101104 -3.191328 0
M  V30 49 H -4.556085 -1.688739 -3.073352 0
M  V30 50 H -5.627597 -0.601466 -5.139580 0
M  V30 51 H -4.538019 -2.021234 -5.400984 0
M  V30 52 H -4.193305 -0.155165 -7.020580 0
M  V30 53 H -3.503536 0.778345 -5.567320 0
M  V30 54 H -2.282833 -1.052650 -8.158220 0
M  V30 55 H -0.242493 -2.384752 -8.136157 0
M  V30 56 H 0.735935 -3.085790 -5.983414 0
M  V30 57 H -0.348404 -2.439358 -3.841808 0
M  V30 58 H 0.495928 1.593141 2.602836 0
M  V30 59 H 1.729052 1.063549 4.633016 0
M  V30 END ATOM
M  V30 BEGIN BOND
M  V30 1 1 1 2
M  V30 2 1 2 3
M  V30 3 1 3 4
M  V30 4 1 4 5
M  V30 5 1 5 6
M  V30 6 1 6 7
M  V30 7 2 7 8
M  V30 8 1 8 9
M  V30 9 2 9 10
M  V30 10 1 10 11
M  V30 11 2 11 12
M  V30 12 1 11 13
M  V30 13 1 13 14
M  V30 14 1 14 15
M  V30 15 2 15 16
M  V30 16 1 15 17
M  V30 17 1 17 18
M  V30 18 1 18 19
M  V30 19 1 19 20
M  V30 20 1 20 21
M  V30 21 1 21 22
M  V30 22 2 22 23
M  V30 23 1 23 24
M  V30 24 2 24 25
M  V30 25 1 25 26
M  V30 26 2 26 27
M  V30 27 1 10 28
M  V30 28 2 28 29
M  V30 29 1 29 7
M  V30 30 1 27 18
M  V30 31 1 27 22
M  V30 32 1 1 30
M  V30 33 1 1 31
M  V30 34 1 1 32
M  V30 35 1 2 33
M  V30 36 1 2 34
M  V30 37 1 3 35
M  V30 38 1 3 36
M  V30 39 1 4 37
M  V30 40 1 4 38
M  V30 41 1 5 39
M  V30 42 1 5 40
M  V30 43 1 8 41
M  V30 44 1 9 42
M  V30 45 1 13 43
M  V30 46 1 14 44
M  V30 47 1 14 45
M  V30 48 1 17 46
M  V30 49 1 18 47
M  V30 50 1 19 48
M  V30 51 1 19 49
M  V30 52 1 20 50
M  V30 53 1 20 51
M  V30 54 1 21 52
M  V30 55 1 21 53
M  V30 56 1 23 54
M  V30 57 1 24 55
M  V30 58 1 25 56
M  V30 59 1 26 57
M  V30 60 1 28 58
M  V30 61 1 29 59
M  V30 END BOND
M  V30 END CTAB
M  END
>  <Dataset>  (630) 
ChEMBL_Kinases

>  <Ligand_Instance>  (630) 
nan

>  <PDB_ID>  (630) 
nan

>  <Standardized_SMILES>  (630) 
CCCCCOc1ccc(C(=O)NCC(=O)NC2CCCc3ccccc32)cc1

>  <Name>  (630) 
nan

>  <Pocket>  (630) 
nan

>  <ATP_Site>  (630) 
nan

>  <Peripheral>  (630) 
nan

>  <Num_H_Atoms_ProtBoundConf>  (630) 
nan

>  <Num_Resolved_Atoms>  (630) 
nan

>  <Num_Not_Resolved_Atoms>  (630) 
nan

$$$$
CHEMBL3717012
     RDKit          3D

  0  0  0  0  0  0  0  0  0  0999 V3000
M  V30 BEGIN CTAB
M  V30 COUNTS 32 34 0 0 0
M  V30 BEGIN ATOM
M  V30 1 O 2.553304 0.274131 3.897975 0
M  V30 2 C 2.791139 -0.979993 3.936674 0
M  V30 3 O 2.007351 -1.750585 4.767728 0
M  V30 4 C 3.874453 -1.561654 3.109280 0
M  V30 5 S 4.706685 -0.280636 2.130901 0
M  V30 6 C 3.576359 0.396488 0.904249 0
M  V30 7 N 3.861632 1.365778 0.022673 0
M  V30 8 N 2.749421 1.562334 -0.689608 0
M  V30 9 C 1.796666 0.706876 -0.231595 0
M  V30 10 C 0.446419 0.642525 -0.784338 0
M  V30 11 C 0.045885 1.479891 -1.831184 0
M  V30 12 C -1.242429 1.399031 -2.341001 0
M  V30 13 C -2.174595 0.495344 -1.839157 0
M  V30 14 C -1.679892 -0.266840 -0.826291 0
M  V30 15 C -2.602556 -1.264397 -0.223178 0
M  V30 16 C -2.521775 -2.209978 0.792208 0
M  V30 17 C -3.626035 -2.958975 1.055274 0
M  V30 18 C -4.812635 -2.840540 0.383046 0
M  V30 19 S -4.377296 -1.445550 -0.858218 0
M  V30 20 C -0.461494 -0.283143 -0.248749 0
M  V30 21 N 2.310726 -0.029222 0.771106 0
M  V30 22 H 1.634642 -1.346943 5.624413 0
M  V30 23 H 3.494462 -2.377831 2.489007 0
M  V30 24 H 4.644477 -1.954931 3.805443 0
M  V30 25 H 0.773817 2.199186 -2.235393 0
M  V30 26 H -1.513851 2.075909 -3.164413 0
M  V30 27 H -3.175347 0.440162 -2.243545 0
M  V30 28 H -1.586964 -2.293905 1.311951 0
M  V30 29 H -3.652437 -3.713069 1.825413 0
M  V30 30 H -5.769709 -3.130522 0.240002 0
M  V30 31 H -0.163505 -0.930881 0.557323 0
M  V30 32 H 1.790965 -0.762360 1.299379 0
M  V30 END ATOM
M  V30 BEGIN BOND
M  V30 1 2 1 2
M  V30 2 1 2 3
M  V30 3 1 2 4
M  V30 4 1 4 5
M  V30 5 1 5 6
M  V30 6 2 6 7
M  V30 7 1 7 8
M  V30 8 2 8 9
M  V30 9 1 9 10
M  V30 10 2 10 11
M  V30 11 1 11 12
M  V30 12 2 12 13
M  V30 13 1 13 14
M  V30 14 1 14 15
M  V30 15 2 15 16
M  V30 16 1 16 17
M  V30 17 2 17 18
M  V30 18 1 18 19
M  V30 19 2 14 20
M  V30 20 1 9 21
M  V30 21 1 21 6
M  V30 22 1 20 10
M  V30 23 1 19 15
M  V30 24 1 3 22
M  V30 25 1 4 23
M  V30 26 1 4 24
M  V30 27 1 11 25
M  V30 28 1 12 26
M  V30 29 1 13 27
M  V30 30 1 16 28
M  V30 31 1 17 29
M  V30 32 1 18 30
M  V30 33 1 20 31
M  V30 34 1 21 32
M  V30 END BOND
M  V30 END CTAB
M  END
>  <Dataset>  (631) 
ChEMBL_Kinases

>  <Ligand_Instance>  (631) 
nan

>  <PDB_ID>  (631) 
nan

>  <Standardized_SMILES>  (631) 
O=C(O)CSc1nnc(-c2cccc(-c3cccs3)c2)[nH]1

>  <Name>  (631) 
nan

>  <Pocket>  (631) 
nan

>  <ATP_Site>  (631) 
nan

>  <Peripheral>  (631) 
nan

>  <Num_H_Atoms_ProtBoundConf>  (631) 
nan

>  <Num_Resolved_Atoms>  (631) 
nan

>  <Num_Not_Resolved_Atoms>  (631) 
nan

$$$$
CHEMBL3717003
     RDKit          3D

  0  0  0  0  0  0  0  0  0  0999 V3000
M  V30 BEGIN CTAB
M  V30 COUNTS 29 30 0 0 0
M  V30 BEGIN ATOM
M  V30 1 C -2.581369 -3.467627 3.447454 0
M  V30 2 C -1.463845 -2.617809 2.960195 0
M  V30 3 C -1.493617 -2.245907 1.618399 0
M  V30 4 C -0.505837 -1.453060 1.043904 0
M  V30 5 C 0.541537 -1.018493 1.829536 0
M  V30 6 C 1.576527 -0.188006 1.220714 0
M  V30 7 N 2.674275 0.340804 1.793447 0
M  V30 8 N 3.350729 1.035947 0.868925 0
M  V30 9 C 2.685737 0.952321 -0.296797 0
M  V30 10 S 3.125206 1.686800 -1.876228 0
M  V30 11 C 1.866646 1.240116 -3.103838 0
M  V30 12 C 0.544959 1.848296 -2.792177 0
M  V30 13 O 0.388317 2.991157 -3.314995 0
M  V30 14 O -0.718555 2.230926 -2.390239 0
M  V30 15 N 1.586390 0.190919 -0.068135 0
M  V30 16 C 0.592754 -1.373945 3.161651 0
M  V30 17 O 1.648247 -0.943392 3.982124 0
M  V30 18 C -0.402532 -2.165136 3.713352 0
M  V30 19 H -3.551479 -3.020726 3.153745 0
M  V30 20 H -2.509466 -4.452055 2.917920 0
M  V30 21 H -2.575876 -3.606760 4.531569 0
M  V30 22 H -2.325816 -2.589234 0.988794 0
M  V30 23 H -0.619011 -1.218879 -0.006495 0
M  V30 24 H 2.185126 1.469238 -4.130152 0
M  V30 25 H 1.708401 0.128420 -3.036504 0
M  V30 26 H -0.959786 2.211706 -1.386347 0
M  V30 27 H 0.876154 -0.041668 -0.818517 0
M  V30 28 H 2.494226 -1.501417 3.888680 0
M  V30 29 H -0.415146 -2.474936 4.748710 0
M  V30 END ATOM
M  V30 BEGIN BOND
M  V30 1 1 1 2
M  V30 2 2 2 3
M  V30 3 1 3 4
M  V30 4 2 4 5
M  V30 5 1 5 6
M  V30 6 2 6 7
M  V30 7 1 7 8
M  V30 8 2 8 9
M  V30 9 1 9 10
M  V30 10 1 10 11
M  V30 11 1 11 12
M  V30 12 2 12 13
M  V30 13 1 12 14
M  V30 14 1 9 15
M  V30 15 1 5 16
M  V30 16 1 16 17
M  V30 17 2 16 18
M  V30 18 1 18 2
M  V30 19 1 15 6
M  V30 20 1 1 19
M  V30 21 1 1 20
M  V30 22 1 1 21
M  V30 23 1 3 22
M  V30 24 1 4 23
M  V30 25 1 11 24
M  V30 26 1 11 25
M  V30 27 1 14 26
M  V30 28 1 15 27
M  V30 29 1 17 28
M  V30 30 1 18 29
M  V30 END BOND
M  V30 END CTAB
M  END
>  <Dataset>  (632) 
ChEMBL_Kinases

>  <Ligand_Instance>  (632) 
nan

>  <PDB_ID>  (632) 
nan

>  <Standardized_SMILES>  (632) 
Cc1ccc(-c2nnc(SCC(=O)O)[nH]2)c(O)c1

>  <Name>  (632) 
nan

>  <Pocket>  (632) 
nan

>  <ATP_Site>  (632) 
nan

>  <Peripheral>  (632) 
nan

>  <Num_H_Atoms_ProtBoundConf>  (632) 
nan

>  <Num_Resolved_Atoms>  (632) 
nan

>  <Num_Not_Resolved_Atoms>  (632) 
nan

$$$$
CHEMBL3716999
     RDKit          3D

  0  0  0  0  0  0  0  0  0  0999 V3000
M  V30 BEGIN CTAB
M  V30 COUNTS 56 60 0 0 0
M  V30 BEGIN ATOM
M  V30 1 O 3.473383 0.278460 3.837584 0
M  V30 2 C 2.567401 0.520651 2.985864 0
M  V30 3 N 1.407898 -0.290077 2.899443 0
M  V30 4 C 1.018882 -1.441481 3.658103 0 CFG=1
M  V30 5 C -0.338640 -1.192558 4.246645 0
M  V30 6 C -0.768152 -2.436839 4.985175 0
M  V30 7 C 0.340108 -3.455313 4.973210 0
M  V30 8 N 0.781171 -3.808895 3.659629 0
M  V30 9 C 0.936655 -2.674646 2.781950 0
M  V30 10 C 2.789385 1.668790 2.111940 0
M  V30 11 C 3.631860 2.697952 2.485642 0
M  V30 12 C 3.844637 3.798113 1.658415 0
M  V30 13 C 3.221271 3.902458 0.432775 0
M  V30 14 O 3.422005 4.990255 -0.401543 0
M  V30 15 C 2.373550 2.894085 0.027154 0
M  V30 16 N 1.619128 2.693788 -1.093552 0
M  V30 17 C 0.986488 1.539589 -0.952276 0
M  V30 18 C 0.036398 0.871687 -1.899335 0
M  V30 19 C -0.417600 1.244171 -3.077203 0
M  V30 20 C -1.280984 0.452548 -3.748392 0
M  V30 21 C -1.644125 -0.720157 -3.154017 0
M  V30 22 N -2.484102 -1.881514 -3.384559 0
M  V30 23 C -1.941463 -3.244588 -3.306571 0
M  V30 24 C -2.481068 -3.820115 -2.022372 0
M  V30 25 N -3.835748 -3.402295 -1.757987 0
M  V30 26 C -4.580838 -3.052496 -2.949338 0
M  V30 27 C -3.917513 -1.951645 -3.704931 0
M  V30 28 S -0.716279 -0.667229 -1.598610 0
M  V30 29 N 1.333673 1.019020 0.233561 0
M  V30 30 C 2.192586 1.824526 0.876672 0
M  V30 31 H 0.672705 -0.097839 2.213144 0
M  V30 32 H 1.812163 -1.634989 4.394249 0
M  V30 33 H -1.026923 -1.052791 3.363752 0
M  V30 34 H -0.365904 -0.271192 4.849083 0
M  V30 35 H -0.940001 -2.147943 6.048920 0
M  V30 36 H -1.717910 -2.850930 4.576108 0
M  V30 37 H 1.134136 -3.115720 5.649328 0
M  V30 38 H -0.077784 -4.376750 5.452502 0
M  V30 39 H 0.096056 -4.470954 3.229824 0
M  V30 40 H 1.914416 -2.791459 2.263360 0
M  V30 41 H 0.148066 -2.604991 2.023799 0
M  V30 42 H 4.124950 2.627647 3.442217 0
M  V30 43 H 4.517187 4.568994 2.006618 0
M  V30 44 H 3.501014 5.903662 0.026000 0
M  V30 45 H 1.548945 3.331704 -1.918343 0
M  V30 46 H -0.107978 2.184261 -3.518338 0
M  V30 47 H -1.749891 0.596041 -4.712430 0
M  V30 48 H -2.150483 -3.839124 -4.193443 0
M  V30 49 H -0.823433 -3.206055 -3.189136 0
M  V30 50 H -1.852452 -3.404693 -1.191717 0
M  V30 51 H -2.426749 -4.927079 -2.069633 0
M  V30 52 H -4.348192 -4.028083 -1.129996 0
M  V30 53 H -5.568713 -2.690305 -2.601282 0
M  V30 54 H -4.809043 -3.937244 -3.590573 0
M  V30 55 H -4.334780 -0.969927 -3.329791 0
M  V30 56 H -4.115864 -1.956353 -4.774455 0
M  V30 END ATOM
M  V30 BEGIN BOND
M  V30 1 2 1 2
M  V30 2 1 2 3
M  V30 3 1 3 4
M  V30 4 1 4 5
M  V30 5 1 5 6
M  V30 6 1 6 7
M  V30 7 1 7 8
M  V30 8 1 8 9
M  V30 9 1 2 10
M  V30 10 2 10 11
M  V30 11 1 11 12
M  V30 12 2 12 13
M  V30 13 1 13 14
M  V30 14 1 13 15
M  V30 15 1 15 16
M  V30 16 1 16 17
M  V30 17 1 17 18
M  V30 18 2 18 19
M  V30 19 1 19 20
M  V30 20 2 20 21
M  V30 21 1 21 22
M  V30 22 1 22 23
M  V30 23 1 23 24
M  V30 24 1 24 25
M  V30 25 1 25 26
M  V30 26 1 26 27
M  V30 27 1 21 28
M  V30 28 2 17 29
M  V30 29 1 29 30
M  V30 30 1 9 4
M  V30 31 1 30 10
M  V30 32 2 30 15
M  V30 33 1 28 18
M  V30 34 1 27 22
M  V30 35 1 3 31
M  V30 36 1 4 32 CFG=1
M  V30 37 1 5 33
M  V30 38 1 5 34
M  V30 39 1 6 35
M  V30 40 1 6 36
M  V30 41 1 7 37
M  V30 42 1 7 38
M  V30 43 1 8 39
M  V30 44 1 9 40
M  V30 45 1 9 41
M  V30 46 1 11 42
M  V30 47 1 12 43
M  V30 48 1 14 44
M  V30 49 1 16 45
M  V30 50 1 19 46
M  V30 51 1 20 47
M  V30 52 1 23 48
M  V30 53 1 23 49
M  V30 54 1 24 50
M  V30 55 1 24 51
M  V30 56 1 25 52
M  V30 57 1 26 53
M  V30 58 1 26 54
M  V30 59 1 27 55
M  V30 60 1 27 56
M  V30 END BOND
M  V30 END CTAB
M  END
>  <Dataset>  (633) 
ChEMBL_Kinases

>  <Ligand_Instance>  (633) 
nan

>  <PDB_ID>  (633) 
nan

>  <Standardized_SMILES>  (633) 
O=C(N[C@H]1CCCNC1)c1ccc(O)c2[nH]c(-c3ccc(N4CCNCC4)s3)nc12

>  <Name>  (633) 
nan

>  <Pocket>  (633) 
nan

>  <ATP_Site>  (633) 
nan

>  <Peripheral>  (633) 
nan

>  <Num_H_Atoms_ProtBoundConf>  (633) 
nan

>  <Num_Resolved_Atoms>  (633) 
nan

>  <Num_Not_Resolved_Atoms>  (633) 
nan

$$$$
CHEMBL3716984
     RDKit          3D

  0  0  0  0  0  0  0  0  0  0999 V3000
M  V30 BEGIN CTAB
M  V30 COUNTS 27 28 0 0 0
M  V30 BEGIN ATOM
M  V30 1 O 1.685578 -3.314828 4.584642 0
M  V30 2 C 1.751019 -3.445491 3.323387 0
M  V30 3 O 0.375554 -3.225443 3.163974 0
M  V30 4 C 3.027526 -3.734312 2.575618 0
M  V30 5 S 2.579449 -3.827937 0.818217 0
M  V30 6 C 2.052479 -2.205141 0.280444 0
M  V30 7 N 2.916053 -1.300956 -0.241408 0
M  V30 8 N 2.222463 -0.202145 -0.543243 0
M  V30 9 C 0.915363 -0.373858 -0.226114 0
M  V30 10 C -0.163705 0.593107 -0.398617 0
M  V30 11 C 0.080532 1.838541 -0.957125 0
M  V30 12 C -0.989099 2.731288 -1.097337 0
M  V30 13 O -0.818094 3.993987 -1.648407 0
M  V30 14 C -2.231608 2.316747 -0.668390 0
M  V30 15 C -2.494690 1.084215 -0.111173 0
M  V30 16 O -3.752704 0.665311 0.322437 0
M  V30 17 C -1.435528 0.220226 0.018997 0
M  V30 18 N 0.840320 -1.619232 0.280089 0
M  V30 19 H -0.270519 -3.978450 3.241476 0
M  V30 20 H 3.457622 -4.656587 2.969671 0
M  V30 21 H 3.664401 -2.840385 2.779866 0
M  V30 22 H 1.077459 2.126506 -1.283728 0
M  V30 23 H -0.126208 4.614141 -1.291766 0
M  V30 24 H -3.080177 3.005387 -0.771876 0
M  V30 25 H -3.803783 0.255411 1.267969 0
M  V30 26 H -1.614337 -0.757666 0.454333 0
M  V30 27 H -0.019706 -2.106798 0.636298 0
M  V30 END ATOM
M  V30 BEGIN BOND
M  V30 1 2 1 2
M  V30 2 1 2 3
M  V30 3 1 2 4
M  V30 4 1 4 5
M  V30 5 1 5 6
M  V30 6 2 6 7
M  V30 7 1 7 8
M  V30 8 2 8 9
M  V30 9 1 9 10
M  V30 10 2 10 11
M  V30 11 1 11 12
M  V30 12 1 12 13
M  V30 13 2 12 14
M  V30 14 1 14 15
M  V30 15 1 15 16
M  V30 16 2 15 17
M  V30 17 1 9 18
M  V30 18 1 18 6
M  V30 19 1 17 10
M  V30 20 1 3 19
M  V30 21 1 4 20
M  V30 22 1 4 21
M  V30 23 1 11 22
M  V30 24 1 13 23
M  V30 25 1 14 24
M  V30 26 1 16 25
M  V30 27 1 17 26
M  V30 28 1 18 27
M  V30 END BOND
M  V30 END CTAB
M  END
>  <Dataset>  (634) 
ChEMBL_Kinases

>  <Ligand_Instance>  (634) 
nan

>  <PDB_ID>  (634) 
nan

>  <Standardized_SMILES>  (634) 
O=C(O)CSc1nnc(-c2cc(O)cc(O)c2)[nH]1

>  <Name>  (634) 
nan

>  <Pocket>  (634) 
nan

>  <ATP_Site>  (634) 
nan

>  <Peripheral>  (634) 
nan

>  <Num_H_Atoms_ProtBoundConf>  (634) 
nan

>  <Num_Resolved_Atoms>  (634) 
nan

>  <Num_Not_Resolved_Atoms>  (634) 
nan

$$$$
CHEMBL3716979
     RDKit          3D

  0  0  0  0  0  0  0  0  0  0999 V3000
M  V30 BEGIN CTAB
M  V30 COUNTS 45 48 0 0 0
M  V30 BEGIN ATOM
M  V30 1 O -0.041981 -2.434209 3.478721 0
M  V30 2 C 0.092862 -1.255965 3.082367 0
M  V30 3 N 1.207263 -1.117740 2.193702 0
M  V30 4 C 1.937895 -2.369802 1.942235 0
M  V30 5 C 3.061720 -2.010651 0.992094 0
M  V30 6 C 2.404398 -1.458757 -0.253712 0
M  V30 7 C 3.231555 -1.699111 -1.492156 0
M  V30 8 C 4.693431 -1.711871 -1.038818 0
M  V30 9 C 4.876123 -2.965624 -0.235881 0
M  V30 10 N 3.811508 -3.207700 0.703858 0
M  V30 11 C -0.617076 0.024731 3.307268 0
M  V30 12 C -0.431135 0.786666 4.440976 0
M  V30 13 C -1.165302 1.977289 4.517233 0
M  V30 14 C -2.000859 2.281040 3.464011 0
M  V30 15 O -2.715486 3.489603 3.591128 0
M  V30 16 C -2.182579 1.514946 2.333113 0
M  V30 17 N -2.943525 1.660038 1.232989 0
M  V30 18 C -2.687782 0.563888 0.467967 0
M  V30 19 C -3.271154 0.284470 -0.803730 0
M  V30 20 C -4.170362 1.054396 -1.476047 0
M  V30 21 C -4.680057 0.713926 -2.686214 0
M  V30 22 C -4.136503 -0.593994 -3.178932 0
M  V30 23 S -2.966654 -1.105772 -1.781970 0
M  V30 24 N -1.806295 -0.214046 1.082492 0
M  V30 25 C -1.457001 0.320299 2.237875 0
M  V30 26 H 1.487061 -0.191652 1.751542 0
M  V30 27 H 1.272768 -3.079861 1.375824 0
M  V30 28 H 2.282923 -2.798670 2.894085 0
M  V30 29 H 3.718909 -1.227892 1.434810 0
M  V30 30 H 2.324099 -0.368836 -0.117942 0
M  V30 31 H 1.376944 -1.847671 -0.393838 0
M  V30 32 H 3.002317 -2.721704 -1.849321 0
M  V30 33 H 3.057675 -0.959993 -2.283146 0
M  V30 34 H 4.935427 -0.793052 -0.464221 0
M  V30 35 H 5.323679 -1.767735 -1.933982 0
M  V30 36 H 4.930729 -3.803878 -0.991165 0
M  V30 37 H 5.869084 -2.915399 0.246874 0
M  V30 38 H 4.253556 -3.526890 1.602813 0
M  V30 39 H 0.247031 0.456905 5.205810 0
M  V30 40 H -1.036552 2.586132 5.389256 0
M  V30 41 H -2.211610 4.349257 3.335482 0
M  V30 42 H -3.597441 2.475321 1.034432 0
M  V30 43 H -4.539832 2.010028 -1.069693 0
M  V30 44 H -5.384324 1.215821 -3.321826 0
M  V30 45 H -4.526612 -0.989285 -4.246215 0
M  V30 END ATOM
M  V30 BEGIN BOND
M  V30 1 2 1 2
M  V30 2 1 2 3
M  V30 3 1 3 4
M  V30 4 1 4 5
M  V30 5 1 5 6
M  V30 6 1 6 7
M  V30 7 1 7 8
M  V30 8 1 8 9
M  V30 9 1 9 10
M  V30 10 1 2 11
M  V30 11 2 11 12
M  V30 12 1 12 13
M  V30 13 2 13 14
M  V30 14 1 14 15
M  V30 15 1 14 16
M  V30 16 1 16 17
M  V30 17 1 17 18
M  V30 18 1 18 19
M  V30 19 2 19 20
M  V30 20 1 20 21
M  V30 21 2 21 22
M  V30 22 1 22 23
M  V30 23 2 18 24
M  V30 24 1 24 25
M  V30 25 1 10 5
M  V30 26 1 25 11
M  V30 27 2 25 16
M  V30 28 1 23 19
M  V30 29 1 3 26
M  V30 30 1 4 27
M  V30 31 1 4 28
M  V30 32 1 5 29
M  V30 33 1 6 30
M  V30 34 1 6 31
M  V30 35 1 7 32
M  V30 36 1 7 33
M  V30 37 1 8 34
M  V30 38 1 8 35
M  V30 39 1 9 36
M  V30 40 1 9 37
M  V30 41 1 10 38
M  V30 42 1 12 39
M  V30 43 1 13 40
M  V30 44 1 15 41
M  V30 45 1 17 42
M  V30 46 1 20 43
M  V30 47 1 21 44
M  V30 48 1 22 45
M  V30 END BOND
M  V30 END CTAB
M  END
>  <Dataset>  (635) 
ChEMBL_Kinases

>  <Ligand_Instance>  (635) 
nan

>  <PDB_ID>  (635) 
nan

>  <Standardized_SMILES>  (635) 
O=C(NCC1CCCCN1)c1ccc(O)c2[nH]c(-c3cccs3)nc12

>  <Name>  (635) 
nan

>  <Pocket>  (635) 
nan

>  <ATP_Site>  (635) 
nan

>  <Peripheral>  (635) 
nan

>  <Num_H_Atoms_ProtBoundConf>  (635) 
nan

>  <Num_Resolved_Atoms>  (635) 
nan

>  <Num_Not_Resolved_Atoms>  (635) 
nan

$$$$
CHEMBL3716977
     RDKit          3D

  0  0  0  0  0  0  0  0  0  0999 V3000
M  V30 BEGIN CTAB
M  V30 COUNTS 50 53 0 0 0
M  V30 BEGIN ATOM
M  V30 1 C -1.019352 -1.844310 5.103640 0
M  V30 2 O 0.260050 -2.407159 4.796747 0
M  V30 3 C 1.062831 -1.920390 3.805673 0
M  V30 4 O 0.566500 -0.955089 3.214609 0
M  V30 5 N 2.337041 -2.415603 3.437922 0
M  V30 6 C 3.205210 -1.952069 2.425856 0
M  V30 7 C 3.001451 -0.905095 1.563535 0
M  V30 8 C 3.868941 -0.476932 0.585722 0
M  V30 9 N 3.567186 0.620768 -0.259677 0
M  V30 10 C 2.335894 1.378035 -0.166576 0
M  V30 11 C 2.401193 2.457575 -1.251968 0
M  V30 12 C 2.186456 2.068054 1.152778 0
M  V30 13 C 1.182303 0.492857 -0.480664 0
M  V30 14 O 0.892543 -0.708781 -0.806695 0
M  V30 15 N -0.051751 1.194114 -0.400766 0
M  V30 16 C -1.290743 0.518983 -0.668704 0
M  V30 17 N -2.076238 -0.115083 0.161938 0
M  V30 18 C -3.175505 -0.658203 -0.348370 0
M  V30 19 C -4.081361 -1.357408 0.453029 0
M  V30 20 C -5.203457 -1.900983 -0.120769 0
M  V30 21 C -5.544205 -1.827066 -1.455824 0
M  V30 22 N -6.488402 -2.208886 -2.305931 0
M  V30 23 N -6.210482 -1.788447 -3.552251 0
M  V30 24 C -5.031267 -1.096023 -3.537499 0
M  V30 25 C -4.649039 -1.137810 -2.239428 0
M  V30 26 C -3.512546 -0.578331 -1.701660 0
M  V30 27 S -2.094031 0.383265 -2.309911 0
M  V30 28 C 5.052245 -1.176396 0.473244 0
M  V30 29 C 5.310196 -2.237825 1.313715 0
M  V30 30 C 4.399365 -2.615853 2.272361 0
M  V30 31 Cl 4.794532 -3.988967 3.319126 0
M  V30 32 H -1.372640 -1.323427 4.189422 0
M  V30 33 H -1.733125 -2.600533 5.470887 0
M  V30 34 H -0.826094 -1.040084 5.861024 0
M  V30 35 H 2.595603 -3.225013 4.037204 0
M  V30 36 H 2.081266 -0.353631 1.642944 0
M  V30 37 H 4.310769 0.862920 -0.981698 0
M  V30 38 H 1.557206 3.167104 -1.179505 0
M  V30 39 H 3.320230 3.061165 -1.000159 0
M  V30 40 H 2.570636 2.020380 -2.238299 0
M  V30 41 H 2.209781 3.166018 1.005336 0
M  V30 42 H 1.208267 1.873762 1.653758 0
M  V30 43 H 3.064632 1.821343 1.786554 0
M  V30 44 H -0.321207 2.175385 -0.174118 0
M  V30 45 H -3.995203 -1.529982 1.538052 0
M  V30 46 H -5.935176 -2.457908 0.488374 0
M  V30 47 H -7.320335 -2.765162 -1.987132 0
M  V30 48 H -4.533435 -0.627052 -4.389584 0
M  V30 49 H 5.796151 -0.908303 -0.271268 0
M  V30 50 H 6.228639 -2.799361 1.244269 0
M  V30 END ATOM
M  V30 BEGIN BOND
M  V30 1 1 1 2
M  V30 2 1 2 3
M  V30 3 2 3 4
M  V30 4 1 3 5
M  V30 5 1 5 6
M  V30 6 2 6 7
M  V30 7 1 7 8
M  V30 8 1 8 9
M  V30 9 1 9 10
M  V30 10 1 10 11
M  V30 11 1 10 12
M  V30 12 1 10 13
M  V30 13 2 13 14
M  V30 14 1 13 15
M  V30 15 1 15 16
M  V30 16 2 16 17
M  V30 17 1 17 18
M  V30 18 2 18 19
M  V30 19 1 19 20
M  V30 20 2 20 21
M  V30 21 1 21 22
M  V30 22 1 22 23
M  V30 23 2 23 24
M  V30 24 1 24 25
M  V30 25 2 25 26
M  V30 26 1 26 27
M  V30 27 2 8 28
M  V30 28 1 28 29
M  V30 29 2 29 30
M  V30 30 1 30 31
M  V30 31 1 30 6
M  V30 32 1 27 16
M  V30 33 1 26 18
M  V30 34 1 25 21
M  V30 35 1 1 32
M  V30 36 1 1 33
M  V30 37 1 1 34
M  V30 38 1 5 35
M  V30 39 1 7 36
M  V30 40 1 9 37
M  V30 41 1 11 38
M  V30 42 1 11 39
M  V30 43 1 11 40
M  V30 44 1 12 41
M  V30 45 1 12 42
M  V30 46 1 12 43
M  V30 47 1 15 44
M  V30 48 1 19 45
M  V30 49 1 20 46
M  V30 50 1 22 47
M  V30 51 1 24 48
M  V30 52 1 28 49
M  V30 53 1 29 50
M  V30 END BOND
M  V30 END CTAB
M  END
>  <Dataset>  (636) 
ChEMBL_Kinases

>  <Ligand_Instance>  (636) 
nan

>  <PDB_ID>  (636) 
nan

>  <Standardized_SMILES>  (636) 
COC(=O)Nc1cc(NC(C)(C)C(=O)Nc2nc3ccc4[nH]ncc4c3s2)ccc1Cl

>  <Name>  (636) 
nan

>  <Pocket>  (636) 
nan

>  <ATP_Site>  (636) 
nan

>  <Peripheral>  (636) 
nan

>  <Num_H_Atoms_ProtBoundConf>  (636) 
nan

>  <Num_Resolved_Atoms>  (636) 
nan

>  <Num_Not_Resolved_Atoms>  (636) 
nan

$$$$
CHEMBL568169
     RDKit          3D

  0  0  0  0  0  0  0  0  0  0999 V3000
M  V30 BEGIN CTAB
M  V30 COUNTS 45 48 0 0 0
M  V30 BEGIN ATOM
M  V30 1 C -1.312641 -5.527948 -1.605239 0
M  V30 2 O -1.200556 -4.175708 -1.156968 0
M  V30 3 C -0.588133 -3.263198 -2.017850 0
M  V30 4 C -0.097846 -3.622614 -3.263622 0
M  V30 5 C 0.475121 -2.613132 -3.989532 0
M  V30 6 C 0.581033 -1.309174 -3.553241 0
M  V30 7 C 0.081940 -0.982717 -2.305094 0
M  V30 8 C 0.173958 0.389013 -1.806312 0
M  V30 9 C 0.124064 1.490562 -2.640317 0
M  V30 10 C 0.214414 2.796716 -2.142711 0
M  V30 11 C 0.357720 2.922203 -0.756866 0
M  V30 12 N 0.439794 4.173595 -0.325503 0
M  V30 13 C 0.579872 4.407013 0.994439 0
M  V30 14 N 0.630090 3.349482 1.816802 0
M  V30 15 C 0.548828 2.072358 1.401139 0
M  V30 16 N 0.613854 1.049880 2.347254 0
M  V30 17 C 0.758841 1.282391 3.712559 0
M  V30 18 C 0.828864 0.227171 4.685869 0
M  V30 19 C 1.982242 -0.408912 5.131729 0
M  V30 20 C 1.895869 -1.413169 6.077874 0
M  V30 21 C 0.711089 -1.836246 6.622317 0
M  V30 22 C -0.419162 -1.218918 6.191039 0
M  V30 23 F -1.642567 -1.594316 6.696117 0
M  V30 24 C -0.375732 -0.218076 5.253501 0
M  V30 25 C 0.405055 1.809382 0.054125 0
M  V30 26 C 0.315654 0.526350 -0.440549 0
M  V30 27 C -0.505570 -1.963274 -1.532974 0
M  V30 28 H -1.865218 -5.562349 -2.562435 0
M  V30 29 H -0.292639 -5.968429 -1.786576 0
M  V30 30 H -1.823631 -6.045234 -0.767234 0
M  V30 31 H -0.191846 -4.651173 -3.584506 0
M  V30 32 H 0.866365 -2.867091 -4.966754 0
M  V30 33 H 1.051261 -0.535836 -4.176943 0
M  V30 34 H 0.010249 1.310875 -3.715879 0
M  V30 35 H 0.173844 3.636895 -2.805129 0
M  V30 36 H 0.654279 5.396402 1.431130 0
M  V30 37 H 0.568725 0.015486 2.209048 0
M  V30 38 H -0.058422 1.991514 4.025403 0
M  V30 39 H 1.682892 1.920352 3.848762 0
M  V30 40 H 2.906126 -0.089419 4.716645 0
M  V30 41 H 2.808199 -1.912902 6.427124 0
M  V30 42 H 0.616629 -2.617250 7.361623 0
M  V30 43 H -1.319616 0.242607 4.944457 0
M  V30 44 H 0.358186 -0.290673 0.230982 0
M  V30 45 H -0.892645 -1.695493 -0.557560 0
M  V30 END ATOM
M  V30 BEGIN BOND
M  V30 1 1 1 2
M  V30 2 1 2 3
M  V30 3 2 3 4
M  V30 4 1 4 5
M  V30 5 2 5 6
M  V30 6 1 6 7
M  V30 7 1 7 8
M  V30 8 2 8 9
M  V30 9 1 9 10
M  V30 10 2 10 11
M  V30 11 1 11 12
M  V30 12 2 12 13
M  V30 13 1 13 14
M  V30 14 2 14 15
M  V30 15 1 15 16
M  V30 16 1 16 17
M  V30 17 1 17 18
M  V30 18 2 18 19
M  V30 19 1 19 20
M  V30 20 2 20 21
M  V30 21 1 21 22
M  V30 22 1 22 23
M  V30 23 2 22 24
M  V30 24 1 15 25
M  V30 25 2 25 26
M  V30 26 2 7 27
M  V30 27 1 27 3
M  V30 28 1 26 8
M  V30 29 1 25 11
M  V30 30 1 24 18
M  V30 31 1 1 28
M  V30 32 1 1 29
M  V30 33 1 1 30
M  V30 34 1 4 31
M  V30 35 1 5 32
M  V30 36 1 6 33
M  V30 37 1 9 34
M  V30 38 1 10 35
M  V30 39 1 13 36
M  V30 40 1 16 37
M  V30 41 1 17 38
M  V30 42 1 17 39
M  V30 43 1 19 40
M  V30 44 1 20 41
M  V30 45 1 21 42
M  V30 46 1 24 43
M  V30 47 1 26 44
M  V30 48 1 27 45
M  V30 END BOND
M  V30 END CTAB
M  END
>  <Dataset>  (637) 
ChEMBL_Kinases

>  <Ligand_Instance>  (637) 
nan

>  <PDB_ID>  (637) 
nan

>  <Standardized_SMILES>  (637) 
COc1cccc(-c2ccc3ncnc(NCc4cccc(F)c4)c3c2)c1

>  <Name>  (637) 
nan

>  <Pocket>  (637) 
nan

>  <ATP_Site>  (637) 
nan

>  <Peripheral>  (637) 
nan

>  <Num_H_Atoms_ProtBoundConf>  (637) 
nan

>  <Num_Resolved_Atoms>  (637) 
nan

>  <Num_Not_Resolved_Atoms>  (637) 
nan

$$$$
CHEMBL568920
     RDKit          3D

  0  0  0  0  0  0  0  0  0  0999 V3000
M  V30 BEGIN CTAB
M  V30 COUNTS 64 67 0 0 0
M  V30 BEGIN ATOM
M  V30 1 C 3.828238 1.171560 4.066235 0
M  V30 2 N 4.762417 2.123377 3.476819 0
M  V30 3 C 6.117482 2.396547 3.885137 0
M  V30 4 O 6.807661 1.600362 4.578899 0
M  V30 5 N 6.434051 3.692389 3.340606 0
M  V30 6 C 5.285262 4.181389 2.620201 0
M  V30 7 O 5.346583 5.448166 2.454538 0
M  V30 8 C 4.470362 2.970600 2.355104 0
M  V30 9 C 4.933779 2.394778 1.032618 0
M  V30 10 C 3.711337 1.652249 0.580346 0
M  V30 11 C 3.665311 0.625047 -0.341081 0
M  V30 12 C 2.448934 0.044514 -0.647798 0
M  V30 13 C 1.343584 0.550357 0.008660 0
M  V30 14 N 0.106187 -0.088137 -0.346698 0
M  V30 15 C -0.076828 -1.191313 0.562891 0
M  V30 16 O 0.798199 -1.410653 1.454252 0
M  V30 17 C -1.147777 -2.193510 0.683858 0
M  V30 18 N -2.208810 -2.047787 -0.283495 0
M  V30 19 C -3.347889 -1.208458 0.092964 0
M  V30 20 C -4.418099 -2.018730 0.766367 0
M  V30 21 C -4.494195 -2.246462 2.136475 0
M  V30 22 C -5.522474 -3.007490 2.653609 0
M  V30 23 C -6.482279 -3.549046 1.824871 0
M  V30 24 C -6.437962 -3.342921 0.456638 0
M  V30 25 Cl -7.667686 -4.040817 -0.579012 0
M  V30 26 C -5.399129 -2.576249 -0.048925 0
M  V30 27 C -2.441097 -2.541767 -1.583835 0
M  V30 28 O -1.373310 -2.858833 -1.019892 0
M  V30 29 C -2.631644 -3.071348 -2.910680 0
M  V30 30 C -2.797201 -2.003950 -3.976551 0
M  V30 31 C -1.471239 -3.946853 -3.327169 0
M  V30 32 C -3.858967 -3.994662 -3.003244 0
M  V30 33 C 1.377744 1.576180 0.930978 0
M  V30 34 C 2.595300 2.157160 1.237969 0
M  V30 35 C 3.003976 3.258358 2.162176 0
M  V30 36 H 3.151470 1.680993 4.784419 0
M  V30 37 H 4.382715 0.405735 4.679153 0
M  V30 38 H 3.229704 0.661846 3.285013 0
M  V30 39 H 7.413196 4.047182 3.553709 0
M  V30 40 H 5.780472 1.727086 1.250655 0
M  V30 41 H 5.240928 3.176414 0.330249 0
M  V30 42 H 4.552407 0.254700 -0.835437 0
M  V30 43 H 2.390338 -0.756495 -1.362038 0
M  V30 44 H -0.700086 -0.046626 -1.014795 0
M  V30 45 H -0.700681 -3.197234 0.577176 0
M  V30 46 H -1.588278 -2.209265 1.719358 0
M  V30 47 H -3.000994 -0.502916 0.900459 0
M  V30 48 H -3.724500 -0.575407 -0.706017 0
M  V30 49 H -3.720944 -1.802592 2.743681 0
M  V30 50 H -5.535298 -3.154164 3.725354 0
M  V30 51 H -7.257966 -4.132379 2.286490 0
M  V30 52 H -5.421976 -2.454108 -1.111222 0
M  V30 53 H -3.548767 -1.254724 -3.733275 0
M  V30 54 H -3.126765 -2.498834 -4.913206 0
M  V30 55 H -1.795260 -1.579944 -4.215210 0
M  V30 56 H -0.927430 -4.245151 -2.397168 0
M  V30 57 H -0.735129 -3.391391 -3.939096 0
M  V30 58 H -1.771801 -4.884588 -3.825616 0
M  V30 59 H -3.722239 -4.683223 -3.868655 0
M  V30 60 H -4.759027 -3.391333 -3.238213 0
M  V30 61 H -3.918156 -4.602724 -2.100604 0
M  V30 62 H 0.483375 1.919673 1.402742 0
M  V30 63 H 2.494262 3.167051 3.142655 0
M  V30 64 H 2.787073 4.232990 1.719319 0
M  V30 END ATOM
M  V30 BEGIN BOND
M  V30 1 1 1 2
M  V30 2 1 2 3
M  V30 3 2 3 4
M  V30 4 1 3 5
M  V30 5 1 5 6
M  V30 6 2 6 7
M  V30 7 1 6 8
M  V30 8 1 8 9
M  V30 9 1 9 10
M  V30 10 2 10 11
M  V30 11 1 11 12
M  V30 12 2 12 13
M  V30 13 1 13 14
M  V30 14 1 14 15
M  V30 15 2 15 16
M  V30 16 1 15 17
M  V30 17 1 17 18
M  V30 18 1 18 19
M  V30 19 1 19 20
M  V30 20 2 20 21
M  V30 21 1 21 22
M  V30 22 2 22 23
M  V30 23 1 23 24
M  V30 24 1 24 25
M  V30 25 2 24 26
M  V30 26 1 18 27
M  V30 27 2 27 28
M  V30 28 1 27 29
M  V30 29 1 29 30
M  V30 30 1 29 31
M  V30 31 1 29 32
M  V30 32 1 13 33
M  V30 33 2 33 34
M  V30 34 1 34 35
M  V30 35 1 8 2
M  V30 36 1 34 10
M  V30 37 1 35 8
M  V30 38 1 26 20
M  V30 39 1 1 36
M  V30 40 1 1 37
M  V30 41 1 1 38
M  V30 42 1 5 39
M  V30 43 1 9 40
M  V30 44 1 9 41
M  V30 45 1 11 42
M  V30 46 1 12 43
M  V30 47 1 14 44
M  V30 48 1 17 45
M  V30 49 1 17 46
M  V30 50 1 19 47
M  V30 51 1 19 48
M  V30 52 1 21 49
M  V30 53 1 22 50
M  V30 54 1 23 51
M  V30 55 1 26 52
M  V30 56 1 30 53
M  V30 57 1 30 54
M  V30 58 1 30 55
M  V30 59 1 31 56
M  V30 60 1 31 57
M  V30 61 1 31 58
M  V30 62 1 32 59
M  V30 63 1 32 60
M  V30 64 1 32 61
M  V30 65 1 33 62
M  V30 66 1 35 63
M  V30 67 1 35 64
M  V30 END BOND
M  V30 END CTAB
M  END
>  <Dataset>  (638) 
ChEMBL_Kinases

>  <Ligand_Instance>  (638) 
nan

>  <PDB_ID>  (638) 
nan

>  <Standardized_SMILES>  (638) 
CN1C(=O)NC(=O)C12Cc1ccc(NC(=O)CN(Cc3cccc(Cl)c3)C(=O)C(C)(C)C)cc1C2

>  <Name>  (638) 
nan

>  <Pocket>  (638) 
nan

>  <ATP_Site>  (638) 
nan

>  <Peripheral>  (638) 
nan

>  <Num_H_Atoms_ProtBoundConf>  (638) 
nan

>  <Num_Resolved_Atoms>  (638) 
nan

>  <Num_Not_Resolved_Atoms>  (638) 
nan

$$$$
CHEMBL3716966
     RDKit          3D

  0  0  0  0  0  0  0  0  0  0999 V3000
M  V30 BEGIN CTAB
M  V30 COUNTS 39 42 0 0 0
M  V30 BEGIN ATOM
M  V30 1 O 0.945366 -1.435923 2.030261 0
M  V30 2 C 1.034351 -1.273011 0.807320 0
M  V30 3 N 0.855654 -2.249320 -0.230479 0
M  V30 4 C 0.500507 -3.576736 0.167266 0
M  V30 5 C 1.726543 -4.497432 0.206347 0
M  V30 6 C 2.162764 -4.381987 -1.206900 0
M  V30 7 N 0.921452 -4.480122 -1.979270 0
M  V30 8 C -0.174308 -4.217999 -1.019364 0
M  V30 9 C 1.362094 0.052332 0.246082 0
M  V30 10 C 2.196641 0.472938 -0.750238 0
M  V30 11 C 2.168667 1.807463 -1.059714 0
M  V30 12 C 1.370783 2.723732 -0.445816 0
M  V30 13 O 1.385071 4.049334 -0.802038 0
M  V30 14 C 0.515935 2.336116 0.559303 0
M  V30 15 N -0.348988 3.021069 1.341580 0
M  V30 16 C -0.891332 2.129393 2.176174 0
M  V30 17 C -1.881231 2.175251 3.281705 0
M  V30 18 C -2.312572 1.230490 4.109717 0
M  V30 19 C -3.237389 1.532702 5.041677 0
M  V30 20 C -3.696612 2.868334 5.076319 0
M  V30 21 S -2.706167 3.669400 3.669470 0
M  V30 22 N -0.358078 0.935512 1.887888 0
M  V30 23 C 0.529532 0.977075 0.895456 0
M  V30 24 H 0.990557 -2.023909 -1.266622 0
M  V30 25 H -0.064198 -3.634708 1.092575 0
M  V30 26 H 2.419418 -4.267679 1.000188 0
M  V30 27 H 1.322902 -5.510741 0.380030 0
M  V30 28 H 2.660647 -3.398698 -1.422878 0
M  V30 29 H 2.860255 -5.207759 -1.447620 0
M  V30 30 H 0.958379 -3.775113 -2.727055 0
M  V30 31 H -0.566589 -5.221764 -0.748630 0
M  V30 32 H -0.934910 -3.586987 -1.523408 0
M  V30 33 H 2.781794 -0.368691 -1.153976 0
M  V30 34 H 2.859841 2.052005 -1.852250 0
M  V30 35 H 1.871204 4.366244 -1.611348 0
M  V30 36 H -0.626756 4.003081 1.385135 0
M  V30 37 H -1.903977 0.209554 4.017283 0
M  V30 38 H -3.599053 0.754883 5.718935 0
M  V30 39 H -4.511231 3.100869 5.903006 0
M  V30 END ATOM
M  V30 BEGIN BOND
M  V30 1 2 1 2
M  V30 2 1 2 3
M  V30 3 1 3 4
M  V30 4 1 4 5
M  V30 5 1 5 6
M  V30 6 1 6 7
M  V30 7 1 7 8
M  V30 8 1 2 9
M  V30 9 2 9 10
M  V30 10 1 10 11
M  V30 11 2 11 12
M  V30 12 1 12 13
M  V30 13 1 12 14
M  V30 14 1 14 15
M  V30 15 1 15 16
M  V30 16 1 16 17
M  V30 17 2 17 18
M  V30 18 1 18 19
M  V30 19 2 19 20
M  V30 20 1 20 21
M  V30 21 2 16 22
M  V30 22 1 22 23
M  V30 23 1 8 4
M  V30 24 1 23 9
M  V30 25 2 23 14
M  V30 26 1 21 17
M  V30 27 1 3 24
M  V30 28 1 4 25
M  V30 29 1 5 26
M  V30 30 1 5 27
M  V30 31 1 6 28
M  V30 32 1 6 29
M  V30 33 1 7 30
M  V30 34 1 8 31
M  V30 35 1 8 32
M  V30 36 1 10 33
M  V30 37 1 11 34
M  V30 38 1 13 35
M  V30 39 1 15 36
M  V30 40 1 18 37
M  V30 41 1 19 38
M  V30 42 1 20 39
M  V30 END BOND
M  V30 END CTAB
M  END
>  <Dataset>  (639) 
ChEMBL_Kinases

>  <Ligand_Instance>  (639) 
nan

>  <PDB_ID>  (639) 
nan

>  <Standardized_SMILES>  (639) 
O=C(NC1CCNC1)c1ccc(O)c2[nH]c(-c3cccs3)nc12

>  <Name>  (639) 
nan

>  <Pocket>  (639) 
nan

>  <ATP_Site>  (639) 
nan

>  <Peripheral>  (639) 
nan

>  <Num_H_Atoms_ProtBoundConf>  (639) 
nan

>  <Num_Resolved_Atoms>  (639) 
nan

>  <Num_Not_Resolved_Atoms>  (639) 
nan

$$$$
CHEMBL3716964
     RDKit          3D

  0  0  0  0  0  0  0  0  0  0999 V3000
M  V30 BEGIN CTAB
M  V30 COUNTS 48 51 0 0 0
M  V30 BEGIN ATOM
M  V30 1 O 3.903362 -1.662234 0.227513 0
M  V30 2 C 2.785973 -1.093717 0.331392 0
M  V30 3 N 1.709561 -2.020608 0.056756 0
M  V30 4 C 1.929658 -3.425605 -0.299833 0 CFG=1
M  V30 5 C 1.599537 -4.299499 0.933918 0
M  V30 6 C 0.303237 -3.757135 1.538730 0
M  V30 7 C -0.750132 -3.949099 0.437646 0
M  V30 8 N -0.369410 -3.164751 -0.692049 0
M  V30 9 C 0.835038 -3.786156 -1.281200 0
M  V30 10 C 2.627830 0.304184 0.682838 0
M  V30 11 C 3.791460 0.984590 1.000091 0
M  V30 12 C 3.699771 2.348943 1.319560 0
M  V30 13 C 2.510670 3.035066 1.331900 0
M  V30 14 O 2.494724 4.395789 1.662493 0
M  V30 15 C 1.357425 2.357632 1.017284 0
M  V30 16 N 0.067721 2.715804 0.939578 0
M  V30 17 C -0.683453 1.635982 0.583411 0
M  V30 18 C -2.162188 1.568076 0.362006 0
M  V30 19 C -2.545056 0.121721 0.283920 0
M  V30 20 C -4.016679 0.158300 0.708168 0
M  V30 21 C -3.917393 1.004775 1.960722 0
M  V30 22 C -2.932294 2.068012 1.567870 0
M  V30 23 N 0.204177 0.635272 0.453162 0
M  V30 24 C 1.450558 1.022467 0.705482 0
M  V30 25 H 0.736064 -1.649298 0.114879 0
M  V30 26 H 2.930794 -3.675545 -0.577479 0
M  V30 27 H 2.426332 -4.399084 1.618674 0
M  V30 28 H 1.348705 -5.302928 0.521361 0
M  V30 29 H 0.038107 -4.399819 2.386492 0
M  V30 30 H 0.388958 -2.703953 1.860270 0
M  V30 31 H -1.767682 -3.740548 0.822206 0
M  V30 32 H -0.747941 -5.012509 0.158898 0
M  V30 33 H -1.098431 -3.021957 -1.398373 0
M  V30 34 H 0.616131 -4.889570 -1.279865 0
M  V30 35 H 1.003208 -3.441638 -2.305517 0
M  V30 36 H 4.766270 0.520946 1.016652 0
M  V30 37 H 4.650321 2.841506 1.564277 0
M  V30 38 H 2.124781 4.667436 2.552912 0
M  V30 39 H -0.336202 3.672817 1.123844 0
M  V30 40 H -2.472810 2.145488 -0.522865 0
M  V30 41 H -2.020943 -0.371748 1.138551 0
M  V30 42 H -2.382901 -0.360122 -0.680913 0
M  V30 43 H -4.380555 -0.880940 0.934935 0
M  V30 44 H -4.659271 0.661463 -0.030296 0
M  V30 45 H -4.934084 1.387907 2.195539 0
M  V30 46 H -3.514102 0.348873 2.764841 0
M  V30 47 H -2.308735 2.288403 2.437646 0
M  V30 48 H -3.556086 2.949797 1.246697 0
M  V30 END ATOM
M  V30 BEGIN BOND
M  V30 1 2 1 2
M  V30 2 1 2 3
M  V30 3 1 3 4
M  V30 4 1 4 5
M  V30 5 1 5 6
M  V30 6 1 6 7
M  V30 7 1 7 8
M  V30 8 1 8 9
M  V30 9 1 2 10
M  V30 10 2 10 11
M  V30 11 1 11 12
M  V30 12 2 12 13
M  V30 13 1 13 14
M  V30 14 1 13 15
M  V30 15 1 15 16
M  V30 16 1 16 17
M  V30 17 1 17 18
M  V30 18 1 18 19
M  V30 19 1 19 20
M  V30 20 1 20 21
M  V30 21 1 21 22
M  V30 22 2 17 23
M  V30 23 1 23 24
M  V30 24 1 9 4
M  V30 25 1 24 10
M  V30 26 2 24 15
M  V30 27 1 22 18
M  V30 28 1 3 25
M  V30 29 1 4 26 CFG=3
M  V30 30 1 5 27
M  V30 31 1 5 28
M  V30 32 1 6 29
M  V30 33 1 6 30
M  V30 34 1 7 31
M  V30 35 1 7 32
M  V30 36 1 8 33
M  V30 37 1 9 34
M  V30 38 1 9 35
M  V30 39 1 11 36
M  V30 40 1 12 37
M  V30 41 1 14 38
M  V30 42 1 16 39
M  V30 43 1 18 40
M  V30 44 1 19 41
M  V30 45 1 19 42
M  V30 46 1 20 43
M  V30 47 1 20 44
M  V30 48 1 21 45
M  V30 49 1 21 46
M  V30 50 1 22 47
M  V30 51 1 22 48
M  V30 END BOND
M  V30 END CTAB
M  END
>  <Dataset>  (640) 
ChEMBL_Kinases

>  <Ligand_Instance>  (640) 
nan

>  <PDB_ID>  (640) 
nan

>  <Standardized_SMILES>  (640) 
O=C(N[C@H]1CCCNC1)c1ccc(O)c2[nH]c(C3CCCC3)nc12

>  <Name>  (640) 
nan

>  <Pocket>  (640) 
nan

>  <ATP_Site>  (640) 
nan

>  <Peripheral>  (640) 
nan

>  <Num_H_Atoms_ProtBoundConf>  (640) 
nan

>  <Num_Resolved_Atoms>  (640) 
nan

>  <Num_Not_Resolved_Atoms>  (640) 
nan

$$$$
CHEMBL3716959
     RDKit          3D

  0  0  0  0  0  0  0  0  0  0999 V3000
M  V30 BEGIN CTAB
M  V30 COUNTS 46 49 0 0 0
M  V30 BEGIN ATOM
M  V30 1 C 1.274758 -4.570837 2.822085 0
M  V30 2 O 1.823194 -4.030621 1.761699 0
M  V30 3 C 2.352483 -3.483249 0.743976 0
M  V30 4 C 2.764632 -4.281226 -0.313966 0
M  V30 5 C 3.354660 -3.768410 -1.469592 0
M  V30 6 C 3.506773 -2.415862 -1.502907 0
M  V30 7 C 3.136616 -1.509684 -0.511600 0
M  V30 8 N 3.321880 -0.116329 -0.613330 0
M  V30 9 C 2.930559 0.798991 0.442511 0
M  V30 10 C 3.654133 0.520133 1.681752 0
M  V30 11 C 3.303123 2.203393 -0.050429 0
M  V30 12 C 1.468188 0.780317 0.494068 0
M  V30 13 O 0.783214 0.048749 -0.302431 0
M  V30 14 N 0.677924 1.534061 1.389205 0
M  V30 15 C -0.803982 1.357285 1.262427 0
M  V30 16 N -1.518323 0.633085 1.759136 0
M  V30 17 C -2.823417 0.483271 1.642371 0
M  V30 18 C -3.705661 -0.392348 2.239459 0
M  V30 19 C -5.048157 -0.358933 1.955641 0
M  V30 20 C -5.640681 0.525027 1.071527 0
M  V30 21 N -6.830885 0.863954 0.549865 0
M  V30 22 N -6.705072 1.869236 -0.303925 0
M  V30 23 C -5.417526 2.258224 -0.399294 0
M  V30 24 C -4.775073 1.411848 0.461492 0
M  V30 25 C -3.418098 1.343425 0.778635 0
M  V30 26 S -2.015383 2.340479 0.174287 0
M  V30 27 C 2.558051 -2.118312 0.598546 0
M  V30 28 H 1.940467 -4.676679 3.740910 0
M  V30 29 H 0.402989 -3.970862 3.206064 0
M  V30 30 H 0.805268 -5.599297 2.643160 0
M  V30 31 H 2.636741 -5.366109 -0.274643 0
M  V30 32 H 3.672394 -4.394933 -2.287617 0
M  V30 33 H 3.962278 -2.008736 -2.392580 0
M  V30 34 H 3.767531 0.207849 -1.517916 0
M  V30 35 H 4.386048 1.346056 1.930632 0
M  V30 36 H 4.324294 -0.373955 1.580979 0
M  V30 37 H 3.088256 0.372470 2.609445 0
M  V30 38 H 3.440856 2.850581 0.851592 0
M  V30 39 H 4.202487 2.195797 -0.681643 0
M  V30 40 H 2.478508 2.656387 -0.626339 0
M  V30 41 H 1.164449 2.153802 2.068645 0
M  V30 42 H -3.418270 -1.149682 2.955144 0
M  V30 43 H -5.758519 -1.050361 2.424549 0
M  V30 44 H -7.698117 0.332613 0.849264 0
M  V30 45 H -4.947380 3.026375 -0.980730 0
M  V30 46 H 2.230086 -1.523449 1.427778 0
M  V30 END ATOM
M  V30 BEGIN BOND
M  V30 1 1 1 2
M  V30 2 1 2 3
M  V30 3 2 3 4
M  V30 4 1 4 5
M  V30 5 2 5 6
M  V30 6 1 6 7
M  V30 7 1 7 8
M  V30 8 1 8 9
M  V30 9 1 9 10
M  V30 10 1 9 11
M  V30 11 1 9 12
M  V30 12 2 12 13
M  V30 13 1 12 14
M  V30 14 1 14 15
M  V30 15 2 15 16
M  V30 16 1 16 17
M  V30 17 2 17 18
M  V30 18 1 18 19
M  V30 19 2 19 20
M  V30 20 1 20 21
M  V30 21 1 21 22
M  V30 22 2 22 23
M  V30 23 1 23 24
M  V30 24 2 24 25
M  V30 25 1 25 26
M  V30 26 2 7 27
M  V30 27 1 27 3
M  V30 28 1 26 15
M  V30 29 1 25 17
M  V30 30 1 24 20
M  V30 31 1 1 28
M  V30 32 1 1 29
M  V30 33 1 1 30
M  V30 34 1 4 31
M  V30 35 1 5 32
M  V30 36 1 6 33
M  V30 37 1 8 34
M  V30 38 1 10 35
M  V30 39 1 10 36
M  V30 40 1 10 37
M  V30 41 1 11 38
M  V30 42 1 11 39
M  V30 43 1 11 40
M  V30 44 1 14 41
M  V30 45 1 18 42
M  V30 46 1 19 43
M  V30 47 1 21 44
M  V30 48 1 23 45
M  V30 49 1 27 46
M  V30 END BOND
M  V30 END CTAB
M  END
>  <Dataset>  (641) 
ChEMBL_Kinases

>  <Ligand_Instance>  (641) 
nan

>  <PDB_ID>  (641) 
nan

>  <Standardized_SMILES>  (641) 
COc1cccc(NC(C)(C)C(=O)Nc2nc3ccc4[nH]ncc4c3s2)c1

>  <Name>  (641) 
nan

>  <Pocket>  (641) 
nan

>  <ATP_Site>  (641) 
nan

>  <Peripheral>  (641) 
nan

>  <Num_H_Atoms_ProtBoundConf>  (641) 
nan

>  <Num_Resolved_Atoms>  (641) 
nan

>  <Num_Not_Resolved_Atoms>  (641) 
nan

$$$$
CHEMBL3716951
     RDKit          3D

  0  0  0  0  0  0  0  0  0  0999 V3000
M  V30 BEGIN CTAB
M  V30 COUNTS 51 54 0 0 0
M  V30 BEGIN ATOM
M  V30 1 C 1.831840 -4.714706 1.536149 0
M  V30 2 C 2.934818 -3.783183 1.078697 0
M  V30 3 O 2.622082 -2.489288 1.585794 0
M  V30 4 C 2.493405 -2.211979 2.920808 0
M  V30 5 O 2.644366 -3.092361 3.805661 0
M  V30 6 C 2.171187 -0.855533 3.340222 0
M  V30 7 C 1.990077 0.165514 2.433037 0
M  V30 8 C 1.685014 1.469861 2.743768 0
M  V30 9 N 1.506649 2.504691 1.790655 0
M  V30 10 C 1.627665 2.308520 0.362119 0
M  V30 11 C 2.987300 1.787672 -0.044080 0
M  V30 12 C 1.502438 3.689352 -0.282177 0
M  V30 13 C 0.555331 1.445869 -0.191864 0
M  V30 14 O 0.567820 1.159194 -1.427408 0
M  V30 15 N -0.495583 0.913689 0.571666 0
M  V30 16 C -1.543846 0.085123 0.098098 0
M  V30 17 N -2.496135 -0.488335 0.411782 0
M  V30 18 C -3.310110 -1.219079 -0.318677 0
M  V30 19 C -4.460024 -1.902935 0.095828 0
M  V30 20 C -5.172037 -2.610337 -0.826210 0
M  V30 21 C -4.886527 -2.739871 -2.171569 0
M  V30 22 N -5.377572 -3.336358 -3.258332 0
M  V30 23 N -4.590335 -3.050862 -4.300345 0
M  V30 24 C -3.564798 -2.254602 -3.896423 0
M  V30 25 C -3.738898 -2.050249 -2.555673 0
M  V30 26 C -3.003666 -1.327930 -1.637399 0
M  V30 27 S -1.538480 -0.356560 -1.750398 0
M  V30 28 C 1.568773 1.686731 4.097798 0
M  V30 29 C 1.736037 0.715141 5.060779 0
M  V30 30 C 2.039823 -0.567583 4.682543 0
M  V30 31 F 2.202325 -1.514113 5.630917 0
M  V30 32 H 1.128501 -4.874998 0.697543 0
M  V30 33 H 1.218113 -4.249100 2.341063 0
M  V30 34 H 2.244431 -5.690588 1.875043 0
M  V30 35 H 2.936093 -3.730184 -0.026744 0
M  V30 36 H 3.889299 -4.159159 1.484051 0
M  V30 37 H 2.103531 -0.126278 1.401454 0
M  V30 38 H 1.272302 3.457866 2.198673 0
M  V30 39 H 2.837203 0.860167 -0.644979 0
M  V30 40 H 3.507118 2.487492 -0.732320 0
M  V30 41 H 3.661484 1.586015 0.814931 0
M  V30 42 H 1.453440 3.613513 -1.383600 0
M  V30 43 H 2.426661 4.266398 -0.053160 0
M  V30 44 H 0.636772 4.227245 0.115660 0
M  V30 45 H -0.587239 1.097113 1.569806 0
M  V30 46 H -4.842148 -1.916544 1.120346 0
M  V30 47 H -6.079587 -3.153763 -0.514452 0
M  V30 48 H -6.244073 -3.919677 -3.228297 0
M  V30 49 H -2.771160 -1.859180 -4.500266 0
M  V30 50 H 1.331510 2.666803 4.489266 0
M  V30 51 H 1.636512 0.924661 6.114879 0
M  V30 END ATOM
M  V30 BEGIN BOND
M  V30 1 1 1 2
M  V30 2 1 2 3
M  V30 3 1 3 4
M  V30 4 2 4 5
M  V30 5 1 4 6
M  V30 6 2 6 7
M  V30 7 1 7 8
M  V30 8 1 8 9
M  V30 9 1 9 10
M  V30 10 1 10 11
M  V30 11 1 10 12
M  V30 12 1 10 13
M  V30 13 2 13 14
M  V30 14 1 13 15
M  V30 15 1 15 16
M  V30 16 2 16 17
M  V30 17 1 17 18
M  V30 18 2 18 19
M  V30 19 1 19 20
M  V30 20 2 20 21
M  V30 21 1 21 22
M  V30 22 1 22 23
M  V30 23 2 23 24
M  V30 24 1 24 25
M  V30 25 2 25 26
M  V30 26 1 26 27
M  V30 27 2 8 28
M  V30 28 1 28 29
M  V30 29 2 29 30
M  V30 30 1 30 31
M  V30 31 1 30 6
M  V30 32 1 27 16
M  V30 33 1 26 18
M  V30 34 1 25 21
M  V30 35 1 1 32
M  V30 36 1 1 33
M  V30 37 1 1 34
M  V30 38 1 2 35
M  V30 39 1 2 36
M  V30 40 1 7 37
M  V30 41 1 9 38
M  V30 42 1 11 39
M  V30 43 1 11 40
M  V30 44 1 11 41
M  V30 45 1 12 42
M  V30 46 1 12 43
M  V30 47 1 12 44
M  V30 48 1 15 45
M  V30 49 1 19 46
M  V30 50 1 20 47
M  V30 51 1 22 48
M  V30 52 1 24 49
M  V30 53 1 28 50
M  V30 54 1 29 51
M  V30 END BOND
M  V30 END CTAB
M  END
>  <Dataset>  (642) 
ChEMBL_Kinases

>  <Ligand_Instance>  (642) 
nan

>  <PDB_ID>  (642) 
nan

>  <Standardized_SMILES>  (642) 
CCOC(=O)c1cc(NC(C)(C)C(=O)Nc2nc3ccc4[nH]ncc4c3s2)ccc1F

>  <Name>  (642) 
nan

>  <Pocket>  (642) 
nan

>  <ATP_Site>  (642) 
nan

>  <Peripheral>  (642) 
nan

>  <Num_H_Atoms_ProtBoundConf>  (642) 
nan

>  <Num_Resolved_Atoms>  (642) 
nan

>  <Num_Not_Resolved_Atoms>  (642) 
nan

$$$$
CHEMBL3716936
     RDKit          3D

  0  0  0  0  0  0  0  0  0  0999 V3000
M  V30 BEGIN CTAB
M  V30 COUNTS 41 44 0 0 0
M  V30 BEGIN ATOM
M  V30 1 O 2.020737 -3.365169 2.845751 0
M  V30 2 C 1.769158 -2.128629 2.744113 0
M  V30 3 N 1.724768 -1.497555 1.467753 0
M  V30 4 C 1.979804 -2.356533 0.299938 0
M  V30 5 C 1.867283 -1.456033 -0.917226 0
M  V30 6 C 2.094652 -2.188777 -2.218675 0
M  V30 7 C 1.943643 -1.160364 -3.308840 0
M  V30 8 N 0.734853 -0.908588 -3.889623 0
M  V30 9 C 0.859605 0.042786 -4.827061 0
M  V30 10 C 2.193792 0.381946 -4.815760 0
M  V30 11 N 2.861173 -0.352015 -3.888015 0
M  V30 12 C 1.498484 -1.210202 3.869903 0
M  V30 13 C 2.293031 -0.985012 4.974401 0
M  V30 14 C 1.866947 -0.073317 5.937780 0
M  V30 15 N 0.709307 0.607878 5.849251 0
M  V30 16 C -0.095817 0.415954 4.784628 0
M  V30 17 N -1.295486 0.920926 4.387499 0
M  V30 18 C -1.641037 0.364250 3.215446 0
M  V30 19 C -2.866839 0.679530 2.504422 0
M  V30 20 C -3.893020 1.511234 2.775622 0
M  V30 21 C -4.920213 1.601285 1.906785 0
M  V30 22 C -4.852293 0.800484 0.745481 0
M  V30 23 S -3.274721 -0.073499 0.950031 0
M  V30 24 N -0.670448 -0.490681 2.863946 0
M  V30 25 C 0.298007 -0.487089 3.803522 0
M  V30 26 H 1.518846 -0.458243 1.362180 0
M  V30 27 H 1.319978 -3.219162 0.249037 0
M  V30 28 H 3.031782 -2.733669 0.289848 0
M  V30 29 H 2.570738 -0.594745 -0.839046 0
M  V30 30 H 0.852542 -0.983351 -0.988567 0
M  V30 31 H 1.328127 -2.970718 -2.343640 0
M  V30 32 H 3.120354 -2.622222 -2.274843 0
M  V30 33 H 0.250208 0.580361 -5.538076 0
M  V30 34 H 2.790344 1.091294 -5.380083 0
M  V30 35 H 3.849301 -0.414586 -3.558750 0
M  V30 36 H 3.202359 -1.549938 4.999272 0
M  V30 37 H 2.545778 0.048908 6.773360 0
M  V30 38 H -3.809811 2.062967 3.703031 0
M  V30 39 H -5.777166 2.273359 2.098884 0
M  V30 40 H -5.730608 0.857910 -0.026821 0
M  V30 41 H -0.715308 -1.057023 1.968222 0
M  V30 END ATOM
M  V30 BEGIN BOND
M  V30 1 2 1 2
M  V30 2 1 2 3
M  V30 3 1 3 4
M  V30 4 1 4 5
M  V30 5 1 5 6
M  V30 6 1 6 7
M  V30 7 2 7 8
M  V30 8 1 8 9
M  V30 9 2 9 10
M  V30 10 1 10 11
M  V30 11 1 2 12
M  V30 12 2 12 13
M  V30 13 1 13 14
M  V30 14 2 14 15
M  V30 15 1 15 16
M  V30 16 1 16 17
M  V30 17 2 17 18
M  V30 18 1 18 19
M  V30 19 2 19 20
M  V30 20 1 20 21
M  V30 21 2 21 22
M  V30 22 1 22 23
M  V30 23 1 18 24
M  V30 24 1 24 25
M  V30 25 1 11 7
M  V30 26 1 25 12
M  V30 27 2 25 16
M  V30 28 1 23 19
M  V30 29 1 3 26
M  V30 30 1 4 27
M  V30 31 1 4 28
M  V30 32 1 5 29
M  V30 33 1 5 30
M  V30 34 1 6 31
M  V30 35 1 6 32
M  V30 36 1 9 33
M  V30 37 1 10 34
M  V30 38 1 11 35
M  V30 39 1 13 36
M  V30 40 1 14 37
M  V30 41 1 20 38
M  V30 42 1 21 39
M  V30 43 1 22 40
M  V30 44 1 24 41
M  V30 END BOND
M  V30 END CTAB
M  END
>  <Dataset>  (643) 
ChEMBL_Kinases

>  <Ligand_Instance>  (643) 
nan

>  <PDB_ID>  (643) 
nan

>  <Standardized_SMILES>  (643) 
O=C(NCCCc1ncc[nH]1)c1ccnc2nc(-c3cccs3)[nH]c12

>  <Name>  (643) 
nan

>  <Pocket>  (643) 
nan

>  <ATP_Site>  (643) 
nan

>  <Peripheral>  (643) 
nan

>  <Num_H_Atoms_ProtBoundConf>  (643) 
nan

>  <Num_Resolved_Atoms>  (643) 
nan

>  <Num_Not_Resolved_Atoms>  (643) 
nan

$$$$
CHEMBL371693
     RDKit          3D

  0  0  0  0  0  0  0  0  0  0999 V3000
M  V30 BEGIN CTAB
M  V30 COUNTS 31 32 0 0 0
M  V30 BEGIN ATOM
M  V30 1 C -1.750527 -3.979194 3.157763 0
M  V30 2 N -1.201966 -3.019698 2.211811 0
M  V30 3 C 0.087566 -3.102845 1.840871 0
M  V30 4 C 0.475303 -2.147803 0.952968 0
M  V30 5 C 1.860967 -2.215220 0.519378 0
M  V30 6 N 2.806417 -3.177626 0.965180 0
M  V30 7 O 2.908366 -1.932371 -0.078511 0
M  V30 8 C -0.303733 -1.144451 0.422536 0
M  V30 9 N 0.107031 -0.142530 -0.493999 0
M  V30 10 C 0.558823 1.206278 -0.480375 0
M  V30 11 C -0.313672 1.978237 -1.223277 0
M  V30 12 C -0.121918 3.354180 -1.384437 0
M  V30 13 C 1.000335 3.891768 -0.750158 0
M  V30 14 Br 1.389656 5.757304 -0.882649 0
M  V30 15 C 1.873979 3.147653 -0.012297 0
M  V30 16 C 1.647108 1.798941 0.119849 0
M  V30 17 F 2.405878 0.920049 0.813454 0
M  V30 18 C -1.623696 -1.089427 0.825751 0
M  V30 19 F -2.471484 -0.142348 0.362593 0
M  V30 20 C -2.013141 -2.062196 1.728045 0
M  V30 21 O -3.211528 -2.038387 2.114860 0
M  V30 22 H -2.564986 -4.591301 2.745968 0
M  V30 23 H -2.119117 -3.460691 4.083004 0
M  V30 24 H -0.961659 -4.664969 3.514661 0
M  V30 25 H 0.739890 -3.855392 2.216067 0
M  V30 26 H 2.603914 -4.203482 1.137423 0
M  V30 27 H 2.565236 -4.199042 1.126777 0
M  V30 28 H 0.013208 -0.644154 -1.413369 0
M  V30 29 H -1.219865 1.670819 -1.762047 0
M  V30 30 H -0.758542 4.017697 -1.947531 0
M  V30 31 H 2.746795 3.545888 0.485157 0
M  V30 END ATOM
M  V30 BEGIN BOND
M  V30 1 1 1 2
M  V30 2 1 2 3
M  V30 3 2 3 4
M  V30 4 1 4 5
M  V30 5 1 5 6
M  V30 6 2 5 7
M  V30 7 1 4 8
M  V30 8 1 8 9
M  V30 9 1 9 10
M  V30 10 2 10 11
M  V30 11 1 11 12
M  V30 12 2 12 13
M  V30 13 1 13 14
M  V30 14 1 13 15
M  V30 15 2 15 16
M  V30 16 1 16 17
M  V30 17 2 8 18
M  V30 18 1 18 19
M  V30 19 1 18 20
M  V30 20 2 20 21
M  V30 21 1 20 2
M  V30 22 1 16 10
M  V30 23 1 1 22
M  V30 24 1 1 23
M  V30 25 1 1 24
M  V30 26 1 3 25
M  V30 27 1 6 26
M  V30 28 1 6 27
M  V30 29 1 9 28
M  V30 30 1 11 29
M  V30 31 1 12 30
M  V30 32 1 15 31
M  V30 END BOND
M  V30 END CTAB
M  END
>  <Dataset>  (644) 
ChEMBL_Kinases

>  <Ligand_Instance>  (644) 
nan

>  <PDB_ID>  (644) 
nan

>  <Standardized_SMILES>  (644) 
Cn1cc(C(N)=O)c(Nc2ccc(Br)cc2F)c(F)c1=O

>  <Name>  (644) 
nan

>  <Pocket>  (644) 
nan

>  <ATP_Site>  (644) 
nan

>  <Peripheral>  (644) 
nan

>  <Num_H_Atoms_ProtBoundConf>  (644) 
nan

>  <Num_Resolved_Atoms>  (644) 
nan

>  <Num_Not_Resolved_Atoms>  (644) 
nan

$$$$
CHEMBL3716916
     RDKit          3D

  0  0  0  0  0  0  0  0  0  0999 V3000
M  V30 BEGIN CTAB
M  V30 COUNTS 43 46 0 0 0
M  V30 BEGIN ATOM
M  V30 1 C 1.409197 -1.270970 5.865378 0
M  V30 2 C 0.672666 -0.921506 4.607854 0
M  V30 3 N 1.208502 -1.163571 3.376255 0
M  V30 4 C 0.524795 -0.839567 2.248818 0
M  V30 5 N 1.252010 -1.217843 1.098415 0
M  V30 6 C 0.996073 -2.290011 0.201439 0
M  V30 7 C 1.978536 -2.270359 -0.929171 0
M  V30 8 C 2.020394 -0.940093 -1.629911 0
M  V30 9 C 3.038966 -0.941473 -2.746211 0
M  V30 10 O 4.326155 -1.204525 -2.267426 0
M  V30 11 C 2.272747 0.152654 -0.632433 0
M  V30 12 C 2.426081 -0.443963 0.737999 0
M  V30 13 C -0.712950 -0.263655 2.380776 0
M  V30 14 C -1.268119 -0.013023 3.609668 0
M  V30 15 N -0.542348 -0.357315 4.704630 0
M  V30 16 N -2.467441 0.552983 3.379334 0
M  V30 17 C -2.660139 0.656617 2.051446 0
M  V30 18 C -3.712221 1.165490 1.320127 0
M  V30 19 C -3.669971 1.166883 -0.050686 0
M  V30 20 C -2.544835 0.645245 -0.700372 0
M  V30 21 O -2.590525 0.689054 -2.092508 0
M  V30 22 C -1.507212 0.142589 0.054027 0
M  V30 23 C -1.561230 0.146008 1.412664 0
M  V30 24 H 2.390846 -1.698338 5.563216 0
M  V30 25 H 1.588942 -0.391457 6.496125 0
M  V30 26 H 0.766912 -2.011827 6.382058 0
M  V30 27 H 1.238712 -3.233558 0.785944 0
M  V30 28 H -0.041147 -2.442467 -0.113285 0
M  V30 29 H 3.018509 -2.516072 -0.613119 0
M  V30 30 H 1.737734 -3.083159 -1.670059 0
M  V30 31 H 1.042535 -0.706279 -2.125035 0
M  V30 32 H 2.986413 0.070736 -3.218208 0
M  V30 33 H 2.711846 -1.687009 -3.503388 0
M  V30 34 H 4.715066 -0.352204 -1.998597 0
M  V30 35 H 1.416986 0.882303 -0.589354 0
M  V30 36 H 3.183957 0.756520 -0.912177 0
M  V30 37 H 3.333950 -1.084827 0.743108 0
M  V30 38 H 2.622220 0.342216 1.511669 0
M  V30 39 H -3.120834 0.852606 4.142396 0
M  V30 40 H -4.582453 1.569233 1.816265 0
M  V30 41 H -4.498727 1.567372 -0.616410 0
M  V30 42 H -2.706642 -0.183804 -2.610743 0
M  V30 43 H -0.718990 -0.209016 -0.581730 0
M  V30 END ATOM
M  V30 BEGIN BOND
M  V30 1 1 1 2
M  V30 2 2 2 3
M  V30 3 1 3 4
M  V30 4 1 4 5
M  V30 5 1 5 6
M  V30 6 1 6 7
M  V30 7 1 7 8
M  V30 8 1 8 9
M  V30 9 1 9 10
M  V30 10 1 8 11
M  V30 11 1 11 12
M  V30 12 2 4 13
M  V30 13 1 13 14
M  V30 14 2 14 15
M  V30 15 1 14 16
M  V30 16 1 16 17
M  V30 17 2 17 18
M  V30 18 1 18 19
M  V30 19 2 19 20
M  V30 20 1 20 21
M  V30 21 1 20 22
M  V30 22 2 22 23
M  V30 23 1 15 2
M  V30 24 1 23 17
M  V30 25 1 12 5
M  V30 26 1 23 13
M  V30 27 1 1 24
M  V30 28 1 1 25
M  V30 29 1 1 26
M  V30 30 1 6 27
M  V30 31 1 6 28
M  V30 32 1 7 29
M  V30 33 1 7 30
M  V30 34 1 8 31
M  V30 35 1 9 32
M  V30 36 1 9 33
M  V30 37 1 10 34
M  V30 38 1 11 35
M  V30 39 1 11 36
M  V30 40 1 12 37
M  V30 41 1 12 38
M  V30 42 1 16 39
M  V30 43 1 18 40
M  V30 44 1 19 41
M  V30 45 1 21 42
M  V30 46 1 22 43
M  V30 END BOND
M  V30 END CTAB
M  END
>  <Dataset>  (645) 
ChEMBL_Kinases

>  <Ligand_Instance>  (645) 
nan

>  <PDB_ID>  (645) 
nan

>  <Standardized_SMILES>  (645) 
Cc1nc(N2CCC(CO)CC2)c2c(n1)[nH]c1ccc(O)cc12

>  <Name>  (645) 
nan

>  <Pocket>  (645) 
nan

>  <ATP_Site>  (645) 
nan

>  <Peripheral>  (645) 
nan

>  <Num_H_Atoms_ProtBoundConf>  (645) 
nan

>  <Num_Resolved_Atoms>  (645) 
nan

>  <Num_Not_Resolved_Atoms>  (645) 
nan

$$$$
CHEMBL3716900
     RDKit          3D

  0  0  0  0  0  0  0  0  0  0999 V3000
M  V30 BEGIN CTAB
M  V30 COUNTS 32 34 0 0 0
M  V30 BEGIN ATOM
M  V30 1 N -0.970176 -0.249566 3.686686 0
M  V30 2 C -1.702070 -0.936541 2.673992 0
M  V30 3 C -1.442635 -2.423028 2.624191 0
M  V30 4 C -0.009770 -2.755642 2.365635 0
M  V30 5 C 0.785750 -1.619112 1.807688 0
M  V30 6 N -0.045607 -0.880048 0.888780 0
M  V30 7 C 0.161667 -0.499839 -0.474889 0
M  V30 8 C -0.656056 -0.882486 -1.516061 0
M  V30 9 C -0.425902 -0.496922 -2.819928 0
M  V30 10 N 0.637060 0.273841 -3.037531 0
M  V30 11 C 1.462541 0.667543 -2.029156 0
M  V30 12 N 2.547913 1.443559 -2.188081 0
M  V30 13 C 3.064216 1.583852 -0.948440 0
M  V30 14 C 2.301865 0.894027 -0.004849 0
M  V30 15 C 1.256557 0.297248 -0.717263 0
M  V30 16 C -1.346757 -0.385518 1.319030 0
M  V30 17 H -1.297225 -0.399101 4.643642 0
M  V30 18 H -0.622605 0.683366 3.456497 0
M  V30 19 H -2.783231 -0.755001 2.840330 0
M  V30 20 H -2.015284 -2.786439 1.732038 0
M  V30 21 H -1.853232 -2.924304 3.513262 0
M  V30 22 H 0.125298 -3.614843 1.671376 0
M  V30 23 H 0.455004 -3.031834 3.347585 0
M  V30 24 H 1.671943 -2.013873 1.305405 0
M  V30 25 H 1.181896 -0.953600 2.628328 0
M  V30 26 H -1.478945 -1.509544 -1.173036 0
M  V30 27 H -1.119982 -0.845394 -3.567542 0
M  V30 28 H 2.966921 1.876743 -3.017253 0
M  V30 29 H 3.928049 2.113106 -0.567071 0
M  V30 30 H 2.400932 0.779316 1.047004 0
M  V30 31 H -2.129269 -0.729460 0.598919 0
M  V30 32 H -1.350976 0.735195 1.318085 0
M  V30 END ATOM
M  V30 BEGIN BOND
M  V30 1 1 1 2
M  V30 2 1 2 3
M  V30 3 1 3 4
M  V30 4 1 4 5
M  V30 5 1 5 6
M  V30 6 1 6 7
M  V30 7 2 7 8
M  V30 8 1 8 9
M  V30 9 2 9 10
M  V30 10 1 10 11
M  V30 11 1 11 12
M  V30 12 1 12 13
M  V30 13 2 13 14
M  V30 14 1 14 15
M  V30 15 1 6 16
M  V30 16 1 16 2
M  V30 17 1 15 7
M  V30 18 2 15 11
M  V30 19 1 1 17
M  V30 20 1 1 18
M  V30 21 1 2 19
M  V30 22 1 3 20
M  V30 23 1 3 21
M  V30 24 1 4 22
M  V30 25 1 4 23
M  V30 26 1 5 24
M  V30 27 1 5 25
M  V30 28 1 8 26
M  V30 29 1 9 27
M  V30 30 1 12 28
M  V30 31 1 13 29
M  V30 32 1 14 30
M  V30 33 1 16 31
M  V30 34 1 16 32
M  V30 END BOND
M  V30 END CTAB
M  END
>  <Dataset>  (646) 
ChEMBL_Kinases

>  <Ligand_Instance>  (646) 
nan

>  <PDB_ID>  (646) 
nan

>  <Standardized_SMILES>  (646) 
NC1CCCN(c2ccnc3[nH]ccc23)C1

>  <Name>  (646) 
nan

>  <Pocket>  (646) 
nan

>  <ATP_Site>  (646) 
nan

>  <Peripheral>  (646) 
nan

>  <Num_H_Atoms_ProtBoundConf>  (646) 
nan

>  <Num_Resolved_Atoms>  (646) 
nan

>  <Num_Not_Resolved_Atoms>  (646) 
nan

$$$$
CHEMBL3716892
     RDKit          3D

  0  0  0  0  0  0  0  0  0  0999 V3000
M  V30 BEGIN CTAB
M  V30 COUNTS 53 56 0 0 0
M  V30 BEGIN ATOM
M  V30 1 C 1.051446 -1.544657 3.837318 0
M  V30 2 C 1.685696 -1.920138 2.530767 0
M  V30 3 C 2.041032 -3.410719 2.654929 0
M  V30 4 N 2.888777 -1.197123 2.226845 0
M  V30 5 C 2.975651 0.215265 2.094886 0
M  V30 6 C 4.187238 0.849970 1.795209 0
M  V30 7 C 4.356031 2.187557 1.653254 0
M  V30 8 C 3.251120 2.970125 1.817464 0
M  V30 9 Cl 3.425759 4.715579 1.642208 0
M  V30 10 C 1.986316 2.449305 2.118915 0
M  V30 11 N 0.854803 3.300920 2.282111 0
M  V30 12 S -0.704736 2.738088 2.729685 0
M  V30 13 C -0.722318 1.965072 4.316582 0
M  V30 14 O -1.649736 3.904368 2.763006 0
M  V30 15 O -1.273377 1.809247 1.665704 0
M  V30 16 C 1.922180 1.077414 2.242051 0
M  V30 17 C 0.672648 -1.875149 1.435853 0
M  V30 18 O -0.350760 -2.540657 1.802675 0
M  V30 19 N 0.725050 -1.238375 0.167602 0
M  V30 20 C -0.456393 -1.396590 -0.677705 0
M  V30 21 N -0.733799 -2.191835 -1.460673 0
M  V30 22 C -1.808863 -2.312439 -2.212030 0
M  V30 23 C -2.144717 -3.267964 -3.154382 0
M  V30 24 C -1.265766 -4.421781 -3.503141 0
M  V30 25 F -1.046073 -5.195400 -2.375509 0
M  V30 26 F -1.740704 -5.133195 -4.561204 0
M  V30 27 F -0.023966 -3.866893 -3.825136 0
M  V30 28 C -3.337601 -3.184086 -3.820051 0
M  V30 29 C -4.299384 -2.211508 -3.659367 0
M  V30 30 N -5.505827 -1.824169 -4.099201 0
M  V30 31 N -5.891979 -0.719935 -3.483721 0
M  V30 32 C -4.953352 -0.308110 -2.591665 0
M  V30 33 C -3.950150 -1.248875 -2.703431 0
M  V30 34 C -2.725864 -1.337531 -2.021942 0
M  V30 35 S -2.019078 -0.322928 -0.806899 0
M  V30 36 H 1.588821 -0.681743 4.324456 0
M  V30 37 H 1.118560 -2.362356 4.613844 0
M  V30 38 H -0.039433 -1.365423 3.745168 0
M  V30 39 H 1.131535 -4.012262 2.593659 0
M  V30 40 H 2.788389 -3.631846 1.873863 0
M  V30 41 H 2.515593 -3.566186 3.658585 0
M  V30 42 H 3.802945 -1.723490 2.083278 0
M  V30 43 H 5.068488 0.209272 1.666584 0
M  V30 44 H 5.307609 2.621939 1.422573 0
M  V30 45 H 1.021236 4.330503 2.109914 0
M  V30 46 H 0.179156 2.308735 4.871421 0
M  V30 47 H -0.765428 0.858996 4.246504 0
M  V30 48 H -1.589411 2.346780 4.888432 0
M  V30 49 H 0.953578 0.688334 2.470142 0
M  V30 50 H 1.604848 -0.740033 0.010086 0
M  V30 51 H -3.610958 -3.943541 -4.572905 0
M  V30 52 H -5.986093 -2.393911 -4.832316 0
M  V30 53 H -4.922671 0.529394 -1.926691 0
M  V30 END ATOM
M  V30 BEGIN BOND
M  V30 1 1 1 2
M  V30 2 1 2 3
M  V30 3 1 2 4
M  V30 4 1 4 5
M  V30 5 2 5 6
M  V30 6 1 6 7
M  V30 7 2 7 8
M  V30 8 1 8 9
M  V30 9 1 8 10
M  V30 10 1 10 11
M  V30 11 1 11 12
M  V30 12 1 12 13
M  V30 13 2 12 14
M  V30 14 2 12 15
M  V30 15 2 10 16
M  V30 16 1 2 17
M  V30 17 2 17 18
M  V30 18 1 17 19
M  V30 19 1 19 20
M  V30 20 2 20 21
M  V30 21 1 21 22
M  V30 22 2 22 23
M  V30 23 1 23 24
M  V30 24 1 24 25
M  V30 25 1 24 26
M  V30 26 1 24 27
M  V30 27 1 23 28
M  V30 28 2 28 29
M  V30 29 1 29 30
M  V30 30 1 30 31
M  V30 31 2 31 32
M  V30 32 1 32 33
M  V30 33 2 33 34
M  V30 34 1 34 35
M  V30 35 1 16 5
M  V30 36 1 35 20
M  V30 37 1 34 22
M  V30 38 1 33 29
M  V30 39 1 1 36
M  V30 40 1 1 37
M  V30 41 1 1 38
M  V30 42 1 3 39
M  V30 43 1 3 40
M  V30 44 1 3 41
M  V30 45 1 4 42
M  V30 46 1 6 43
M  V30 47 1 7 44
M  V30 48 1 11 45
M  V30 49 1 13 46
M  V30 50 1 13 47
M  V30 51 1 13 48
M  V30 52 1 16 49
M  V30 53 1 19 50
M  V30 54 1 28 51
M  V30 55 1 30 52
M  V30 56 1 32 53
M  V30 END BOND
M  V30 END CTAB
M  END
>  <Dataset>  (647) 
ChEMBL_Kinases

>  <Ligand_Instance>  (647) 
nan

>  <PDB_ID>  (647) 
nan

>  <Standardized_SMILES>  (647) 
CC(C)(Nc1ccc(Cl)c(NS(C)(=O)=O)c1)C(=O)Nc1nc2c(C(F)(F)F)cc3[nH]ncc3c2s1

>  <Name>  (647) 
nan

>  <Pocket>  (647) 
nan

>  <ATP_Site>  (647) 
nan

>  <Peripheral>  (647) 
nan

>  <Num_H_Atoms_ProtBoundConf>  (647) 
nan

>  <Num_Resolved_Atoms>  (647) 
nan

>  <Num_Not_Resolved_Atoms>  (647) 
nan

$$$$
CHEMBL3716868
     RDKit          3D

  0  0  0  0  0  0  0  0  0  0999 V3000
M  V30 BEGIN CTAB
M  V30 COUNTS 25 26 0 0 0
M  V30 BEGIN ATOM
M  V30 1 O 0.186890 -4.439501 2.702798 0
M  V30 2 C -0.515258 -4.658698 1.684911 0
M  V30 3 O -0.078175 -5.787169 1.004338 0
M  V30 4 C -1.665954 -3.842593 1.237481 0
M  V30 5 S -1.866780 -2.475229 2.444011 0
M  V30 6 C -0.435634 -1.390264 2.315431 0
M  V30 7 N 0.781822 -1.291499 2.904700 0
M  V30 8 N 1.424392 -0.247700 2.387552 0
M  V30 9 C 0.651164 0.326951 1.480809 0
M  V30 10 C 0.986199 1.512437 0.674787 0
M  V30 11 C 0.089967 2.014666 -0.246432 0
M  V30 12 C 0.399263 3.135831 -1.010650 0
M  V30 13 C 1.623656 3.754038 -0.841870 0
M  V30 14 C 2.555962 3.271871 0.082444 0
M  V30 15 F 3.738504 3.893209 0.224578 0
M  V30 16 C 2.198492 2.143533 0.825116 0
M  V30 17 N -0.498154 -0.367496 1.426108 0
M  V30 18 H 0.228575 -6.630846 1.495691 0
M  V30 19 H -2.598591 -4.386712 1.106470 0
M  V30 20 H -1.371396 -3.353758 0.263033 0
M  V30 21 H -0.889987 1.551615 -0.406773 0
M  V30 22 H -0.329624 3.499499 -1.724155 0
M  V30 23 H 1.798188 4.622506 -1.470092 0
M  V30 24 H 2.941693 1.817408 1.512209 0
M  V30 25 H -1.269766 -0.076734 0.757469 0
M  V30 END ATOM
M  V30 BEGIN BOND
M  V30 1 2 1 2
M  V30 2 1 2 3
M  V30 3 1 2 4
M  V30 4 1 4 5
M  V30 5 1 5 6
M  V30 6 2 6 7
M  V30 7 1 7 8
M  V30 8 2 8 9
M  V30 9 1 9 10
M  V30 10 2 10 11
M  V30 11 1 11 12
M  V30 12 2 12 13
M  V30 13 1 13 14
M  V30 14 1 14 15
M  V30 15 2 14 16
M  V30 16 1 9 17
M  V30 17 1 17 6
M  V30 18 1 16 10
M  V30 19 1 3 18
M  V30 20 1 4 19
M  V30 21 1 4 20
M  V30 22 1 11 21
M  V30 23 1 12 22
M  V30 24 1 13 23
M  V30 25 1 16 24
M  V30 26 1 17 25
M  V30 END BOND
M  V30 END CTAB
M  END
>  <Dataset>  (648) 
ChEMBL_Kinases

>  <Ligand_Instance>  (648) 
nan

>  <PDB_ID>  (648) 
nan

>  <Standardized_SMILES>  (648) 
O=C(O)CSc1nnc(-c2cccc(F)c2)[nH]1

>  <Name>  (648) 
nan

>  <Pocket>  (648) 
nan

>  <ATP_Site>  (648) 
nan

>  <Peripheral>  (648) 
nan

>  <Num_H_Atoms_ProtBoundConf>  (648) 
nan

>  <Num_Resolved_Atoms>  (648) 
nan

>  <Num_Not_Resolved_Atoms>  (648) 
nan

$$$$
CHEMBL3716854
     RDKit          3D

  0  0  0  0  0  0  0  0  0  0999 V3000
M  V30 BEGIN CTAB
M  V30 COUNTS 42 45 0 0 0
M  V30 BEGIN ATOM
M  V30 1 C -0.062361 -5.947481 0.078905 0
M  V30 2 N 0.336693 -5.033766 1.127720 0
M  V30 3 C 0.330200 -5.429703 2.507978 0
M  V30 4 C 0.728816 -3.738456 0.702645 0
M  V30 5 C 0.712605 -3.421715 -0.638682 0
M  V30 6 C 1.117020 -2.116794 -0.949704 0
M  V30 7 C 1.526492 -1.126384 -0.050971 0
M  V30 8 C 1.939517 0.108699 -0.677703 0
M  V30 9 N 2.896262 -0.101052 -1.620158 0
M  V30 10 C 3.451224 0.888368 -2.338724 0
M  V30 11 N 3.044013 2.175409 -2.123578 0
M  V30 12 C 2.102296 2.435456 -1.206431 0
M  V30 13 N 1.515051 3.573918 -0.801614 0
M  V30 14 C 0.614638 3.264542 0.148514 0
M  V30 15 C -0.252319 4.048385 0.875168 0
M  V30 16 C -1.100817 3.479924 1.799066 0
M  V30 17 C -1.092557 2.096207 2.010860 0
M  V30 18 C -2.014411 1.586841 2.998242 0
M  V30 19 N -2.915122 2.348167 3.761247 0
M  V30 20 O -2.058288 0.344299 3.240602 0
M  V30 21 C -0.220478 1.333691 1.276273 0
M  V30 22 C 0.618557 1.905159 0.363204 0
M  V30 23 C 1.551058 1.402796 -0.485743 0
M  V30 24 C 1.491416 -1.587395 1.250138 0
M  V30 25 C 1.114224 -2.838430 1.664841 0
M  V30 26 H -0.933217 -5.523656 -0.467081 0
M  V30 27 H -0.437729 -6.900637 0.543365 0
M  V30 28 H 0.791046 -6.141574 -0.602341 0
M  V30 29 H 1.378326 -5.697219 2.770449 0
M  V30 30 H -0.013206 -4.621006 3.169074 0
M  V30 31 H -0.275878 -6.350812 2.598962 0
M  V30 32 H 0.413320 -4.123055 -1.379550 0
M  V30 33 H 1.082940 -1.926905 -2.027537 0
M  V30 34 H 4.212623 0.728521 -3.089666 0
M  V30 35 H 1.701532 4.541192 -1.143368 0
M  V30 36 H -0.247122 5.115070 0.700097 0
M  V30 37 H -1.762397 4.134413 2.344956 0
M  V30 38 H -3.033994 3.405916 3.762127 0
M  V30 39 H -3.027691 3.391973 3.757712 0
M  V30 40 H -0.334263 0.305424 1.527703 0
M  V30 41 H 1.821233 -0.777975 1.928237 0
M  V30 42 H 1.155638 -3.002899 2.726475 0
M  V30 END ATOM
M  V30 BEGIN BOND
M  V30 1 1 1 2
M  V30 2 1 2 3
M  V30 3 1 2 4
M  V30 4 2 4 5
M  V30 5 1 5 6
M  V30 6 2 6 7
M  V30 7 1 7 8
M  V30 8 2 8 9
M  V30 9 1 9 10
M  V30 10 2 10 11
M  V30 11 1 11 12
M  V30 12 1 12 13
M  V30 13 1 13 14
M  V30 14 2 14 15
M  V30 15 1 15 16
M  V30 16 2 16 17
M  V30 17 1 17 18
M  V30 18 1 18 19
M  V30 19 2 18 20
M  V30 20 1 17 21
M  V30 21 2 21 22
M  V30 22 1 22 23
M  V30 23 1 7 24
M  V30 24 2 24 25
M  V30 25 1 25 4
M  V30 26 1 23 8
M  V30 27 2 23 12
M  V30 28 1 22 14
M  V30 29 1 1 26
M  V30 30 1 1 27
M  V30 31 1 1 28
M  V30 32 1 3 29
M  V30 33 1 3 30
M  V30 34 1 3 31
M  V30 35 1 5 32
M  V30 36 1 6 33
M  V30 37 1 10 34
M  V30 38 1 13 35
M  V30 39 1 15 36
M  V30 40 1 16 37
M  V30 41 1 19 38
M  V30 42 1 19 39
M  V30 43 1 21 40
M  V30 44 1 24 41
M  V30 45 1 25 42
M  V30 END BOND
M  V30 END CTAB
M  END
>  <Dataset>  (649) 
ChEMBL_Kinases

>  <Ligand_Instance>  (649) 
nan

>  <PDB_ID>  (649) 
nan

>  <Standardized_SMILES>  (649) 
CN(C)c1ccc(-c2ncnc3[nH]c4ccc(C(N)=O)cc4c23)cc1

>  <Name>  (649) 
nan

>  <Pocket>  (649) 
nan

>  <ATP_Site>  (649) 
nan

>  <Peripheral>  (649) 
nan

>  <Num_H_Atoms_ProtBoundConf>  (649) 
nan

>  <Num_Resolved_Atoms>  (649) 
nan

>  <Num_Not_Resolved_Atoms>  (649) 
nan

$$$$
CHEMBL3715171
     RDKit          3D

  0  0  0  0  0  0  0  0  0  0999 V3000
M  V30 BEGIN CTAB
M  V30 COUNTS 42 45 0 0 0
M  V30 BEGIN ATOM
M  V30 1 O 3.237516 0.322557 -0.251679 0
M  V30 2 C 2.555628 -0.455716 0.502965 0
M  V30 3 N 2.046305 -1.641790 -0.039171 0
M  V30 4 C 2.227946 -2.070137 -1.411485 0
M  V30 5 C 1.617496 -1.013526 -2.311969 0
M  V30 6 C 0.137623 -0.815504 -2.048774 0
M  V30 7 C -0.512892 -0.932068 -3.386517 0
M  V30 8 N 0.515364 -0.759077 -4.370504 0
M  V30 9 C 1.676066 -1.424746 -3.787839 0
M  V30 10 C 2.405019 0.035598 1.878337 0
M  V30 11 C 3.529483 0.568833 2.463857 0
M  V30 12 C 3.385688 1.051084 3.760310 0
M  V30 13 C 2.146679 0.962742 4.357728 0
M  V30 14 O 2.028954 1.457970 5.668142 0
M  V30 15 C 1.063250 0.415151 3.709394 0
M  V30 16 N -0.192063 0.261610 4.162511 0
M  V30 17 C -0.897066 -0.322711 3.176715 0
M  V30 18 C -2.296047 -0.701968 3.159364 0
M  V30 19 C -3.085079 -1.298354 2.246720 0
M  V30 20 C -4.392078 -1.500408 2.586442 0
M  V30 21 C -4.844388 -1.098285 3.816576 0
M  V30 22 S -3.323669 -0.357821 4.612466 0
M  V30 23 N -0.072049 -0.529343 2.112990 0
M  V30 24 C 1.140228 -0.088150 2.404770 0
M  V30 25 H 1.494038 -2.250432 0.626902 0
M  V30 26 H 1.707132 -3.010662 -1.629407 0
M  V30 27 H 3.297885 -2.149205 -1.697812 0
M  V30 28 H 2.111810 -0.026654 -2.237389 0
M  V30 29 H -0.050042 0.202712 -1.595948 0
M  V30 30 H -0.227144 -1.533513 -1.298844 0
M  V30 31 H -1.284492 -0.158860 -3.582255 0
M  V30 32 H -0.928782 -1.978743 -3.462646 0
M  V30 33 H 0.764478 0.269374 -4.410613 0
M  V30 34 H 2.587030 -1.040346 -4.284419 0
M  V30 35 H 1.609342 -2.508482 -3.932607 0
M  V30 36 H 4.464303 0.603786 1.931605 0
M  V30 37 H 4.243851 1.469436 4.234374 0
M  V30 38 H 2.097127 2.467457 5.847581 0
M  V30 39 H -0.564040 0.536572 5.097782 0
M  V30 40 H -2.616260 -1.572289 1.312041 0
M  V30 41 H -5.093229 -1.984201 1.886011 0
M  V30 42 H -5.846030 -1.194436 4.216007 0
M  V30 END ATOM
M  V30 BEGIN BOND
M  V30 1 2 1 2
M  V30 2 1 2 3
M  V30 3 1 3 4
M  V30 4 1 4 5
M  V30 5 1 5 6
M  V30 6 1 6 7
M  V30 7 1 7 8
M  V30 8 1 8 9
M  V30 9 1 2 10
M  V30 10 2 10 11
M  V30 11 1 11 12
M  V30 12 2 12 13
M  V30 13 1 13 14
M  V30 14 1 13 15
M  V30 15 1 15 16
M  V30 16 1 16 17
M  V30 17 1 17 18
M  V30 18 2 18 19
M  V30 19 1 19 20
M  V30 20 2 20 21
M  V30 21 1 21 22
M  V30 22 2 17 23
M  V30 23 1 23 24
M  V30 24 1 9 5
M  V30 25 1 24 10
M  V30 26 2 24 15
M  V30 27 1 22 18
M  V30 28 1 3 25
M  V30 29 1 4 26
M  V30 30 1 4 27
M  V30 31 1 5 28
M  V30 32 1 6 29
M  V30 33 1 6 30
M  V30 34 1 7 31
M  V30 35 1 7 32
M  V30 36 1 8 33
M  V30 37 1 9 34
M  V30 38 1 9 35
M  V30 39 1 11 36
M  V30 40 1 12 37
M  V30 41 1 14 38
M  V30 42 1 16 39
M  V30 43 1 19 40
M  V30 44 1 20 41
M  V30 45 1 21 42
M  V30 END BOND
M  V30 END CTAB
M  END
>  <Dataset>  (650) 
ChEMBL_Kinases

>  <Ligand_Instance>  (650) 
nan

>  <PDB_ID>  (650) 
nan

>  <Standardized_SMILES>  (650) 
O=C(NCC1CCNC1)c1ccc(O)c2[nH]c(-c3cccs3)nc12

>  <Name>  (650) 
nan

>  <Pocket>  (650) 
nan

>  <ATP_Site>  (650) 
nan

>  <Peripheral>  (650) 
nan

>  <Num_H_Atoms_ProtBoundConf>  (650) 
nan

>  <Num_Resolved_Atoms>  (650) 
nan

>  <Num_Not_Resolved_Atoms>  (650) 
nan

$$$$
CHEMBL3717174
     RDKit          3D

  0  0  0  0  0  0  0  0  0  0999 V3000
M  V30 BEGIN CTAB
M  V30 COUNTS 49 52 0 0 0
M  V30 BEGIN ATOM
M  V30 1 N 1.153190 -6.727154 3.025737 0
M  V30 2 C 1.584580 -6.384759 1.686457 0
M  V30 3 C 0.573192 -5.400462 1.119361 0 CFG=1
M  V30 4 C 0.432489 -4.144779 1.882203 0
M  V30 5 C 1.165889 -2.946132 1.377627 0
M  V30 6 C 1.187395 -2.758804 -0.092744 0 CFG=2
M  V30 7 C 0.681047 -1.470269 -0.598072 0
M  V30 8 N 1.391684 -0.314202 -0.125758 0
M  V30 9 C 0.776666 0.829784 -0.705530 0
M  V30 10 O -0.222895 0.651025 -1.482983 0
M  V30 11 C 1.101968 2.247212 -0.562693 0
M  V30 12 C 2.329612 2.742953 -0.982172 0
M  V30 13 C 2.620432 4.090877 -0.839057 0
M  V30 14 N 1.749977 4.979311 -0.296743 0
M  V30 15 C 0.540715 4.526168 0.123572 0
M  V30 16 N -0.542192 5.107405 0.695895 0
M  V30 17 C -1.446650 4.138356 0.886466 0
M  V30 18 C -2.751119 4.434248 1.494686 0
M  V30 19 C -3.796855 3.462741 1.745517 0
M  V30 20 C -4.929855 3.964114 2.317434 0
M  V30 21 C -5.004048 5.361869 2.617778 0
M  V30 22 S -3.373040 5.964450 2.050635 0
M  V30 23 N -0.994351 2.961124 0.462525 0
M  V30 24 C 0.246529 3.185124 -0.017226 0
M  V30 25 C 0.313469 -3.851725 -0.718299 0
M  V30 26 C 0.822055 -5.215099 -0.356475 0
M  V30 27 H 1.777661 -6.210253 3.696119 0
M  V30 28 H 0.147350 -6.502889 3.184717 0
M  V30 29 H 2.623017 -5.996694 1.657286 0
M  V30 30 H 1.478483 -7.309313 1.078284 0
M  V30 31 H -0.397988 -5.957766 1.184394 0
M  V30 32 H 0.828323 -4.332661 2.922229 0
M  V30 33 H -0.647958 -3.889803 2.037583 0
M  V30 34 H 0.690501 -2.081351 1.931161 0
M  V30 35 H 2.216250 -2.947960 1.752934 0
M  V30 36 H 2.215485 -2.943138 -0.526156 0
M  V30 37 H -0.410334 -1.419267 -0.373429 0
M  V30 38 H 0.741565 -1.495115 -1.718745 0
M  V30 39 H 2.191111 -0.057660 0.490682 0
M  V30 40 H 3.028070 2.034722 -1.414907 0
M  V30 41 H 3.575949 4.478861 -1.165383 0
M  V30 42 H -3.622950 2.438062 1.471023 0
M  V30 43 H -5.771107 3.326520 2.547830 0
M  V30 44 H -5.808897 5.849822 3.048031 0
M  V30 45 H -1.521179 2.079830 0.510314 0
M  V30 46 H 0.245049 -3.686253 -1.823536 0
M  V30 47 H -0.701400 -3.657637 -0.314844 0
M  V30 48 H 1.863598 -5.312913 -0.658713 0
M  V30 49 H 0.242417 -5.947969 -0.979418 0
M  V30 END ATOM
M  V30 BEGIN BOND
M  V30 1 1 1 2
M  V30 2 1 2 3
M  V30 3 1 3 4
M  V30 4 1 4 5
M  V30 5 1 5 6
M  V30 6 1 6 7
M  V30 7 1 7 8
M  V30 8 1 8 9
M  V30 9 2 9 10
M  V30 10 1 9 11
M  V30 11 2 11 12
M  V30 12 1 12 13
M  V30 13 2 13 14
M  V30 14 1 14 15
M  V30 15 1 15 16
M  V30 16 2 16 17
M  V30 17 1 17 18
M  V30 18 2 18 19
M  V30 19 1 19 20
M  V30 20 2 20 21
M  V30 21 1 21 22
M  V30 22 1 17 23
M  V30 23 1 23 24
M  V30 24 1 6 25
M  V30 25 1 25 26
M  V30 26 1 26 3
M  V30 27 1 24 11
M  V30 28 2 24 15
M  V30 29 1 22 18
M  V30 30 1 1 27
M  V30 31 1 1 28
M  V30 32 1 2 29
M  V30 33 1 2 30
M  V30 34 1 3 31 CFG=3
M  V30 35 1 4 32
M  V30 36 1 4 33
M  V30 37 1 5 34
M  V30 38 1 5 35
M  V30 39 1 6 36 CFG=3
M  V30 40 1 7 37
M  V30 41 1 7 38
M  V30 42 1 8 39
M  V30 43 1 12 40
M  V30 44 1 13 41
M  V30 45 1 19 42
M  V30 46 1 20 43
M  V30 47 1 21 44
M  V30 48 1 23 45
M  V30 49 1 25 46
M  V30 50 1 25 47
M  V30 51 1 26 48
M  V30 52 1 26 49
M  V30 END BOND
M  V30 END CTAB
M  END
>  <Dataset>  (651) 
ChEMBL_Kinases

>  <Ligand_Instance>  (651) 
nan

>  <PDB_ID>  (651) 
nan

>  <Standardized_SMILES>  (651) 
NC[C@H]1CC[C@H](CNC(=O)c2ccnc3nc(-c4cccs4)[nH]c23)CC1

>  <Name>  (651) 
nan

>  <Pocket>  (651) 
nan

>  <ATP_Site>  (651) 
nan

>  <Peripheral>  (651) 
nan

>  <Num_H_Atoms_ProtBoundConf>  (651) 
nan

>  <Num_Resolved_Atoms>  (651) 
nan

>  <Num_Not_Resolved_Atoms>  (651) 
nan

$$$$
CHEMBL3717170
     RDKit          3D

  0  0  0  0  0  0  0  0  0  0999 V3000
M  V30 BEGIN CTAB
M  V30 COUNTS 37 40 0 0 0
M  V30 BEGIN ATOM
M  V30 1 O -1.611462 -1.515763 2.294171 0
M  V30 2 C -0.464376 -2.003425 2.057512 0
M  V30 3 C -0.570209 -3.423549 2.470653 0
M  V30 4 N 0.646970 -4.177166 2.263798 0
M  V30 5 C 1.210189 -4.433413 0.983343 0
M  V30 6 C 2.372095 -5.134837 0.771358 0
M  V30 7 C 2.925997 -5.399481 -0.449682 0
M  V30 8 C 2.305316 -4.947649 -1.575223 0
M  V30 9 C 1.137637 -4.236477 -1.462533 0
M  V30 10 O 0.450530 -3.743836 -2.586611 0
M  V30 11 C 0.625577 -3.999425 -0.211546 0
M  V30 12 N 0.569747 -1.193149 1.510999 0
M  V30 13 C 0.240266 0.174216 1.248107 0
M  V30 14 N 0.318382 1.158060 1.925818 0
M  V30 15 C -0.016459 2.381201 1.579918 0
M  V30 16 C 0.065759 3.526577 2.345310 0
M  V30 17 C -0.332360 4.733207 1.817822 0
M  V30 18 C -0.828122 4.929497 0.546022 0
M  V30 19 N -1.287652 5.899349 -0.261852 0
M  V30 20 N -1.632921 5.408175 -1.443064 0
M  V30 21 C -1.419613 4.072266 -1.485011 0
M  V30 22 C -0.917402 3.796330 -0.233047 0
M  V30 23 C -0.511728 2.572862 0.307320 0
M  V30 24 S -0.464493 0.882750 -0.357645 0
M  V30 25 H -1.345500 -3.938802 1.831723 0
M  V30 26 H -0.841548 -3.516500 3.550220 0
M  V30 27 H 1.185360 -4.580117 3.063969 0
M  V30 28 H 2.910641 -5.520753 1.648225 0
M  V30 29 H 3.841339 -5.957957 -0.523465 0
M  V30 30 H 2.725084 -5.144957 -2.551516 0
M  V30 31 H -0.056630 -2.870811 -2.484596 0
M  V30 32 H -0.308685 -3.428560 -0.148291 0
M  V30 33 H 1.426272 -1.768440 1.398220 0
M  V30 34 H 0.429011 3.560123 3.360712 0
M  V30 35 H -0.270262 5.654006 2.422556 0
M  V30 36 H -1.335209 6.894528 0.075511 0
M  V30 37 H -1.573895 3.335493 -2.256231 0
M  V30 END ATOM
M  V30 BEGIN BOND
M  V30 1 2 1 2
M  V30 2 1 2 3
M  V30 3 1 3 4
M  V30 4 1 4 5
M  V30 5 2 5 6
M  V30 6 1 6 7
M  V30 7 2 7 8
M  V30 8 1 8 9
M  V30 9 1 9 10
M  V30 10 2 9 11
M  V30 11 1 2 12
M  V30 12 1 12 13
M  V30 13 2 13 14
M  V30 14 1 14 15
M  V30 15 2 15 16
M  V30 16 1 16 17
M  V30 17 2 17 18
M  V30 18 1 18 19
M  V30 19 1 19 20
M  V30 20 2 20 21
M  V30 21 1 21 22
M  V30 22 2 22 23
M  V30 23 1 23 24
M  V30 24 1 11 5
M  V30 25 1 24 13
M  V30 26 1 23 15
M  V30 27 1 22 18
M  V30 28 1 3 25
M  V30 29 1 3 26
M  V30 30 1 4 27
M  V30 31 1 6 28
M  V30 32 1 7 29
M  V30 33 1 8 30
M  V30 34 1 10 31
M  V30 35 1 11 32
M  V30 36 1 12 33
M  V30 37 1 16 34
M  V30 38 1 17 35
M  V30 39 1 19 36
M  V30 40 1 21 37
M  V30 END BOND
M  V30 END CTAB
M  END
>  <Dataset>  (652) 
ChEMBL_Kinases

>  <Ligand_Instance>  (652) 
nan

>  <PDB_ID>  (652) 
nan

>  <Standardized_SMILES>  (652) 
O=C(CNc1cccc(O)c1)Nc1nc2ccc3[nH]ncc3c2s1

>  <Name>  (652) 
nan

>  <Pocket>  (652) 
nan

>  <ATP_Site>  (652) 
nan

>  <Peripheral>  (652) 
nan

>  <Num_H_Atoms_ProtBoundConf>  (652) 
nan

>  <Num_Resolved_Atoms>  (652) 
nan

>  <Num_Not_Resolved_Atoms>  (652) 
nan

$$$$
CHEMBL371716
     RDKit          3D

  0  0  0  0  0  0  0  0  0  0999 V3000
M  V30 BEGIN CTAB
M  V30 COUNTS 60 64 0 0 0
M  V30 BEGIN ATOM
M  V30 1 C 2.466480 -1.655747 6.363800 0
M  V30 2 C 2.511669 -1.657371 4.884427 0
M  V30 3 C 3.561121 -2.231174 4.190913 0
M  V30 4 C 3.621801 -2.244477 2.826539 0
M  V30 5 C 2.609235 -1.669353 2.076087 0
M  V30 6 C 1.542980 -1.085628 2.730466 0
M  V30 7 C 0.387435 -0.433098 2.075858 0
M  V30 8 N -0.036569 0.830765 2.115234 0
M  V30 9 C -0.978312 1.259484 1.552233 0
M  V30 10 C -1.541045 2.645850 1.526446 0
M  V30 11 C -0.991381 3.699021 2.212039 0
M  V30 12 C -1.609904 4.927943 2.101991 0
M  V30 13 C -2.741164 5.097259 1.331274 0
M  V30 14 S -3.482088 6.677632 1.227289 0
M  V30 15 C -4.703375 6.923866 2.493188 0
M  V30 16 O -2.439883 7.748026 1.328709 0
M  V30 17 O -4.147232 6.768929 -0.129167 0
M  V30 18 C -3.310358 4.046764 0.632421 0
M  V30 19 C -2.665534 2.836035 0.766280 0
M  V30 20 S -1.686911 -0.154575 0.652997 0
M  V30 21 C -0.349518 -1.299397 1.306407 0
M  V30 22 C -0.289969 -2.734303 0.958418 0
M  V30 23 C -0.408952 -3.808910 1.805960 0
M  V30 24 C -0.327067 -5.083786 1.284130 0
M  V30 25 N -0.133753 -5.261287 -0.034290 0
M  V30 26 C -0.009921 -4.249855 -0.914117 0
M  V30 27 N 0.192523 -4.448125 -2.312537 0
M  V30 28 C 1.319834 -4.592566 -3.147983 0
M  V30 29 O 2.419873 -4.538864 -2.542607 0
M  V30 30 C 1.066202 -4.781143 -4.571922 0
M  V30 31 C -0.144662 -4.824458 -5.231477 0
M  V30 32 C -0.131291 -5.019468 -6.611468 0
M  V30 33 C 1.049491 -5.166281 -7.310065 0
M  V30 34 C 2.262637 -5.123404 -6.652233 0
M  V30 35 C 2.258160 -4.930580 -5.284715 0
M  V30 36 C -0.093076 -2.967948 -0.382680 0
M  V30 37 C 1.506590 -1.086335 4.126778 0
M  V30 38 H 1.432321 -1.490075 6.708294 0
M  V30 39 H 3.163479 -0.880095 6.722252 0
M  V30 40 H 2.853639 -2.641767 6.686599 0
M  V30 41 H 4.351178 -2.680308 4.773686 0
M  V30 42 H 4.443968 -2.697004 2.289258 0
M  V30 43 H 2.571394 -1.632776 1.011331 0
M  V30 44 H -0.110104 3.428093 2.775105 0
M  V30 45 H -1.135980 5.726534 2.663326 0
M  V30 46 H -5.601629 7.382560 2.025601 0
M  V30 47 H -5.022305 5.926796 2.891619 0
M  V30 48 H -4.332015 7.516770 3.350364 0
M  V30 49 H -4.198895 4.169403 0.023504 0
M  V30 50 H -3.121038 2.006654 0.211816 0
M  V30 51 H -0.564627 -3.534535 2.859227 0
M  V30 52 H -0.426738 -5.895984 1.989520 0
M  V30 53 H -0.818353 -4.459832 -2.581540 0
M  V30 54 H -0.994265 -4.700218 -4.597644 0
M  V30 55 H -1.145103 -5.037202 -7.035055 0
M  V30 56 H 0.951039 -5.314349 -8.384187 0
M  V30 57 H 3.160950 -5.243746 -7.244211 0
M  V30 58 H 3.254322 -4.911829 -4.864182 0
M  V30 59 H 0.011493 -2.161404 -1.123940 0
M  V30 60 H 0.679878 -0.634093 4.669500 0
M  V30 END ATOM
M  V30 BEGIN BOND
M  V30 1 1 1 2
M  V30 2 2 2 3
M  V30 3 1 3 4
M  V30 4 2 4 5
M  V30 5 1 5 6
M  V30 6 1 6 7
M  V30 7 1 7 8
M  V30 8 2 8 9
M  V30 9 1 9 10
M  V30 10 2 10 11
M  V30 11 1 11 12
M  V30 12 2 12 13
M  V30 13 1 13 14
M  V30 14 1 14 15
M  V30 15 2 14 16
M  V30 16 2 14 17
M  V30 17 1 13 18
M  V30 18 2 18 19
M  V30 19 1 9 20
M  V30 20 1 20 21
M  V30 21 1 21 22
M  V30 22 2 22 23
M  V30 23 1 23 24
M  V30 24 2 24 25
M  V30 25 1 25 26
M  V30 26 1 26 27
M  V30 27 1 27 28
M  V30 28 2 28 29
M  V30 29 1 28 30
M  V30 30 2 30 31
M  V30 31 1 31 32
M  V30 32 2 32 33
M  V30 33 1 33 34
M  V30 34 2 34 35
M  V30 35 2 26 36
M  V30 36 2 6 37
M  V30 37 1 37 2
M  V30 38 2 21 7
M  V30 39 1 36 22
M  V30 40 1 19 10
M  V30 41 1 35 30
M  V30 42 1 1 38
M  V30 43 1 1 39
M  V30 44 1 1 40
M  V30 45 1 3 41
M  V30 46 1 4 42
M  V30 47 1 5 43
M  V30 48 1 11 44
M  V30 49 1 12 45
M  V30 50 1 15 46
M  V30 51 1 15 47
M  V30 52 1 15 48
M  V30 53 1 18 49
M  V30 54 1 19 50
M  V30 55 1 23 51
M  V30 56 1 24 52
M  V30 57 1 27 53
M  V30 58 1 31 54
M  V30 59 1 32 55
M  V30 60 1 33 56
M  V30 61 1 34 57
M  V30 62 1 35 58
M  V30 63 1 36 59
M  V30 64 1 37 60
M  V30 END BOND
M  V30 END CTAB
M  END
>  <Dataset>  (653) 
ChEMBL_Kinases

>  <Ligand_Instance>  (653) 
nan

>  <PDB_ID>  (653) 
nan

>  <Standardized_SMILES>  (653) 
Cc1cccc(-c2nc(-c3ccc(S(C)(=O)=O)cc3)sc2-c2ccnc(NC(=O)c3ccccc3)c2)c1

>  <Name>  (653) 
nan

>  <Pocket>  (653) 
nan

>  <ATP_Site>  (653) 
nan

>  <Peripheral>  (653) 
nan

>  <Num_H_Atoms_ProtBoundConf>  (653) 
nan

>  <Num_Resolved_Atoms>  (653) 
nan

>  <Num_Not_Resolved_Atoms>  (653) 
nan

$$$$
CHEMBL3717146
     RDKit          3D

  0  0  0  0  0  0  0  0  0  0999 V3000
M  V30 BEGIN CTAB
M  V30 COUNTS 37 38 0 0 0
M  V30 BEGIN ATOM
M  V30 1 C 0.118958 -5.147041 2.605940 0
M  V30 2 O -0.835583 -4.105852 2.525831 0
M  V30 3 C -0.656351 -2.934584 1.823683 0
M  V30 4 C 0.454412 -2.574138 1.090405 0
M  V30 5 C 0.532647 -1.370866 0.420800 0
M  V30 6 C 1.744223 -1.067892 -0.334542 0
M  V30 7 N 2.830435 -1.848354 -0.475519 0
M  V30 8 N 3.732911 -1.245440 -1.233475 0
M  V30 9 C 3.235863 -0.049962 -1.598348 0
M  V30 10 S 4.172625 1.058108 -2.630771 0
M  V30 11 C 3.301000 2.587386 -2.965647 0
M  V30 12 C 3.106725 3.430258 -1.762755 0
M  V30 13 O 2.505515 4.555888 -1.836676 0
M  V30 14 O 3.530590 3.120455 -0.472009 0
M  V30 15 N 2.003018 0.046294 -1.033886 0
M  V30 16 C -0.505053 -0.462306 0.452554 0
M  V30 17 C -1.637440 -0.784747 1.176519 0
M  V30 18 O -2.750863 0.032052 1.293364 0
M  V30 19 C -2.814197 1.288533 0.665789 0
M  V30 20 C -1.690776 -2.014114 1.847633 0
M  V30 21 O -2.853225 -2.327167 2.581004 0
M  V30 22 C -2.914698 -1.946108 3.948799 0
M  V30 23 H 0.682671 -5.155924 1.657236 0
M  V30 24 H 0.742288 -5.009626 3.513411 0
M  V30 25 H -0.421929 -6.110717 2.706940 0
M  V30 26 H 1.263134 -3.290934 1.069881 0
M  V30 27 H 2.301148 2.321522 -3.381758 0
M  V30 28 H 3.824666 3.149475 -3.760132 0
M  V30 29 H 2.873468 3.177481 0.302786 0
M  V30 30 H 1.418336 0.878578 -1.168614 0
M  V30 31 H -0.455919 0.465360 -0.058863 0
M  V30 32 H -1.823973 1.767274 0.684676 0
M  V30 33 H -3.193169 1.229723 -0.383000 0
M  V30 34 H -3.561955 1.937262 1.200503 0
M  V30 35 H -3.026014 -0.846352 4.072032 0
M  V30 36 H -1.930046 -2.205412 4.410242 0
M  V30 37 H -3.705791 -2.504538 4.488938 0
M  V30 END ATOM
M  V30 BEGIN BOND
M  V30 1 1 1 2
M  V30 2 1 2 3
M  V30 3 2 3 4
M  V30 4 1 4 5
M  V30 5 1 5 6
M  V30 6 2 6 7
M  V30 7 1 7 8
M  V30 8 2 8 9
M  V30 9 1 9 10
M  V30 10 1 10 11
M  V30 11 1 11 12
M  V30 12 2 12 13
M  V30 13 1 12 14
M  V30 14 1 9 15
M  V30 15 2 5 16
M  V30 16 1 16 17
M  V30 17 1 17 18
M  V30 18 1 18 19
M  V30 19 2 17 20
M  V30 20 1 20 21
M  V30 21 1 21 22
M  V30 22 1 20 3
M  V30 23 1 15 6
M  V30 24 1 1 23
M  V30 25 1 1 24
M  V30 26 1 1 25
M  V30 27 1 4 26
M  V30 28 1 11 27
M  V30 29 1 11 28
M  V30 30 1 14 29
M  V30 31 1 15 30
M  V30 32 1 16 31
M  V30 33 1 19 32
M  V30 34 1 19 33
M  V30 35 1 19 34
M  V30 36 1 22 35
M  V30 37 1 22 36
M  V30 38 1 22 37
M  V30 END BOND
M  V30 END CTAB
M  END
>  <Dataset>  (654) 
ChEMBL_Kinases

>  <Ligand_Instance>  (654) 
nan

>  <PDB_ID>  (654) 
nan

>  <Standardized_SMILES>  (654) 
COc1cc(-c2nnc(SCC(=O)O)[nH]2)cc(OC)c1OC

>  <Name>  (654) 
nan

>  <Pocket>  (654) 
nan

>  <ATP_Site>  (654) 
nan

>  <Peripheral>  (654) 
nan

>  <Num_H_Atoms_ProtBoundConf>  (654) 
nan

>  <Num_Resolved_Atoms>  (654) 
nan

>  <Num_Not_Resolved_Atoms>  (654) 
nan

$$$$
CHEMBL3717135
     RDKit          3D

  0  0  0  0  0  0  0  0  0  0999 V3000
M  V30 BEGIN CTAB
M  V30 COUNTS 28 29 0 0 0
M  V30 BEGIN ATOM
M  V30 1 O -0.437203 -1.217748 4.450965 0
M  V30 2 C -0.067973 -2.318021 4.972156 0
M  V30 3 O -1.163994 -3.073132 5.341115 0
M  V30 4 C 1.380611 -2.579952 5.084689 0
M  V30 5 S 2.070859 -3.320715 3.579418 0
M  V30 6 C 1.928896 -2.064871 2.292136 0
M  V30 7 N 2.848797 -1.116788 2.037152 0
M  V30 8 N 2.378996 -0.376670 1.020084 0
M  V30 9 C 1.171752 -0.869818 0.650217 0
M  V30 10 C 0.344448 -0.340349 -0.430996 0
M  V30 11 C -0.851572 -0.940926 -0.767310 0
M  V30 12 C -1.659052 -0.461621 -1.778120 0
M  V30 13 C -1.201412 0.665035 -2.442927 0
M  V30 14 C -0.014846 1.299380 -2.143024 0
M  V30 15 C 0.442676 2.524587 -2.888329 0
M  V30 16 F 1.593815 2.287110 -3.601353 0
M  V30 17 F -0.565224 2.965403 -3.685108 0
M  V30 18 F 0.750740 3.522496 -1.972100 0
M  V30 19 C 0.757654 0.782047 -1.124739 0
M  V30 20 N 0.896596 -1.920184 1.445220 0
M  V30 21 H -2.058773 -3.017980 4.867772 0
M  V30 22 H 1.888397 -1.583976 5.209265 0
M  V30 23 H 1.629211 -3.180319 5.984445 0
M  V30 24 H -1.145449 -1.816629 -0.204962 0
M  V30 25 H -2.615771 -0.934080 -2.055470 0
M  V30 26 H -1.822848 1.055185 -3.239485 0
M  V30 27 H 1.699711 1.245889 -0.856253 0
M  V30 28 H 0.026562 -2.466338 1.358153 0
M  V30 END ATOM
M  V30 BEGIN BOND
M  V30 1 2 1 2
M  V30 2 1 2 3
M  V30 3 1 2 4
M  V30 4 1 4 5
M  V30 5 1 5 6
M  V30 6 2 6 7
M  V30 7 1 7 8
M  V30 8 2 8 9
M  V30 9 1 9 10
M  V30 10 2 10 11
M  V30 11 1 11 12
M  V30 12 2 12 13
M  V30 13 1 13 14
M  V30 14 1 14 15
M  V30 15 1 15 16
M  V30 16 1 15 17
M  V30 17 1 15 18
M  V30 18 2 14 19
M  V30 19 1 9 20
M  V30 20 1 20 6
M  V30 21 1 19 10
M  V30 22 1 3 21
M  V30 23 1 4 22
M  V30 24 1 4 23
M  V30 25 1 11 24
M  V30 26 1 12 25
M  V30 27 1 13 26
M  V30 28 1 19 27
M  V30 29 1 20 28
M  V30 END BOND
M  V30 END CTAB
M  END
>  <Dataset>  (655) 
ChEMBL_Kinases

>  <Ligand_Instance>  (655) 
nan

>  <PDB_ID>  (655) 
nan

>  <Standardized_SMILES>  (655) 
O=C(O)CSc1nnc(-c2cccc(C(F)(F)F)c2)[nH]1

>  <Name>  (655) 
nan

>  <Pocket>  (655) 
nan

>  <ATP_Site>  (655) 
nan

>  <Peripheral>  (655) 
nan

>  <Num_H_Atoms_ProtBoundConf>  (655) 
nan

>  <Num_Resolved_Atoms>  (655) 
nan

>  <Num_Not_Resolved_Atoms>  (655) 
nan

$$$$
CHEMBL3717118
     RDKit          3D

  0  0  0  0  0  0  0  0  0  0999 V3000
M  V30 BEGIN CTAB
M  V30 COUNTS 29 30 0 0 0
M  V30 BEGIN ATOM
M  V30 1 C -2.838148 -1.949492 2.329285 0
M  V30 2 O -2.167370 -1.245372 3.342433 0
M  V30 3 C -0.935135 -0.662136 3.224611 0
M  V30 4 C -0.095149 -0.622636 2.133096 0
M  V30 5 C 1.126333 0.011070 2.167212 0
M  V30 6 C 1.961614 0.014901 0.977157 0
M  V30 7 N 3.171499 0.571395 0.831058 0
M  V30 8 N 3.617248 0.360458 -0.401766 0
M  V30 9 C 2.714298 -0.338300 -1.095990 0
M  V30 10 S 2.741737 -0.917863 -2.796766 0
M  V30 11 C 1.191174 -1.774132 -3.151831 0
M  V30 12 C 0.022796 -0.850379 -3.129756 0
M  V30 13 O -0.208019 -0.270029 -4.243958 0
M  V30 14 O -0.984808 -0.331416 -2.334361 0
M  V30 15 N 1.690191 -0.545141 -0.222832 0
M  V30 16 C 1.553117 0.637238 3.318776 0
M  V30 17 C 0.719241 0.612529 4.442729 0
M  V30 18 C -0.521868 -0.033019 4.403621 0
M  V30 19 F -1.241162 0.004951 5.553516 0
M  V30 20 H -2.803971 -1.457356 1.339460 0
M  V30 21 H -3.874927 -2.209224 2.617696 0
M  V30 22 H -2.311345 -2.926557 2.196499 0
M  V30 23 H -0.480699 -1.133667 1.255724 0
M  V30 24 H 1.212951 -2.279921 -4.133844 0
M  V30 25 H 0.974627 -2.554726 -2.388545 0
M  V30 26 H -0.920417 0.607484 -1.928552 0
M  V30 27 H 0.787475 -1.050938 -0.368018 0
M  V30 28 H 2.515531 1.154959 3.390246 0
M  V30 29 H 1.106085 1.124920 5.321797 0
M  V30 END ATOM
M  V30 BEGIN BOND
M  V30 1 1 1 2
M  V30 2 1 2 3
M  V30 3 2 3 4
M  V30 4 1 4 5
M  V30 5 1 5 6
M  V30 6 2 6 7
M  V30 7 1 7 8
M  V30 8 2 8 9
M  V30 9 1 9 10
M  V30 10 1 10 11
M  V30 11 1 11 12
M  V30 12 2 12 13
M  V30 13 1 12 14
M  V30 14 1 9 15
M  V30 15 2 5 16
M  V30 16 1 16 17
M  V30 17 2 17 18
M  V30 18 1 18 19
M  V30 19 1 18 3
M  V30 20 1 15 6
M  V30 21 1 1 20
M  V30 22 1 1 21
M  V30 23 1 1 22
M  V30 24 1 4 23
M  V30 25 1 11 24
M  V30 26 1 11 25
M  V30 27 1 14 26
M  V30 28 1 15 27
M  V30 29 1 16 28
M  V30 30 1 17 29
M  V30 END BOND
M  V30 END CTAB
M  END
>  <Dataset>  (656) 
ChEMBL_Kinases

>  <Ligand_Instance>  (656) 
nan

>  <PDB_ID>  (656) 
nan

>  <Standardized_SMILES>  (656) 
COc1cc(-c2nnc(SCC(=O)O)[nH]2)ccc1F

>  <Name>  (656) 
nan

>  <Pocket>  (656) 
nan

>  <ATP_Site>  (656) 
nan

>  <Peripheral>  (656) 
nan

>  <Num_H_Atoms_ProtBoundConf>  (656) 
nan

>  <Num_Resolved_Atoms>  (656) 
nan

>  <Num_Not_Resolved_Atoms>  (656) 
nan

$$$$
CHEMBL3717114
     RDKit          3D

  0  0  0  0  0  0  0  0  0  0999 V3000
M  V30 BEGIN CTAB
M  V30 COUNTS 36 39 0 0 0
M  V30 BEGIN ATOM
M  V30 1 C -1.583359 -3.542650 3.000992 0
M  V30 2 N -1.133153 -2.590842 1.996541 0
M  V30 3 C -0.363047 -1.510459 2.217320 0
M  V30 4 C -0.134314 -0.831594 1.015636 0
M  V30 5 C 0.634083 0.381967 0.756003 0
M  V30 6 C 1.960739 0.194601 0.457185 0
M  V30 7 C 2.735837 1.326894 0.201302 0
M  V30 8 C 4.163205 1.268200 -0.129542 0
M  V30 9 N 4.752396 -0.039394 -0.182059 0
M  V30 10 O 4.937600 2.229951 -0.374110 0
M  V30 11 C 2.207327 2.605694 0.241504 0
M  V30 12 C 0.862708 2.748013 0.547480 0
M  V30 13 N 0.034379 3.808327 0.672286 0
M  V30 14 N -1.181517 3.389850 0.984792 0
M  V30 15 C -1.223647 2.048235 1.082516 0
M  V30 16 C 0.067576 1.645968 0.806083 0
M  V30 17 C -0.800638 -1.544354 0.038634 0
M  V30 18 C -0.989706 -1.440187 -1.323342 0
M  V30 19 C -1.733296 -2.333733 -2.066269 0
M  V30 20 C -2.332201 -3.407773 -1.410157 0
M  V30 21 C -2.161502 -3.543974 -0.031275 0
M  V30 22 C -1.405352 -2.617069 0.659525 0
M  V30 23 H -1.797613 -4.541335 2.545448 0
M  V30 24 H -2.440818 -3.183353 3.592065 0
M  V30 25 H -0.755695 -3.742060 3.739384 0
M  V30 26 H 0.047581 -1.168763 3.164758 0
M  V30 27 H 2.481427 -0.753094 0.397134 0
M  V30 28 H 5.574127 -0.395013 0.349952 0
M  V30 29 H 4.670892 -0.970728 -0.633348 0
M  V30 30 H 2.784816 3.496012 0.047818 0
M  V30 31 H 0.336201 4.815902 0.535542 0
M  V30 32 H -2.067108 1.409527 1.322110 0
M  V30 33 H -0.508296 -0.587122 -1.814381 0
M  V30 34 H -1.867108 -2.231165 -3.132300 0
M  V30 35 H -2.928961 -4.133975 -1.974198 0
M  V30 36 H -2.629897 -4.387377 0.493951 0
M  V30 END ATOM
M  V30 BEGIN BOND
M  V30 1 1 1 2
M  V30 2 1 2 3
M  V30 3 2 3 4
M  V30 4 1 4 5
M  V30 5 2 5 6
M  V30 6 1 6 7
M  V30 7 1 7 8
M  V30 8 1 8 9
M  V30 9 2 8 10
M  V30 10 2 7 11
M  V30 11 1 11 12
M  V30 12 1 12 13
M  V30 13 1 13 14
M  V30 14 2 14 15
M  V30 15 1 15 16
M  V30 16 1 4 17
M  V30 17 2 17 18
M  V30 18 1 18 19
M  V30 19 2 19 20
M  V30 20 1 20 21
M  V30 21 2 21 22
M  V30 22 1 22 2
M  V30 23 1 16 5
M  V30 24 1 22 17
M  V30 25 2 16 12
M  V30 26 1 1 23
M  V30 27 1 1 24
M  V30 28 1 1 25
M  V30 29 1 3 26
M  V30 30 1 6 27
M  V30 31 1 9 28
M  V30 32 1 9 29
M  V30 33 1 11 30
M  V30 34 1 13 31
M  V30 35 1 15 32
M  V30 36 1 18 33
M  V30 37 1 19 34
M  V30 38 1 20 35
M  V30 39 1 21 36
M  V30 END BOND
M  V30 END CTAB
M  END
>  <Dataset>  (657) 
ChEMBL_Kinases

>  <Ligand_Instance>  (657) 
nan

>  <PDB_ID>  (657) 
nan

>  <Standardized_SMILES>  (657) 
Cn1cc(-c2cc(C(N)=O)cc3[nH]ncc23)c2ccccc21

>  <Name>  (657) 
nan

>  <Pocket>  (657) 
nan

>  <ATP_Site>  (657) 
nan

>  <Peripheral>  (657) 
nan

>  <Num_H_Atoms_ProtBoundConf>  (657) 
nan

>  <Num_Resolved_Atoms>  (657) 
nan

>  <Num_Not_Resolved_Atoms>  (657) 
nan

$$$$
CHEMBL570533
     RDKit          3D

  0  0  0  0  0  0  0  0  0  0999 V3000
M  V30 BEGIN CTAB
M  V30 COUNTS 39 42 0 0 0
M  V30 BEGIN ATOM
M  V30 1 C 3.091930 -5.195856 0.641877 0
M  V30 2 C 2.290691 -4.407621 1.612596 0
M  V30 3 C 2.311964 -4.780165 2.960426 0
M  V30 4 C 1.576969 -4.078031 3.918218 0
M  V30 5 C 0.810116 -2.994363 3.546718 0
M  V30 6 C 0.811310 -2.654057 2.211542 0
M  V30 7 C 0.016846 -1.513607 1.758398 0
M  V30 8 N 0.002765 -1.148019 0.458630 0
M  V30 9 C -0.748198 -0.082267 0.045105 0
M  V30 10 N -0.762707 0.325300 -1.338323 0
M  V30 11 C 0.137470 1.384959 -1.725887 0
M  V30 12 C 0.317043 1.802670 -3.022428 0
M  V30 13 C 1.159950 2.811558 -3.405547 0
M  V30 14 N 1.860665 3.437378 -2.446824 0
M  V30 15 C 1.738424 3.084948 -1.155889 0
M  V30 16 C 0.885304 2.061138 -0.753934 0
M  V30 17 C -1.504519 0.638144 0.945509 0
M  V30 18 C -2.254174 1.719839 0.481228 0
M  V30 19 C -2.990533 2.407111 1.430077 0
M  V30 20 C -2.968947 2.025680 2.753202 0
M  V30 21 C -2.208187 0.936229 3.192472 0
M  V30 22 C -1.475578 0.247355 2.268420 0
M  V30 23 N -0.720767 -0.811572 2.639873 0
M  V30 24 N 1.531836 -3.354409 1.319144 0
M  V30 25 H 2.676147 -6.240060 0.588150 0
M  V30 26 H 2.940111 -4.769087 -0.369227 0
M  V30 27 H 4.164266 -5.199349 0.896789 0
M  V30 28 H 2.894396 -5.619408 3.312452 0
M  V30 29 H 1.601803 -4.377063 4.972254 0
M  V30 30 H 0.218820 -2.403455 4.214448 0
M  V30 31 H -1.352721 -0.049522 -2.133521 0
M  V30 32 H -0.252441 1.289351 -3.775691 0
M  V30 33 H 1.278067 3.115213 -4.434599 0
M  V30 34 H 2.278802 3.553363 -0.325861 0
M  V30 35 H 0.771590 1.763295 0.272279 0
M  V30 36 H -2.232071 1.976847 -0.578788 0
M  V30 37 H -3.582789 3.259576 1.077267 0
M  V30 38 H -3.555101 2.581152 3.471451 0
M  V30 39 H -2.171587 0.616004 4.224113 0
M  V30 END ATOM
M  V30 BEGIN BOND
M  V30 1 1 1 2
M  V30 2 2 2 3
M  V30 3 1 3 4
M  V30 4 2 4 5
M  V30 5 1 5 6
M  V30 6 1 6 7
M  V30 7 2 7 8
M  V30 8 1 8 9
M  V30 9 1 9 10
M  V30 10 1 10 11
M  V30 11 2 11 12
M  V30 12 1 12 13
M  V30 13 2 13 14
M  V30 14 1 14 15
M  V30 15 2 15 16
M  V30 16 2 9 17
M  V30 17 1 17 18
M  V30 18 2 18 19
M  V30 19 1 19 20
M  V30 20 2 20 21
M  V30 21 1 21 22
M  V30 22 2 22 23
M  V30 23 2 6 24
M  V30 24 1 24 2
M  V30 25 1 23 7
M  V30 26 1 16 11
M  V30 27 1 22 17
M  V30 28 1 1 25
M  V30 29 1 1 26
M  V30 30 1 1 27
M  V30 31 1 3 28
M  V30 32 1 4 29
M  V30 33 1 5 30
M  V30 34 1 10 31
M  V30 35 1 12 32
M  V30 36 1 13 33
M  V30 37 1 15 34
M  V30 38 1 16 35
M  V30 39 1 18 36
M  V30 40 1 19 37
M  V30 41 1 20 38
M  V30 42 1 21 39
M  V30 END BOND
M  V30 END CTAB
M  END
>  <Dataset>  (658) 
ChEMBL_Kinases

>  <Ligand_Instance>  (658) 
nan

>  <PDB_ID>  (658) 
nan

>  <Standardized_SMILES>  (658) 
Cc1cccc(-c2nc(Nc3ccncc3)c3ccccc3n2)n1

>  <Name>  (658) 
nan

>  <Pocket>  (658) 
nan

>  <ATP_Site>  (658) 
nan

>  <Peripheral>  (658) 
nan

>  <Num_H_Atoms_ProtBoundConf>  (658) 
nan

>  <Num_Resolved_Atoms>  (658) 
nan

>  <Num_Not_Resolved_Atoms>  (658) 
nan

$$$$
CHEMBL3717110
     RDKit          3D

  0  0  0  0  0  0  0  0  0  0999 V3000
M  V30 BEGIN CTAB
M  V30 COUNTS 52 56 0 0 0
M  V30 BEGIN ATOM
M  V30 1 O 1.472500 -1.695366 4.164246 0
M  V30 2 C 1.290488 -0.817471 3.288630 0
M  V30 3 N 2.313506 -0.730387 2.270929 0
M  V30 4 C 3.566903 -1.493804 2.085175 0
M  V30 5 C 4.759878 -0.589884 1.993459 0
M  V30 6 C 4.606906 0.344290 0.817676 0
M  V30 7 C 4.268259 -0.445343 -0.404777 0
M  V30 8 N 4.402361 -1.894992 -0.191395 0
M  V30 9 C 3.439035 -2.299229 0.830741 0
M  V30 10 C 0.345511 0.251880 2.884676 0
M  V30 11 C 0.569055 1.331357 3.742143 0
M  V30 12 C -0.214394 2.468127 3.467179 0
M  V30 13 C -1.090753 2.408160 2.417496 0
M  V30 14 O -1.857709 3.539679 2.157044 0
M  V30 15 C -1.288167 1.325511 1.586920 0
M  V30 16 N -2.061810 1.009442 0.508552 0
M  V30 17 C -1.752040 -0.266443 0.156611 0
M  V30 18 C -2.495597 -0.761746 -1.011299 0
M  V30 19 C -4.017256 -0.766149 -0.755158 0
M  V30 20 C -4.427853 -2.196397 -0.667066 0
M  V30 21 C -4.535232 -2.720180 -2.079215 0
M  V30 22 C -3.117298 -2.496526 -2.578737 0
M  V30 23 C -2.268547 -2.184963 -1.363996 0
M  V30 24 C -3.108231 -2.862547 -0.265624 0
M  V30 25 N -0.794249 -0.788524 0.979727 0
M  V30 26 C -0.528959 0.202369 1.843408 0
M  V30 27 H 2.375405 -0.118379 1.435233 0
M  V30 28 H 3.696712 -2.164609 2.979125 0
M  V30 29 H 4.827441 0.088444 2.891884 0
M  V30 30 H 5.671718 -1.209607 1.907314 0
M  V30 31 H 3.824245 1.101355 0.987774 0
M  V30 32 H 5.549026 0.950220 0.671100 0
M  V30 33 H 5.006076 -0.160713 -1.207679 0
M  V30 34 H 3.224251 -0.244515 -0.770302 0
M  V30 35 H 4.152209 -2.376777 -1.062966 0
M  V30 36 H 2.425796 -2.223987 0.350042 0
M  V30 37 H 3.574879 -3.375070 1.030151 0
M  V30 38 H 1.231598 1.442580 4.572111 0
M  V30 39 H -0.144912 3.378288 4.055037 0
M  V30 40 H -1.464382 4.240293 1.514873 0
M  V30 41 H -2.713653 1.735569 0.150926 0
M  V30 42 H -2.329351 -0.030890 -1.848933 0
M  V30 43 H -4.155351 -0.173563 0.167717 0
M  V30 44 H -4.519066 -0.240876 -1.617936 0
M  V30 45 H -5.249731 -2.419656 -0.021297 0
M  V30 46 H -4.728239 -3.823428 -2.025561 0
M  V30 47 H -5.303904 -2.219780 -2.672097 0
M  V30 48 H -3.152980 -1.576173 -3.177830 0
M  V30 49 H -2.730519 -3.333837 -3.163835 0
M  V30 50 H -1.259875 -2.541452 -1.399885 0
M  V30 51 H -2.783715 -2.524020 0.750468 0
M  V30 52 H -3.135646 -3.946826 -0.389090 0
M  V30 END ATOM
M  V30 BEGIN BOND
M  V30 1 2 1 2
M  V30 2 1 2 3
M  V30 3 1 3 4
M  V30 4 1 4 5
M  V30 5 1 5 6
M  V30 6 1 6 7
M  V30 7 1 7 8
M  V30 8 1 8 9
M  V30 9 1 2 10
M  V30 10 1 10 11
M  V30 11 2 11 12
M  V30 12 1 12 13
M  V30 13 1 13 14
M  V30 14 2 13 15
M  V30 15 1 15 16
M  V30 16 1 16 17
M  V30 17 1 17 18
M  V30 18 1 18 19
M  V30 19 1 19 20
M  V30 20 1 20 21
M  V30 21 1 21 22
M  V30 22 1 22 23
M  V30 23 1 23 24
M  V30 24 2 17 25
M  V30 25 1 25 26
M  V30 26 1 9 4
M  V30 27 2 26 10
M  V30 28 1 26 15
M  V30 29 1 23 18
M  V30 30 1 24 20
M  V30 31 1 3 27
M  V30 32 1 4 28
M  V30 33 1 5 29
M  V30 34 1 5 30
M  V30 35 1 6 31
M  V30 36 1 6 32
M  V30 37 1 7 33
M  V30 38 1 7 34
M  V30 39 1 8 35
M  V30 40 1 9 36
M  V30 41 1 9 37
M  V30 42 1 11 38
M  V30 43 1 12 39
M  V30 44 1 14 40
M  V30 45 1 16 41
M  V30 46 1 18 42
M  V30 47 1 19 43
M  V30 48 1 19 44
M  V30 49 1 20 45
M  V30 50 1 21 46
M  V30 51 1 21 47
M  V30 52 1 22 48
M  V30 53 1 22 49
M  V30 54 1 23 50
M  V30 55 1 24 51
M  V30 56 1 24 52
M  V30 END BOND
M  V30 END CTAB
M  END
>  <Dataset>  (659) 
ChEMBL_Kinases

>  <Ligand_Instance>  (659) 
nan

>  <PDB_ID>  (659) 
nan

>  <Standardized_SMILES>  (659) 
O=C(NC1CCCNC1)c1ccc(O)c2[nH]c(C3CC4CCC3C4)nc12

>  <Name>  (659) 
nan

>  <Pocket>  (659) 
nan

>  <ATP_Site>  (659) 
nan

>  <Peripheral>  (659) 
nan

>  <Num_H_Atoms_ProtBoundConf>  (659) 
nan

>  <Num_Resolved_Atoms>  (659) 
nan

>  <Num_Not_Resolved_Atoms>  (659) 
nan

$$$$
CHEMBL3717096
     RDKit          3D

  0  0  0  0  0  0  0  0  0  0999 V3000
M  V30 BEGIN CTAB
M  V30 COUNTS 27 28 0 0 0
M  V30 BEGIN ATOM
M  V30 1 O 1.988623 -3.660500 4.265523 0
M  V30 2 C 1.905404 -3.702368 2.999360 0
M  V30 3 O 0.563932 -3.360714 2.915692 0
M  V30 4 C 3.064437 -4.045811 2.105099 0
M  V30 5 S 2.420290 -3.963026 0.396959 0
M  V30 6 C 1.977817 -2.284928 -0.014310 0
M  V30 7 N 2.857892 -1.431650 -0.567608 0
M  V30 8 N 2.226373 -0.263168 -0.753317 0
M  V30 9 C 0.942112 -0.384448 -0.313725 0
M  V30 10 C -0.063726 0.685560 -0.350707 0
M  V30 11 C 0.264888 1.925314 -0.859072 0
M  V30 12 C -0.698602 2.934332 -0.889394 0
M  V30 13 C -1.966939 2.627550 -0.393824 0
M  V30 14 O -2.962274 3.623214 -0.409814 0
M  V30 15 C -2.287243 1.387241 0.112118 0
M  V30 16 O -3.543155 1.065985 0.608555 0
M  V30 17 C -1.327961 0.383139 0.142075 0
M  V30 18 N 0.803101 -1.644040 0.141847 0
M  V30 19 H -0.169635 -4.012434 3.110804 0
M  V30 20 H 3.849894 -3.265796 2.277339 0
M  V30 21 H 3.472041 -5.029225 2.336869 0
M  V30 22 H 1.247543 2.129746 -1.232098 0
M  V30 23 H -0.442655 3.903911 -1.286544 0
M  V30 24 H -3.148296 4.134827 0.461680 0
M  V30 25 H -3.548923 0.778988 1.598925 0
M  V30 26 H -1.517257 -0.609650 0.526258 0
M  V30 27 H -0.062023 -2.066411 0.549542 0
M  V30 END ATOM
M  V30 BEGIN BOND
M  V30 1 2 1 2
M  V30 2 1 2 3
M  V30 3 1 2 4
M  V30 4 1 4 5
M  V30 5 1 5 6
M  V30 6 2 6 7
M  V30 7 1 7 8
M  V30 8 2 8 9
M  V30 9 1 9 10
M  V30 10 2 10 11
M  V30 11 1 11 12
M  V30 12 2 12 13
M  V30 13 1 13 14
M  V30 14 1 13 15
M  V30 15 1 15 16
M  V30 16 2 15 17
M  V30 17 1 9 18
M  V30 18 1 18 6
M  V30 19 1 17 10
M  V30 20 1 3 19
M  V30 21 1 4 20
M  V30 22 1 4 21
M  V30 23 1 11 22
M  V30 24 1 12 23
M  V30 25 1 14 24
M  V30 26 1 16 25
M  V30 27 1 17 26
M  V30 28 1 18 27
M  V30 END BOND
M  V30 END CTAB
M  END
>  <Dataset>  (660) 
ChEMBL_Kinases

>  <Ligand_Instance>  (660) 
nan

>  <PDB_ID>  (660) 
nan

>  <Standardized_SMILES>  (660) 
O=C(O)CSc1nnc(-c2ccc(O)c(O)c2)[nH]1

>  <Name>  (660) 
nan

>  <Pocket>  (660) 
nan

>  <ATP_Site>  (660) 
nan

>  <Peripheral>  (660) 
nan

>  <Num_H_Atoms_ProtBoundConf>  (660) 
nan

>  <Num_Resolved_Atoms>  (660) 
nan

>  <Num_Not_Resolved_Atoms>  (660) 
nan

$$$$
CHEMBL3717030
     RDKit          3D

  0  0  0  0  0  0  0  0  0  0999 V3000
M  V30 BEGIN CTAB
M  V30 COUNTS 46 49 0 0 0
M  V30 BEGIN ATOM
M  V30 1 O 1.842663 -1.892969 3.812010 0
M  V30 2 C 1.298199 -0.800649 3.529250 0
M  V30 3 N 1.330886 -0.337885 2.162476 0
M  V30 4 C 1.975849 -1.104751 1.115413 0
M  V30 5 C 1.859699 -0.388485 -0.206762 0
M  V30 6 C 2.500658 -1.108762 -1.353910 0 CFG=2
M  V30 7 C 2.293452 -0.256445 -2.598757 0
M  V30 8 C 2.943138 -0.958086 -3.770346 0
M  V30 9 C 2.405976 -2.367733 -3.897351 0
M  V30 10 N 1.309061 -2.528445 -2.941816 0
M  V30 11 C 1.919444 -2.459472 -1.611422 0
M  V30 12 C 0.597853 0.108867 4.465517 0
M  V30 13 C 1.120048 0.650754 5.629105 0
M  V30 14 C 0.326303 1.485928 6.387712 0
M  V30 15 N -0.938232 1.773074 6.006554 0
M  V30 16 C -1.462572 1.257406 4.881630 0
M  V30 17 N -2.666520 1.376902 4.283437 0
M  V30 18 C -2.690002 0.647290 3.156101 0
M  V30 19 C -3.744033 0.492908 2.237932 0
M  V30 20 C -3.877670 -0.205207 1.090123 0
M  V30 21 C -5.008140 -0.208401 0.352445 0
M  V30 22 C -6.096627 0.617482 0.902262 0
M  V30 23 S -5.339355 1.317257 2.456758 0
M  V30 24 N -1.488475 0.061026 3.041072 0
M  V30 25 C -0.716349 0.429510 4.103397 0
M  V30 26 H 0.873947 0.586722 1.897799 0
M  V30 27 H 1.554913 -2.124403 1.000361 0
M  V30 28 H 3.066077 -1.241072 1.301644 0
M  V30 29 H 0.766023 -0.272471 -0.461704 0
M  V30 30 H 2.248884 0.645092 -0.160722 0
M  V30 31 H 3.609888 -1.127059 -1.160515 0
M  V30 32 H 2.741398 0.735260 -2.467294 0
M  V30 33 H 1.189704 -0.161883 -2.737777 0
M  V30 34 H 2.711143 -0.379361 -4.701989 0
M  V30 35 H 4.035529 -0.980636 -3.572001 0
M  V30 36 H 2.021244 -2.529120 -4.942947 0
M  V30 37 H 3.190759 -3.118356 -3.692962 0
M  V30 38 H 0.859555 -3.449409 -3.073566 0
M  V30 39 H 2.725398 -3.228090 -1.543834 0
M  V30 40 H 1.131257 -2.757738 -0.892641 0
M  V30 41 H 2.139352 0.359110 5.844470 0
M  V30 42 H 0.820474 1.858626 7.275416 0
M  V30 43 H -3.016396 -0.778540 0.776770 0
M  V30 44 H -5.165385 -0.747803 -0.568125 0
M  V30 45 H -7.118805 0.643202 0.278070 0
M  V30 46 H -1.191917 -0.579656 2.256618 0
M  V30 END ATOM
M  V30 BEGIN BOND
M  V30 1 2 1 2
M  V30 2 1 2 3
M  V30 3 1 3 4
M  V30 4 1 4 5
M  V30 5 1 5 6
M  V30 6 1 6 7
M  V30 7 1 7 8
M  V30 8 1 8 9
M  V30 9 1 9 10
M  V30 10 1 10 11
M  V30 11 1 2 12
M  V30 12 2 12 13
M  V30 13 1 13 14
M  V30 14 2 14 15
M  V30 15 1 15 16
M  V30 16 1 16 17
M  V30 17 2 17 18
M  V30 18 1 18 19
M  V30 19 2 19 20
M  V30 20 1 20 21
M  V30 21 2 21 22
M  V30 22 1 22 23
M  V30 23 1 18 24
M  V30 24 1 24 25
M  V30 25 1 11 6
M  V30 26 1 25 12
M  V30 27 2 25 16
M  V30 28 1 23 19
M  V30 29 1 3 26
M  V30 30 1 4 27
M  V30 31 1 4 28
M  V30 32 1 5 29
M  V30 33 1 5 30
M  V30 34 1 6 31 CFG=1
M  V30 35 1 7 32
M  V30 36 1 7 33
M  V30 37 1 8 34
M  V30 38 1 8 35
M  V30 39 1 9 36
M  V30 40 1 9 37
M  V30 41 1 10 38
M  V30 42 1 11 39
M  V30 43 1 11 40
M  V30 44 1 13 41
M  V30 45 1 14 42
M  V30 46 1 20 43
M  V30 47 1 21 44
M  V30 48 1 22 45
M  V30 49 1 24 46
M  V30 END BOND
M  V30 END CTAB
M  END
>  <Dataset>  (661) 
ChEMBL_Kinases

>  <Ligand_Instance>  (661) 
nan

>  <PDB_ID>  (661) 
nan

>  <Standardized_SMILES>  (661) 
O=C(NCC[C@@H]1CCCNC1)c1ccnc2nc(-c3cccs3)[nH]c12

>  <Name>  (661) 
nan

>  <Pocket>  (661) 
nan

>  <ATP_Site>  (661) 
nan

>  <Peripheral>  (661) 
nan

>  <Num_H_Atoms_ProtBoundConf>  (661) 
nan

>  <Num_Resolved_Atoms>  (661) 
nan

>  <Num_Not_Resolved_Atoms>  (661) 
nan

$$$$
CHEMBL3717092
     RDKit          3D

  0  0  0  0  0  0  0  0  0  0999 V3000
M  V30 BEGIN CTAB
M  V30 COUNTS 34 36 0 0 0
M  V30 BEGIN ATOM
M  V30 1 N -3.233906 -3.630245 3.262631 0
M  V30 2 C -2.042633 -3.465798 2.507612 0
M  V30 3 C -1.102211 -2.563717 2.957744 0
M  V30 4 C 0.081988 -2.332119 2.299468 0
M  V30 5 C 0.380117 -3.005370 1.141971 0
M  V30 6 C 1.546113 -2.947834 0.239129 0
M  V30 7 C 1.361709 -1.990406 -0.905801 0
M  V30 8 C 1.142944 -0.606115 -0.426467 0
M  V30 9 N 0.977992 0.221011 -1.502934 0
M  V30 10 C 0.777968 1.484115 -1.091191 0
M  V30 11 C 0.555710 2.739146 -1.613839 0
M  V30 12 C 0.389070 3.860989 -0.811691 0
M  V30 13 N 0.162488 5.125239 -1.444876 0
M  V30 14 C 0.445466 3.730463 0.561452 0
M  V30 15 C 0.667826 2.485597 1.155216 0
M  V30 16 C 0.822030 1.427876 0.283584 0
M  V30 17 O 1.038094 0.180781 0.613164 0
M  V30 18 C -0.568656 -3.918318 0.684363 0
M  V30 19 C -1.757121 -4.148922 1.347842 0
M  V30 20 H -3.902610 -2.827515 3.194348 0
M  V30 21 H -3.162682 -4.561538 3.734932 0
M  V30 22 H -1.258421 -1.991306 3.861412 0
M  V30 23 H 0.865429 -1.650129 2.595039 0
M  V30 24 H 2.383003 -2.506321 0.856891 0
M  V30 25 H 1.837994 -3.941823 -0.145160 0
M  V30 26 H 0.486519 -2.371904 -1.486142 0
M  V30 27 H 2.234009 -2.083169 -1.586927 0
M  V30 28 H 0.518584 2.795569 -2.712469 0
M  V30 29 H -0.581577 5.527194 -2.057893 0
M  V30 30 H 0.905693 5.844485 -1.270830 0
M  V30 31 H 0.315839 4.603120 1.185319 0
M  V30 32 H 0.716083 2.358390 2.227759 0
M  V30 33 H -0.489193 -4.538419 -0.220856 0
M  V30 34 H -2.515263 -4.846492 1.025443 0
M  V30 END ATOM
M  V30 BEGIN BOND
M  V30 1 1 1 2
M  V30 2 2 2 3
M  V30 3 1 3 4
M  V30 4 2 4 5
M  V30 5 1 5 6
M  V30 6 1 6 7
M  V30 7 1 7 8
M  V30 8 2 8 9
M  V30 9 1 9 10
M  V30 10 2 10 11
M  V30 11 1 11 12
M  V30 12 1 12 13
M  V30 13 2 12 14
M  V30 14 1 14 15
M  V30 15 2 15 16
M  V30 16 1 16 17
M  V30 17 1 5 18
M  V30 18 2 18 19
M  V30 19 1 19 2
M  V30 20 1 17 8
M  V30 21 1 16 10
M  V30 22 1 1 20
M  V30 23 1 1 21
M  V30 24 1 3 22
M  V30 25 1 4 23
M  V30 26 1 6 24
M  V30 27 1 6 25
M  V30 28 1 7 26
M  V30 29 1 7 27
M  V30 30 1 11 28
M  V30 31 1 13 29
M  V30 32 1 13 30
M  V30 33 1 14 31
M  V30 34 1 15 32
M  V30 35 1 18 33
M  V30 36 1 19 34
M  V30 END BOND
M  V30 END CTAB
M  END
>  <Dataset>  (662) 
ChEMBL_Kinases

>  <Ligand_Instance>  (662) 
nan

>  <PDB_ID>  (662) 
nan

>  <Standardized_SMILES>  (662) 
Nc1ccc(CCc2nc3cc(N)ccc3o2)cc1

>  <Name>  (662) 
nan

>  <Pocket>  (662) 
nan

>  <ATP_Site>  (662) 
nan

>  <Peripheral>  (662) 
nan

>  <Num_H_Atoms_ProtBoundConf>  (662) 
nan

>  <Num_Resolved_Atoms>  (662) 
nan

>  <Num_Not_Resolved_Atoms>  (662) 
nan

$$$$
CHEMBL3715109
     RDKit          3D

  0  0  0  0  0  0  0  0  0  0999 V3000
M  V30 BEGIN CTAB
M  V30 COUNTS 51 54 0 0 0
M  V30 BEGIN ATOM
M  V30 1 C 1.758413 -4.706337 1.065422 0
M  V30 2 C 2.656037 -3.630956 0.494685 0
M  V30 3 O 2.492017 -2.448918 1.271942 0
M  V30 4 C 2.768360 -2.414630 2.623958 0
M  V30 5 O 3.180400 -3.408146 3.266470 0
M  V30 6 C 2.566190 -1.145903 3.336500 0
M  V30 7 C 2.117152 -0.017102 2.700403 0
M  V30 8 C 1.901069 1.207407 3.292879 0
M  V30 9 N 1.433959 2.359651 2.609147 0
M  V30 10 C 1.118023 2.409107 1.201018 0
M  V30 11 C 2.353848 2.049654 0.406463 0
M  V30 12 C 0.699920 3.814593 0.829417 0
M  V30 13 C 0.060174 1.418020 0.916671 0
M  V30 14 O -0.703218 0.528512 1.433230 0
M  V30 15 N -0.278465 1.414664 -0.476007 0
M  V30 16 C -1.301878 0.499723 -0.937066 0
M  V30 17 N -2.537612 0.609261 -1.051093 0
M  V30 18 C -3.291128 -0.362789 -1.498522 0
M  V30 19 C -4.661237 -0.277824 -1.638044 0
M  V30 20 C -5.392237 -1.336821 -2.114159 0
M  V30 21 C -4.847810 -2.559120 -2.490999 0
M  V30 22 N -5.224402 -3.753228 -2.972192 0
M  V30 23 N -4.152421 -4.509700 -3.113962 0
M  V30 24 C -3.030867 -3.865302 -2.740019 0
M  V30 25 C -3.488534 -2.647910 -2.354166 0
M  V30 26 C -2.710797 -1.538240 -1.853846 0
M  V30 27 S -1.016547 -1.298765 -1.555849 0
M  V30 28 C 2.179903 1.229902 4.641634 0
M  V30 29 C 2.634048 0.138392 5.350691 0
M  V30 30 C 2.832604 -1.067255 4.700354 0
M  V30 31 Cl 3.407594 -2.454218 5.591458 0
M  V30 32 H 1.214044 -5.224175 0.229200 0
M  V30 33 H 0.990684 -4.247293 1.720373 0
M  V30 34 H 2.346035 -5.482740 1.586409 0
M  V30 35 H 2.358931 -3.441995 -0.543539 0
M  V30 36 H 3.716871 -3.970358 0.539485 0
M  V30 37 H 1.932863 -0.146144 1.653869 0
M  V30 38 H 1.316019 3.232845 3.192028 0
M  V30 39 H 2.190806 1.207145 -0.297674 0
M  V30 40 H 2.657419 2.910764 -0.260076 0
M  V30 41 H 3.221785 1.770444 1.040527 0
M  V30 42 H 1.257327 4.150905 -0.076296 0
M  V30 43 H -0.377366 3.904169 0.582412 0
M  V30 44 H 0.955912 4.506914 1.650991 0
M  V30 45 H 0.050800 1.946697 -1.311550 0
M  V30 46 H -5.269894 0.589112 -1.398390 0
M  V30 47 H -6.488177 -1.293355 -2.234664 0
M  V30 48 H -6.229634 -3.960162 -3.172505 0
M  V30 49 H -1.997751 -4.181696 -2.726521 0
M  V30 50 H 2.038125 2.156683 5.193356 0
M  V30 51 H 2.840345 0.209816 6.420809 0
M  V30 END ATOM
M  V30 BEGIN BOND
M  V30 1 1 1 2
M  V30 2 1 2 3
M  V30 3 1 3 4
M  V30 4 2 4 5
M  V30 5 1 4 6
M  V30 6 2 6 7
M  V30 7 1 7 8
M  V30 8 1 8 9
M  V30 9 1 9 10
M  V30 10 1 10 11
M  V30 11 1 10 12
M  V30 12 1 10 13
M  V30 13 2 13 14
M  V30 14 1 13 15
M  V30 15 1 15 16
M  V30 16 2 16 17
M  V30 17 1 17 18
M  V30 18 2 18 19
M  V30 19 1 19 20
M  V30 20 2 20 21
M  V30 21 1 21 22
M  V30 22 1 22 23
M  V30 23 2 23 24
M  V30 24 1 24 25
M  V30 25 2 25 26
M  V30 26 1 26 27
M  V30 27 2 8 28
M  V30 28 1 28 29
M  V30 29 2 29 30
M  V30 30 1 30 31
M  V30 31 1 30 6
M  V30 32 1 27 16
M  V30 33 1 26 18
M  V30 34 1 25 21
M  V30 35 1 1 32
M  V30 36 1 1 33
M  V30 37 1 1 34
M  V30 38 1 2 35
M  V30 39 1 2 36
M  V30 40 1 7 37
M  V30 41 1 9 38
M  V30 42 1 11 39
M  V30 43 1 11 40
M  V30 44 1 11 41
M  V30 45 1 12 42
M  V30 46 1 12 43
M  V30 47 1 12 44
M  V30 48 1 15 45
M  V30 49 1 19 46
M  V30 50 1 20 47
M  V30 51 1 22 48
M  V30 52 1 24 49
M  V30 53 1 28 50
M  V30 54 1 29 51
M  V30 END BOND
M  V30 END CTAB
M  END
>  <Dataset>  (663) 
ChEMBL_Kinases

>  <Ligand_Instance>  (663) 
nan

>  <PDB_ID>  (663) 
nan

>  <Standardized_SMILES>  (663) 
CCOC(=O)c1cc(NC(C)(C)C(=O)Nc2nc3ccc4[nH]ncc4c3s2)ccc1Cl

>  <Name>  (663) 
nan

>  <Pocket>  (663) 
nan

>  <ATP_Site>  (663) 
nan

>  <Peripheral>  (663) 
nan

>  <Num_H_Atoms_ProtBoundConf>  (663) 
nan

>  <Num_Resolved_Atoms>  (663) 
nan

>  <Num_Not_Resolved_Atoms>  (663) 
nan

$$$$
CHEMBL3717080
     RDKit          3D

  0  0  0  0  0  0  0  0  0  0999 V3000
M  V30 BEGIN CTAB
M  V30 COUNTS 29 32 0 0 0
M  V30 BEGIN ATOM
M  V30 1 N 3.932008 -3.105035 0.754464 0
M  V30 2 C 2.558627 -2.753565 0.823375 0
M  V30 3 C 1.572571 -3.720905 1.065964 0
M  V30 4 C 0.215042 -3.380810 1.137082 0
M  V30 5 C -0.160241 -2.068682 0.962387 0
M  V30 6 C 0.860830 -1.183270 0.723094 0
M  V30 7 C 2.198898 -1.409725 0.643395 0
M  V30 8 C 2.944431 -0.137815 0.518011 0
M  V30 9 O 4.187868 -0.044779 0.416836 0
M  V30 10 O 1.902672 0.830862 0.547084 0
M  V30 11 C 0.699278 0.211065 0.284959 0
M  V30 12 O 0.607336 0.048396 -1.175157 0
M  V30 13 C -0.543418 0.848066 0.712080 0
M  V30 14 C -0.696383 2.213479 0.740728 0
M  V30 15 C -1.969433 2.707879 1.040473 0
M  V30 16 C -3.027361 1.828618 1.296808 0
M  V30 17 C -2.849504 0.440173 1.264552 0
M  V30 18 C -1.565694 -0.039749 0.964490 0
M  V30 19 C -1.492497 -1.490458 1.100235 0
M  V30 20 O -2.411497 -2.282453 1.315656 0
M  V30 21 H 4.723934 -3.541093 0.245491 0
M  V30 22 H 4.358139 -2.760604 1.644774 0
M  V30 23 H 1.841084 -4.764492 1.205486 0
M  V30 24 H -0.586599 -4.073493 1.321868 0
M  V30 25 H 0.067810 0.792406 -1.498877 0
M  V30 26 H 0.163704 2.826009 0.532884 0
M  V30 27 H -2.103093 3.780843 1.066218 0
M  V30 28 H -3.966069 2.310019 1.515368 0
M  V30 29 H -3.739547 -0.133289 1.478964 0
M  V30 END ATOM
M  V30 BEGIN BOND
M  V30 1 1 1 2
M  V30 2 2 2 3
M  V30 3 1 3 4
M  V30 4 2 4 5
M  V30 5 1 5 6
M  V30 6 2 6 7
M  V30 7 1 7 8
M  V30 8 2 8 9
M  V30 9 1 8 10
M  V30 10 1 10 11
M  V30 11 1 11 12
M  V30 12 1 11 13
M  V30 13 2 13 14
M  V30 14 1 14 15
M  V30 15 2 15 16
M  V30 16 1 16 17
M  V30 17 2 17 18
M  V30 18 1 18 19
M  V30 19 2 19 20
M  V30 20 1 7 2
M  V30 21 1 18 13
M  V30 22 1 19 5
M  V30 23 1 11 6
M  V30 24 1 1 21
M  V30 25 1 1 22
M  V30 26 1 3 23
M  V30 27 1 4 24
M  V30 28 1 12 25
M  V30 29 1 14 26
M  V30 30 1 15 27
M  V30 31 1 16 28
M  V30 32 1 17 29
M  V30 END BOND
M  V30 END CTAB
M  END
>  <Dataset>  (664) 
ChEMBL_Kinases

>  <Ligand_Instance>  (664) 
nan

>  <PDB_ID>  (664) 
nan

>  <Standardized_SMILES>  (664) 
Nc1ccc2c3c1C(=O)OC3(O)c1ccccc1C2=O

>  <Name>  (664) 
nan

>  <Pocket>  (664) 
nan

>  <ATP_Site>  (664) 
nan

>  <Peripheral>  (664) 
nan

>  <Num_H_Atoms_ProtBoundConf>  (664) 
nan

>  <Num_Resolved_Atoms>  (664) 
nan

>  <Num_Not_Resolved_Atoms>  (664) 
nan

$$$$
CHEMBL3717077
     RDKit          3D

  0  0  0  0  0  0  0  0  0  0999 V3000
M  V30 BEGIN CTAB
M  V30 COUNTS 47 51 0 0 0
M  V30 BEGIN ATOM
M  V30 1 C 1.056280 -3.283047 2.843408 0
M  V30 2 N -0.078927 -3.184546 1.953299 0
M  V30 3 C -0.289199 -2.019994 1.343176 0
M  V30 4 N 0.477099 -0.822462 1.376311 0
M  V30 5 C -0.089598 0.396864 0.765938 0
M  V30 6 C 0.658697 0.678951 -0.493305 0
M  V30 7 O 1.985401 0.253211 -0.430778 0
M  V30 8 C 2.529141 0.438320 0.824520 0 CFG=1
M  V30 9 C 2.632772 1.891210 1.088835 0
M  V30 10 C 3.367377 2.504645 0.065539 0
M  V30 11 C 3.598629 3.883502 0.108951 0
M  V30 12 C 3.090394 4.602911 1.169668 0
M  V30 13 C 2.368383 4.007691 2.177801 0
M  V30 14 C 2.142510 2.650692 2.131471 0
M  V30 15 O 1.460154 1.799030 2.993081 0
M  V30 16 C 1.661775 0.430361 3.123399 0
M  V30 17 C 1.755785 -0.341228 1.832862 0 CFG=1
M  V30 18 N -1.367936 -1.977281 0.549600 0
M  V30 19 C -2.222154 -2.971971 0.324883 0
M  V30 20 C -3.365339 -2.804313 -0.565745 0
M  V30 21 C -3.553028 -1.584451 -1.179849 0
M  V30 22 C -4.621969 -1.396206 -2.028008 0
M  V30 23 N -5.495018 -2.397333 -2.268181 0
M  V30 24 C -5.272563 -3.582453 -1.642082 0
M  V30 25 N -4.218973 -3.791488 -0.796778 0
M  V30 26 C -1.930204 -4.134368 0.991690 0
M  V30 27 C -0.848035 -4.276168 1.827549 0
M  V30 28 O -0.563998 -5.332270 2.446961 0
M  V30 29 H 1.073821 -2.414858 3.504916 0
M  V30 30 H 0.906474 -4.157756 3.536958 0
M  V30 31 H 1.947003 -3.477868 2.234312 0
M  V30 32 H -1.149840 0.154382 0.431410 0
M  V30 33 H -0.218094 1.216176 1.462360 0
M  V30 34 H 0.219891 0.136699 -1.354924 0
M  V30 35 H 0.670420 1.763121 -0.789176 0
M  V30 36 H 3.580730 0.064697 0.762690 0
M  V30 37 H 3.809752 2.044970 -0.807547 0
M  V30 38 H 4.166076 4.414190 -0.664313 0
M  V30 39 H 3.227201 5.677501 1.275354 0
M  V30 40 H 1.919668 4.452169 3.053776 0
M  V30 41 H 0.872964 0.044897 3.795807 0
M  V30 42 H 2.615328 0.293824 3.671086 0
M  V30 43 H 2.421807 -1.226561 2.079184 0
M  V30 44 H -2.908638 -0.715679 -1.053503 0
M  V30 45 H -4.866593 -0.478776 -2.565429 0
M  V30 46 H -5.991404 -4.380207 -1.849979 0
M  V30 47 H -2.573939 -4.993000 0.864396 0
M  V30 END ATOM
M  V30 BEGIN BOND
M  V30 1 1 1 2
M  V30 2 1 2 3
M  V30 3 1 3 4
M  V30 4 1 4 5
M  V30 5 1 5 6
M  V30 6 1 6 7
M  V30 7 1 7 8
M  V30 8 1 8 9
M  V30 9 2 9 10
M  V30 10 1 10 11
M  V30 11 2 11 12
M  V30 12 1 12 13
M  V30 13 2 13 14
M  V30 14 1 14 15
M  V30 15 1 15 16
M  V30 16 1 16 17
M  V30 17 2 3 18
M  V30 18 1 18 19
M  V30 19 1 19 20
M  V30 20 2 20 21
M  V30 21 1 21 22
M  V30 22 2 22 23
M  V30 23 1 23 24
M  V30 24 2 24 25
M  V30 25 2 19 26
M  V30 26 1 26 27
M  V30 27 2 27 28
M  V30 28 1 27 2
M  V30 29 1 17 4
M  V30 30 1 25 20
M  V30 31 1 17 8
M  V30 32 1 14 9
M  V30 33 1 1 29
M  V30 34 1 1 30
M  V30 35 1 1 31
M  V30 36 1 5 32
M  V30 37 1 5 33
M  V30 38 1 6 34
M  V30 39 1 6 35
M  V30 40 1 8 36 CFG=3
M  V30 41 1 10 37
M  V30 42 1 11 38
M  V30 43 1 12 39
M  V30 44 1 13 40
M  V30 45 1 16 41
M  V30 46 1 16 42
M  V30 47 1 17 43 CFG=1
M  V30 48 1 21 44
M  V30 49 1 22 45
M  V30 50 1 24 46
M  V30 51 1 26 47
M  V30 END BOND
M  V30 END CTAB
M  END
>  <Dataset>  (665) 
ChEMBL_Kinases

>  <Ligand_Instance>  (665) 
nan

>  <PDB_ID>  (665) 
nan

>  <Standardized_SMILES>  (665) 
Cn1c(N2CCO[C@H]3c4ccccc4OC[C@H]32)nc(-c2ccncn2)cc1=O

>  <Name>  (665) 
nan

>  <Pocket>  (665) 
nan

>  <ATP_Site>  (665) 
nan

>  <Peripheral>  (665) 
nan

>  <Num_H_Atoms_ProtBoundConf>  (665) 
nan

>  <Num_Resolved_Atoms>  (665) 
nan

>  <Num_Not_Resolved_Atoms>  (665) 
nan

$$$$
CHEMBL3715121
     RDKit          3D

  0  0  0  0  0  0  0  0  0  0999 V3000
M  V30 BEGIN CTAB
M  V30 COUNTS 43 46 0 0 0
M  V30 BEGIN ATOM
M  V30 1 O 3.136477 0.214406 1.485251 0
M  V30 2 C 2.158163 -0.365362 1.973549 0
M  V30 3 N 1.844779 -1.657157 1.505188 0
M  V30 4 C 2.271243 -2.634007 0.589131 0
M  V30 5 C 2.254639 -2.328113 -0.874191 0 CFG=2
M  V30 6 C 3.078656 -1.210008 -1.364272 0
M  V30 7 C 2.389770 0.055902 -1.728544 0
M  V30 8 C 1.132758 -0.254361 -2.560143 0
M  V30 9 N 0.291777 -1.002685 -1.609240 0
M  V30 10 C 0.848187 -2.302964 -1.431238 0
M  V30 11 C 1.472041 0.421146 2.991062 0
M  V30 12 C 2.154203 1.071901 3.995388 0
M  V30 13 C 1.428624 1.797464 4.939606 0
M  V30 14 N 0.083308 1.819606 4.812007 0
M  V30 15 C -0.583333 1.184529 3.831925 0
M  V30 16 N -1.928337 1.145878 3.620422 0
M  V30 17 C -2.093866 0.382218 2.516444 0
M  V30 18 C -3.426690 0.079491 1.944454 0
M  V30 19 C -3.537073 -1.311315 1.289521 0
M  V30 20 C -3.618864 -0.028846 0.479860 0
M  V30 21 N -0.875229 -0.034980 2.067355 0
M  V30 22 C 0.099456 0.443506 2.860335 0
M  V30 23 H 0.976165 -1.925121 2.086991 0
M  V30 24 H 3.305635 -2.976937 0.909950 0
M  V30 25 H 1.654494 -3.547117 0.741782 0
M  V30 26 H 2.696889 -3.281325 -1.338064 0
M  V30 27 H 3.561945 -1.557774 -2.346698 0
M  V30 28 H 3.970779 -0.974289 -0.748047 0
M  V30 29 H 3.103511 0.678274 -2.317237 0
M  V30 30 H 2.033021 0.688383 -0.920174 0
M  V30 31 H 0.664542 0.726635 -2.776016 0
M  V30 32 H 1.355565 -0.844664 -3.447777 0
M  V30 33 H -0.642170 -1.087643 -2.013407 0
M  V30 34 H 0.862726 -2.798027 -2.417674 0
M  V30 35 H 0.162693 -2.885194 -0.780723 0
M  V30 36 H 3.229217 0.982043 3.996316 0
M  V30 37 H 1.950551 2.305145 5.722403 0
M  V30 38 H -2.656431 1.613992 4.202145 0
M  V30 39 H -4.264065 0.410025 2.554747 0
M  V30 40 H -2.584412 -1.863846 1.081402 0
M  V30 41 H -4.445650 -1.889480 1.510999 0
M  V30 42 H -2.866240 0.202701 -0.269229 0
M  V30 43 H -4.674487 0.158589 0.123232 0
M  V30 END ATOM
M  V30 BEGIN BOND
M  V30 1 2 1 2
M  V30 2 1 2 3
M  V30 3 1 3 4
M  V30 4 1 4 5
M  V30 5 1 5 6
M  V30 6 1 6 7
M  V30 7 1 7 8
M  V30 8 1 8 9
M  V30 9 1 9 10
M  V30 10 1 2 11
M  V30 11 2 11 12
M  V30 12 1 12 13
M  V30 13 2 13 14
M  V30 14 1 14 15
M  V30 15 1 15 16
M  V30 16 1 16 17
M  V30 17 1 17 18
M  V30 18 1 18 19
M  V30 19 1 19 20
M  V30 20 2 17 21
M  V30 21 1 21 22
M  V30 22 1 10 5
M  V30 23 1 22 11
M  V30 24 2 22 15
M  V30 25 1 20 18
M  V30 26 1 3 23
M  V30 27 1 4 24
M  V30 28 1 4 25
M  V30 29 1 5 26 CFG=3
M  V30 30 1 6 27
M  V30 31 1 6 28
M  V30 32 1 7 29
M  V30 33 1 7 30
M  V30 34 1 8 31
M  V30 35 1 8 32
M  V30 36 1 9 33
M  V30 37 1 10 34
M  V30 38 1 10 35
M  V30 39 1 12 36
M  V30 40 1 13 37
M  V30 41 1 16 38
M  V30 42 1 18 39
M  V30 43 1 19 40
M  V30 44 1 19 41
M  V30 45 1 20 42
M  V30 46 1 20 43
M  V30 END BOND
M  V30 END CTAB
M  END
>  <Dataset>  (666) 
ChEMBL_Kinases

>  <Ligand_Instance>  (666) 
nan

>  <PDB_ID>  (666) 
nan

>  <Standardized_SMILES>  (666) 
O=C(NC[C@@H]1CCCNC1)c1ccnc2[nH]c(C3CC3)nc12

>  <Name>  (666) 
nan

>  <Pocket>  (666) 
nan

>  <ATP_Site>  (666) 
nan

>  <Peripheral>  (666) 
nan

>  <Num_H_Atoms_ProtBoundConf>  (666) 
nan

>  <Num_Resolved_Atoms>  (666) 
nan

>  <Num_Not_Resolved_Atoms>  (666) 
nan

$$$$
CHEMBL3717069
     RDKit          3D

  0  0  0  0  0  0  0  0  0  0999 V3000
M  V30 BEGIN CTAB
M  V30 COUNTS 36 37 0 0 0
M  V30 BEGIN ATOM
M  V30 1 C -1.305326 -1.761322 3.877587 0
M  V30 2 C -0.439336 -2.342420 2.792139 0
M  V30 3 C -0.097329 -3.678906 2.833932 0
M  V30 4 C 0.701498 -4.196578 1.825085 0
M  V30 5 C 1.105569 -3.331606 0.835944 0
M  V30 6 N 1.929851 -3.968396 -0.161616 0 CHG=1 VAL=4
M  V30 7 O 2.155556 -3.857156 -1.380501 0
M  V30 8 O 2.753761 -5.011249 0.186700 0 CHG=-1 VAL=1
M  V30 9 C 0.750530 -1.991447 0.812638 0
M  V30 10 N 1.231595 -1.194107 -0.265558 0
M  V30 11 C 0.883791 0.188498 -0.317975 0 CFG=2
M  V30 12 O -0.504441 0.422929 -0.387086 0
M  V30 13 C -0.499909 1.821979 -0.426566 0 CFG=2
M  V30 14 C -1.882628 2.379317 -0.655867 0
M  V30 15 O -2.748235 1.988917 0.362143 0
M  V30 16 C 0.426318 2.094783 -1.582644 0 CFG=1
M  V30 17 O 1.048277 3.321561 -1.343834 0
M  V30 18 C 1.401311 0.928126 -1.494545 0 CFG=1
M  V30 19 O 2.654336 1.441773 -1.187030 0
M  V30 20 C -0.037382 -1.457671 1.797895 0
M  V30 21 H -0.728389 -0.963446 4.396870 0
M  V30 22 H -1.622330 -2.534398 4.595993 0
M  V30 23 H -2.155375 -1.267449 3.347741 0
M  V30 24 H -0.487299 -4.248611 3.675913 0
M  V30 25 H 0.942497 -5.239203 1.897404 0
M  V30 26 H 1.822398 -1.574474 -1.012206 0
M  V30 27 H 1.220584 0.729719 0.607412 0
M  V30 28 H -0.039013 2.177506 0.494126 0
M  V30 29 H -2.248792 2.175541 -1.666299 0
M  V30 30 H -1.807080 3.485497 -0.574534 0
M  V30 31 H -2.301726 1.273497 0.871457 0
M  V30 32 H -0.083607 2.112381 -2.566644 0
M  V30 33 H 2.014946 3.258692 -1.201083 0
M  V30 34 H 1.402080 0.343615 -2.435303 0
M  V30 35 H 3.083748 0.779030 -0.563901 0
M  V30 36 H -0.326784 -0.431795 1.807195 0
M  V30 END ATOM
M  V30 BEGIN BOND
M  V30 1 1 1 2
M  V30 2 2 2 3
M  V30 3 1 3 4
M  V30 4 2 4 5
M  V30 5 1 5 6
M  V30 6 2 6 7
M  V30 7 1 6 8
M  V30 8 1 5 9
M  V30 9 1 9 10
M  V30 10 1 10 11
M  V30 11 1 11 12
M  V30 12 1 12 13
M  V30 13 1 13 14
M  V30 14 1 14 15
M  V30 15 1 13 16
M  V30 16 1 16 17
M  V30 17 1 16 18
M  V30 18 1 18 19
M  V30 19 2 9 20
M  V30 20 1 20 2
M  V30 21 1 18 11
M  V30 22 1 1 21
M  V30 23 1 1 22
M  V30 24 1 1 23
M  V30 25 1 3 24
M  V30 26 1 4 25
M  V30 27 1 10 26
M  V30 28 1 11 27 CFG=1
M  V30 29 1 13 28 CFG=1
M  V30 30 1 14 29
M  V30 31 1 14 30
M  V30 32 1 15 31
M  V30 33 1 16 32 CFG=3
M  V30 34 1 17 33
M  V30 35 1 18 34 CFG=3
M  V30 36 1 19 35
M  V30 37 1 20 36
M  V30 END BOND
M  V30 END CTAB
M  END
>  <Dataset>  (667) 
ChEMBL_Kinases

>  <Ligand_Instance>  (667) 
nan

>  <PDB_ID>  (667) 
nan

>  <Standardized_SMILES>  (667) 
Cc1ccc([N+](=O)[O-])c(N[C@@H]2O[C@H](CO)[C@@H](O)[C@H]2O)c1

>  <Name>  (667) 
nan

>  <Pocket>  (667) 
nan

>  <ATP_Site>  (667) 
nan

>  <Peripheral>  (667) 
nan

>  <Num_H_Atoms_ProtBoundConf>  (667) 
nan

>  <Num_Resolved_Atoms>  (667) 
nan

>  <Num_Not_Resolved_Atoms>  (667) 
nan

$$$$
CHEMBL3715130
     RDKit          3D

  0  0  0  0  0  0  0  0  0  0999 V3000
M  V30 BEGIN CTAB
M  V30 COUNTS 41 43 0 0 0
M  V30 BEGIN ATOM
M  V30 1 C 0.389888 -5.969974 1.836733 0
M  V30 2 C 0.853726 -5.342952 0.577648 0
M  V30 3 C 0.774860 -6.045881 -0.628619 0
M  V30 4 C 1.207017 -5.475542 -1.809275 0
M  V30 5 C 1.717700 -4.211822 -1.810107 0
M  V30 6 C 1.825241 -3.461197 -0.659258 0
M  V30 7 O 2.294032 -2.197174 -0.417397 0
M  V30 8 C 1.577750 -1.029517 -0.377411 0
M  V30 9 C 1.696050 -0.442294 0.895963 0
M  V30 10 C 1.031671 0.765692 1.142280 0
M  V30 11 C 0.264215 1.406222 0.185597 0
M  V30 12 C -0.413821 2.665989 0.468998 0
M  V30 13 N -1.168588 3.399945 -0.364379 0
M  V30 14 N -1.610535 4.485572 0.255187 0
M  V30 15 C -1.151121 4.491752 1.521969 0
M  V30 16 S -1.417318 5.701548 2.828877 0
M  V30 17 C -0.520580 5.087659 4.301264 0
M  V30 18 C -1.114102 3.841479 4.835965 0
M  V30 19 O -0.709546 3.171800 5.835907 0
M  V30 20 O -2.193425 3.043024 4.492557 0
M  V30 21 N -0.425307 3.366587 1.617575 0
M  V30 22 C 0.126084 0.859787 -1.074130 0
M  V30 23 C 0.800846 -0.317291 -1.239867 0
M  V30 24 N 0.721679 -0.957882 -2.498271 0 CHG=1 VAL=4
M  V30 25 O -0.024641 -1.095260 -3.509084 0
M  V30 26 O 0.657075 -1.570650 -3.691902 0 CHG=-1 VAL=1
M  V30 27 C 1.383524 -4.058447 0.519694 0
M  V30 28 H 1.222705 -5.974406 2.590819 0
M  V30 29 H -0.511163 -5.479295 2.231701 0
M  V30 30 H 0.149883 -7.032376 1.631201 0
M  V30 31 H 0.372505 -7.048724 -0.665513 0
M  V30 32 H 1.184419 -5.956524 -2.793069 0
M  V30 33 H 2.085297 -3.670314 -2.673337 0
M  V30 34 H 2.252745 -0.806363 1.748434 0
M  V30 35 H 1.079652 1.263931 2.094154 0
M  V30 36 H -0.385105 5.879514 5.057083 0
M  V30 37 H 0.515596 4.793686 3.961790 0
M  V30 38 H -2.045618 2.127362 4.042856 0
M  V30 39 H 0.097311 3.029561 2.481862 0
M  V30 40 H -0.442546 1.267584 -1.891952 0
M  V30 41 H 1.404780 -3.600858 1.502537 0
M  V30 END ATOM
M  V30 BEGIN BOND
M  V30 1 1 1 2
M  V30 2 2 2 3
M  V30 3 1 3 4
M  V30 4 2 4 5
M  V30 5 1 5 6
M  V30 6 1 6 7
M  V30 7 1 7 8
M  V30 8 2 8 9
M  V30 9 1 9 10
M  V30 10 2 10 11
M  V30 11 1 11 12
M  V30 12 2 12 13
M  V30 13 1 13 14
M  V30 14 2 14 15
M  V30 15 1 15 16
M  V30 16 1 16 17
M  V30 17 1 17 18
M  V30 18 2 18 19
M  V30 19 1 18 20
M  V30 20 1 15 21
M  V30 21 1 11 22
M  V30 22 2 22 23
M  V30 23 1 23 24
M  V30 24 2 24 25
M  V30 25 1 24 26
M  V30 26 2 6 27
M  V30 27 1 27 2
M  V30 28 1 23 8
M  V30 29 1 21 12
M  V30 30 1 1 28
M  V30 31 1 1 29
M  V30 32 1 1 30
M  V30 33 1 3 31
M  V30 34 1 4 32
M  V30 35 1 5 33
M  V30 36 1 9 34
M  V30 37 1 10 35
M  V30 38 1 17 36
M  V30 39 1 17 37
M  V30 40 1 20 38
M  V30 41 1 21 39
M  V30 42 1 22 40
M  V30 43 1 27 41
M  V30 END BOND
M  V30 END CTAB
M  END
>  <Dataset>  (668) 
ChEMBL_Kinases

>  <Ligand_Instance>  (668) 
nan

>  <PDB_ID>  (668) 
nan

>  <Standardized_SMILES>  (668) 
Cc1cccc(Oc2ccc(-c3nnc(SCC(=O)O)[nH]3)cc2[N+](=O)[O-])c1

>  <Name>  (668) 
nan

>  <Pocket>  (668) 
nan

>  <ATP_Site>  (668) 
nan

>  <Peripheral>  (668) 
nan

>  <Num_H_Atoms_ProtBoundConf>  (668) 
nan

>  <Num_Resolved_Atoms>  (668) 
nan

>  <Num_Not_Resolved_Atoms>  (668) 
nan

$$$$
CHEMBL3717063
     RDKit          3D

  0  0  0  0  0  0  0  0  0  0999 V3000
M  V30 BEGIN CTAB
M  V30 COUNTS 46 49 0 0 0
M  V30 BEGIN ATOM
M  V30 1 N 2.038085 -5.338561 3.668865 0
M  V30 2 C 1.527123 -5.329159 2.314201 0
M  V30 3 C 1.193870 -3.906142 1.908732 0 CFG=1
M  V30 4 C 0.172393 -3.282720 2.777020 0
M  V30 5 C 0.528037 -2.012565 3.473719 0
M  V30 6 C 1.293395 -1.042369 2.626640 0 CFG=2
M  V30 7 N 0.678125 0.228577 2.415409 0
M  V30 8 C 0.134949 1.494500 2.250201 0
M  V30 9 O 1.028271 2.116638 2.920670 0
M  V30 10 C -0.971661 2.181195 1.635648 0
M  V30 11 C -1.883596 2.758610 2.465065 0
M  V30 12 C -2.990541 3.459024 2.000584 0
M  V30 13 N -3.095931 3.525106 0.639437 0
M  V30 14 C -2.192617 2.953489 -0.168182 0
M  V30 15 N -2.142877 2.924740 -1.525085 0
M  V30 16 C -1.058402 2.241655 -1.917059 0
M  V30 17 C -0.592011 1.963294 -3.214106 0
M  V30 18 C 0.482857 1.276604 -3.720167 0
M  V30 19 C 0.664543 1.194102 -5.065831 0
M  V30 20 C -0.276689 1.829895 -5.919599 0
M  V30 21 S -1.481554 2.580808 -4.679568 0
M  V30 22 N -0.395931 1.820682 -0.808919 0
M  V30 23 C -1.073891 2.245205 0.270566 0
M  V30 24 C 1.930747 -1.673836 1.412039 0
M  V30 25 C 2.425990 -3.032152 1.877385 0
M  V30 26 H 1.751393 -4.465505 4.166020 0
M  V30 27 H 1.628690 -6.139579 4.181901 0
M  V30 28 H 2.231974 -5.799410 1.600021 0
M  V30 29 H 0.611107 -5.949910 2.300157 0
M  V30 30 H 0.877785 -3.980522 0.829996 0
M  V30 31 H -0.130425 -4.023196 3.552318 0
M  V30 32 H -0.762700 -3.163556 2.152130 0
M  V30 33 H -0.439338 -1.525148 3.721489 0
M  V30 34 H 1.006642 -2.212774 4.455025 0
M  V30 35 H 2.215305 -0.800287 3.266974 0
M  V30 36 H -0.072713 -0.324465 1.843427 0
M  V30 37 H -1.843019 2.730882 3.550600 0
M  V30 38 H -3.783454 3.961327 2.525527 0
M  V30 39 H -2.878398 3.386643 -2.136553 0
M  V30 40 H 1.135056 0.824105 -2.991092 0
M  V30 41 H 1.486261 0.677001 -5.542473 0
M  V30 42 H -0.255653 1.846035 -7.018416 0
M  V30 43 H 1.268259 -1.783482 0.558262 0
M  V30 44 H 2.866810 -1.115480 1.120447 0
M  V30 45 H 3.206348 -3.437267 1.200954 0
M  V30 46 H 2.825679 -2.928501 2.913524 0
M  V30 END ATOM
M  V30 BEGIN BOND
M  V30 1 1 1 2
M  V30 2 1 2 3
M  V30 3 1 3 4
M  V30 4 1 4 5
M  V30 5 1 5 6
M  V30 6 1 6 7
M  V30 7 1 7 8
M  V30 8 2 8 9
M  V30 9 1 8 10
M  V30 10 2 10 11
M  V30 11 1 11 12
M  V30 12 2 12 13
M  V30 13 1 13 14
M  V30 14 1 14 15
M  V30 15 1 15 16
M  V30 16 1 16 17
M  V30 17 2 17 18
M  V30 18 1 18 19
M  V30 19 2 19 20
M  V30 20 1 20 21
M  V30 21 2 16 22
M  V30 22 1 22 23
M  V30 23 1 6 24
M  V30 24 1 24 25
M  V30 25 1 25 3
M  V30 26 1 23 10
M  V30 27 2 23 14
M  V30 28 1 21 17
M  V30 29 1 1 26
M  V30 30 1 1 27
M  V30 31 1 2 28
M  V30 32 1 2 29
M  V30 33 1 3 30 CFG=3
M  V30 34 1 4 31
M  V30 35 1 4 32
M  V30 36 1 5 33
M  V30 37 1 5 34
M  V30 38 1 6 35 CFG=1
M  V30 39 1 7 36
M  V30 40 1 11 37
M  V30 41 1 12 38
M  V30 42 1 15 39
M  V30 43 1 18 40
M  V30 44 1 19 41
M  V30 45 1 20 42
M  V30 46 1 24 43
M  V30 47 1 24 44
M  V30 48 1 25 45
M  V30 49 1 25 46
M  V30 END BOND
M  V30 END CTAB
M  END
>  <Dataset>  (669) 
ChEMBL_Kinases

>  <Ligand_Instance>  (669) 
nan

>  <PDB_ID>  (669) 
nan

>  <Standardized_SMILES>  (669) 
NC[C@H]1CC[C@H](NC(=O)c2ccnc3[nH]c(-c4cccs4)nc23)CC1

>  <Name>  (669) 
nan

>  <Pocket>  (669) 
nan

>  <ATP_Site>  (669) 
nan

>  <Peripheral>  (669) 
nan

>  <Num_H_Atoms_ProtBoundConf>  (669) 
nan

>  <Num_Resolved_Atoms>  (669) 
nan

>  <Num_Not_Resolved_Atoms>  (669) 
nan

$$$$
CHEMBL3717059
     RDKit          3D

  0  0  0  0  0  0  0  0  0  0999 V3000
M  V30 BEGIN CTAB
M  V30 COUNTS 43 46 0 0 0
M  V30 BEGIN ATOM
M  V30 1 O 3.155421 -2.214868 1.498542 0
M  V30 2 C 2.708167 -1.243043 0.847104 0
M  V30 3 N 1.409451 -1.666345 0.329515 0
M  V30 4 C 0.580608 -2.835281 0.392958 0 CFG=1
M  V30 5 C -0.864884 -2.442648 0.412879 0
M  V30 6 C -1.220054 -1.608388 -0.780270 0
M  V30 7 C -0.752726 -2.195943 -2.055001 0
M  V30 8 N 0.533247 -2.773825 -2.015624 0
M  V30 9 C 0.727216 -3.666082 -0.883738 0
M  V30 10 C 2.890882 0.147136 0.346863 0
M  V30 11 C 3.727107 0.364181 -0.724068 0
M  V30 12 C 3.752984 1.683297 -1.138120 0
M  V30 13 N 2.998211 2.632713 -0.502576 0
M  V30 14 C 2.208398 2.369305 0.526440 0
M  V30 15 N 1.370827 3.090754 1.330363 0
M  V30 16 C 0.812710 2.279830 2.237805 0
M  V30 17 C -0.188957 2.539447 3.315318 0
M  V30 18 C -1.073269 1.391623 3.498019 0
M  V30 19 C -2.216775 0.774989 3.014465 0
M  V30 20 C -2.679166 -0.347180 3.586197 0
M  V30 21 C -1.972888 -0.844811 4.663533 0
M  V30 22 S -0.608232 0.270530 4.904567 0
M  V30 23 N 1.276846 1.029860 2.039878 0
M  V30 24 C 2.127952 1.086084 0.995776 0
M  V30 25 H 0.888047 -0.974703 -0.293918 0
M  V30 26 H 0.902386 -3.514791 1.178177 0
M  V30 27 H -1.507903 -3.385922 0.431735 0
M  V30 28 H -1.042915 -1.893844 1.381325 0
M  V30 29 H -2.376702 -1.496024 -0.805645 0
M  V30 30 H -0.839889 -0.572025 -0.695653 0
M  V30 31 H -1.505784 -2.979707 -2.341905 0
M  V30 32 H -0.741190 -1.430157 -2.875830 0
M  V30 33 H 1.329689 -2.124719 -2.142053 0
M  V30 34 H 1.646045 -4.190174 -0.994685 0
M  V30 35 H -0.116046 -4.379073 -0.879221 0
M  V30 36 H 4.320971 -0.422366 -1.199029 0
M  V30 37 H 4.396945 1.949048 -1.995369 0
M  V30 38 H -0.836449 3.418352 3.022046 0
M  V30 39 H 0.295354 2.874658 4.257162 0
M  V30 40 H -2.522928 1.385698 2.182761 0
M  V30 41 H -3.601731 -0.748021 3.125666 0
M  V30 42 H -2.471368 -1.898616 5.123671 0
M  V30 43 H 1.055356 0.181671 2.568733 0
M  V30 END ATOM
M  V30 BEGIN BOND
M  V30 1 2 1 2
M  V30 2 1 2 3
M  V30 3 1 3 4
M  V30 4 1 4 5
M  V30 5 1 5 6
M  V30 6 1 6 7
M  V30 7 1 7 8
M  V30 8 1 8 9
M  V30 9 1 2 10
M  V30 10 2 10 11
M  V30 11 1 11 12
M  V30 12 2 12 13
M  V30 13 1 13 14
M  V30 14 1 14 15
M  V30 15 2 15 16
M  V30 16 1 16 17
M  V30 17 1 17 18
M  V30 18 2 18 19
M  V30 19 1 19 20
M  V30 20 2 20 21
M  V30 21 1 21 22
M  V30 22 1 16 23
M  V30 23 1 23 24
M  V30 24 1 9 4
M  V30 25 1 24 10
M  V30 26 2 24 14
M  V30 27 1 22 18
M  V30 28 1 3 25
M  V30 29 1 4 26 CFG=1
M  V30 30 1 5 27
M  V30 31 1 5 28
M  V30 32 1 6 29
M  V30 33 1 6 30
M  V30 34 1 7 31
M  V30 35 1 7 32
M  V30 36 1 8 33
M  V30 37 1 9 34
M  V30 38 1 9 35
M  V30 39 1 11 36
M  V30 40 1 12 37
M  V30 41 1 17 38
M  V30 42 1 17 39
M  V30 43 1 19 40
M  V30 44 1 20 41
M  V30 45 1 21 42
M  V30 46 1 23 43
M  V30 END BOND
M  V30 END CTAB
M  END
>  <Dataset>  (670) 
ChEMBL_Kinases

>  <Ligand_Instance>  (670) 
nan

>  <PDB_ID>  (670) 
nan

>  <Standardized_SMILES>  (670) 
O=C(N[C@H]1CCCNC1)c1ccnc2nc(Cc3cccs3)[nH]c12

>  <Name>  (670) 
nan

>  <Pocket>  (670) 
nan

>  <ATP_Site>  (670) 
nan

>  <Peripheral>  (670) 
nan

>  <Num_H_Atoms_ProtBoundConf>  (670) 
nan

>  <Num_Resolved_Atoms>  (670) 
nan

>  <Num_Not_Resolved_Atoms>  (670) 
nan

$$$$
CHEMBL568166
     RDKit          3D

  0  0  0  0  0  0  0  0  0  0999 V3000
M  V30 BEGIN CTAB
M  V30 COUNTS 37 40 0 0 0
M  V30 BEGIN ATOM
M  V30 1 C 2.197884 -5.017323 2.840411 0
M  V30 2 C 1.758230 -5.962657 1.924695 0
M  V30 3 N 1.656701 -5.665025 0.604495 0
M  V30 4 C 1.974494 -4.451206 0.126358 0
M  V30 5 C 2.418523 -3.483967 1.024324 0
M  V30 6 C 2.756665 -2.161990 0.450194 0
M  V30 7 N 1.634571 -1.243759 0.413176 0
M  V30 8 C 1.825824 0.059868 -0.115026 0
M  V30 9 N 3.032882 0.430190 -0.572285 0
M  V30 10 C 3.276377 1.649996 -1.083662 0
M  V30 11 N 2.269503 2.561466 -1.148923 0
M  V30 12 C 1.031447 2.273789 -0.713656 0
M  V30 13 C 0.017811 3.206782 -0.785021 0
M  V30 14 C -1.244504 2.883652 -0.330339 0
M  V30 15 C -1.470798 1.624010 0.191026 0
M  V30 16 C -2.799182 1.258536 0.678755 0
M  V30 17 C -3.907895 2.078741 0.674105 0
M  V30 18 C -4.974955 1.365482 1.219449 0
M  V30 19 C -4.424806 0.124055 1.527081 0
M  V30 20 O -3.156368 0.097021 1.198945 0
M  V30 21 C -0.432379 0.716015 0.246637 0
M  V30 22 C 0.832935 1.010228 -0.198253 0
M  V30 23 C 2.534485 -3.750901 2.375303 0
M  V30 24 H 2.284486 -5.240207 3.899902 0
M  V30 25 H 1.486578 -6.956425 2.239270 0
M  V30 26 H 1.887146 -4.229218 -0.936245 0
M  V30 27 H 3.112999 -2.277677 -0.595933 0
M  V30 28 H 3.539723 -1.709621 1.100408 0
M  V30 29 H 0.755508 -1.642369 0.793426 0
M  V30 30 H 4.296986 1.855039 -1.430723 0
M  V30 31 H 0.252710 4.176221 -1.202461 0
M  V30 32 H -2.039372 3.612846 -0.385413 0
M  V30 33 H -3.988170 3.089933 0.325501 0
M  V30 34 H -6.007308 1.652066 1.389697 0
M  V30 35 H -5.013073 -0.684473 1.979695 0
M  V30 36 H -0.665634 -0.237494 0.657802 0
M  V30 37 H 2.887624 -2.968050 3.060256 0
M  V30 END ATOM
M  V30 BEGIN BOND
M  V30 1 2 1 2
M  V30 2 1 2 3
M  V30 3 2 3 4
M  V30 4 1 4 5
M  V30 5 1 5 6
M  V30 6 1 6 7
M  V30 7 1 7 8
M  V30 8 2 8 9
M  V30 9 1 9 10
M  V30 10 2 10 11
M  V30 11 1 11 12
M  V30 12 2 12 13
M  V30 13 1 13 14
M  V30 14 2 14 15
M  V30 15 1 15 16
M  V30 16 2 16 17
M  V30 17 1 17 18
M  V30 18 2 18 19
M  V30 19 1 19 20
M  V30 20 1 15 21
M  V30 21 2 21 22
M  V30 22 2 5 23
M  V30 23 1 23 1
M  V30 24 1 22 8
M  V30 25 1 22 12
M  V30 26 1 20 16
M  V30 27 1 1 24
M  V30 28 1 2 25
M  V30 29 1 4 26
M  V30 30 1 6 27
M  V30 31 1 6 28
M  V30 32 1 7 29
M  V30 33 1 10 30
M  V30 34 1 13 31
M  V30 35 1 14 32
M  V30 36 1 17 33
M  V30 37 1 18 34
M  V30 38 1 19 35
M  V30 39 1 21 36
M  V30 40 1 23 37
M  V30 END BOND
M  V30 END CTAB
M  END
>  <Dataset>  (671) 
ChEMBL_Kinases

>  <Ligand_Instance>  (671) 
nan

>  <PDB_ID>  (671) 
nan

>  <Standardized_SMILES>  (671) 
c1cncc(CNc2ncnc3ccc(-c4ccco4)cc23)c1

>  <Name>  (671) 
nan

>  <Pocket>  (671) 
nan

>  <ATP_Site>  (671) 
nan

>  <Peripheral>  (671) 
nan

>  <Num_H_Atoms_ProtBoundConf>  (671) 
nan

>  <Num_Resolved_Atoms>  (671) 
nan

>  <Num_Not_Resolved_Atoms>  (671) 
nan

$$$$
CHEMBL3717039
     RDKit          3D

  0  0  0  0  0  0  0  0  0  0999 V3000
M  V30 BEGIN CTAB
M  V30 COUNTS 29 30 0 0 0
M  V30 BEGIN ATOM
M  V30 1 O 3.046772 -2.351954 3.573467 0
M  V30 2 C 2.989565 -3.455928 2.973627 0
M  V30 3 O 2.243166 -3.620120 4.124133 0
M  V30 4 C 3.536219 -4.018521 1.701138 0
M  V30 5 S 4.518929 -2.767713 0.823903 0
M  V30 6 C 3.444471 -1.463770 0.257410 0
M  V30 7 N 3.802686 -0.361265 -0.422709 0
M  V30 8 N 2.734266 0.377930 -0.674318 0
M  V30 9 C 1.659534 -0.244959 -0.154162 0
M  V30 10 C 0.273834 0.233517 -0.214341 0
M  V30 11 C -0.100159 1.417933 -0.823389 0
M  V30 12 C -1.425823 1.813953 -0.848257 0
M  V30 13 C -2.387948 0.994533 -0.244855 0
M  V30 14 O -3.742565 1.314426 -0.222166 0
M  V30 15 C -4.270195 2.082676 0.868328 0
M  V30 16 F -3.609808 3.302244 0.890958 0
M  V30 17 F -5.613838 2.281038 0.717890 0
M  V30 18 F -4.066009 1.417797 2.066274 0
M  V30 19 C -2.035351 -0.194509 0.370087 0
M  V30 20 C -0.697978 -0.575490 0.384490 0
M  V30 21 N 2.127196 -1.375536 0.412844 0
M  V30 22 H 1.322899 -3.986798 4.203489 0
M  V30 23 H 2.663710 -4.230655 1.016844 0
M  V30 24 H 4.047065 -4.967483 1.848236 0
M  V30 25 H 0.668379 2.033803 -1.283207 0
M  V30 26 H -1.752609 2.723488 -1.311268 0
M  V30 27 H -2.774769 -0.823301 0.833439 0
M  V30 28 H -0.427767 -1.517772 0.872926 0
M  V30 29 H 1.549026 -2.089964 0.907881 0
M  V30 END ATOM
M  V30 BEGIN BOND
M  V30 1 2 1 2
M  V30 2 1 2 3
M  V30 3 1 2 4
M  V30 4 1 4 5
M  V30 5 1 5 6
M  V30 6 2 6 7
M  V30 7 1 7 8
M  V30 8 2 8 9
M  V30 9 1 9 10
M  V30 10 2 10 11
M  V30 11 1 11 12
M  V30 12 2 12 13
M  V30 13 1 13 14
M  V30 14 1 14 15
M  V30 15 1 15 16
M  V30 16 1 15 17
M  V30 17 1 15 18
M  V30 18 1 13 19
M  V30 19 2 19 20
M  V30 20 1 9 21
M  V30 21 1 21 6
M  V30 22 1 20 10
M  V30 23 1 3 22
M  V30 24 1 4 23
M  V30 25 1 4 24
M  V30 26 1 11 25
M  V30 27 1 12 26
M  V30 28 1 19 27
M  V30 29 1 20 28
M  V30 30 1 21 29
M  V30 END BOND
M  V30 END CTAB
M  END
>  <Dataset>  (672) 
ChEMBL_Kinases

>  <Ligand_Instance>  (672) 
nan

>  <PDB_ID>  (672) 
nan

>  <Standardized_SMILES>  (672) 
O=C(O)CSc1nnc(-c2ccc(OC(F)(F)F)cc2)[nH]1

>  <Name>  (672) 
nan

>  <Pocket>  (672) 
nan

>  <ATP_Site>  (672) 
nan

>  <Peripheral>  (672) 
nan

>  <Num_H_Atoms_ProtBoundConf>  (672) 
nan

>  <Num_Resolved_Atoms>  (672) 
nan

>  <Num_Not_Resolved_Atoms>  (672) 
nan

$$$$
CHEMBL3715096
     RDKit          3D

  0  0  0  0  0  0  0  0  0  0999 V3000
M  V30 BEGIN CTAB
M  V30 COUNTS 63 67 0 0 0
M  V30 BEGIN ATOM
M  V30 1 C 5.755980 1.356269 6.550960 0
M  V30 2 C 6.039984 0.717108 5.226093 0 CFG=2
M  V30 3 N 7.465304 0.515805 5.083314 0
M  V30 4 C 5.462437 1.554003 4.132501 0
M  V30 5 N 4.334022 1.339916 3.444874 0
M  V30 6 C 4.134721 2.307366 2.537562 0
M  V30 7 C 2.899349 2.106420 1.759164 0
M  V30 8 C 2.874483 1.804560 0.397796 0
M  V30 9 C 1.655975 1.631590 -0.223236 0
M  V30 10 C 0.482857 1.754999 0.489111 0
M  V30 11 N -0.768690 1.559422 -0.152734 0
M  V30 12 C -2.095169 1.744574 0.384676 0
M  V30 13 C -2.589390 0.327930 0.724770 0
M  V30 14 N -2.523880 -0.549006 -0.404940 0
M  V30 15 C -3.039599 -1.890393 -0.505811 0
M  V30 16 N -3.220116 -2.431875 -1.720824 0
M  V30 17 C -3.669749 -3.657551 -1.994222 0
M  V30 18 C -3.833214 -4.128148 -3.362485 0
M  V30 19 C -4.293960 -5.397202 -3.650291 0
M  V30 20 C -4.461412 -5.857152 -4.932699 0
M  V30 21 N -4.185212 -5.095228 -5.999266 0
M  V30 22 C -3.734790 -3.853716 -5.757764 0
M  V30 23 C -3.555784 -3.362249 -4.472166 0
M  V30 24 C -3.975531 -4.436629 -0.912695 0
M  V30 25 C -3.795739 -3.897899 0.331841 0
M  V30 26 O -4.094744 -4.662752 1.313516 0
M  V30 27 N -3.334297 -2.642487 0.555540 0
M  V30 28 C -3.173484 -2.239804 1.909880 0
M  V30 29 C -1.843644 -0.092477 -1.611081 0 CFG=2
M  V30 30 C -0.988380 -1.287165 -2.074286 0
M  V30 31 C -1.005033 1.115306 -1.482914 0
M  V30 32 C 0.481061 2.052751 1.832751 0
M  V30 33 C 1.709817 2.229578 2.470442 0
M  V30 34 N 5.185978 3.134174 2.686567 0
M  V30 35 O 5.955861 2.663915 3.637724 0
M  V30 36 H 6.673123 1.651121 7.096651 0
M  V30 37 H 5.189124 0.644772 7.200292 0
M  V30 38 H 5.128465 2.271752 6.462792 0
M  V30 39 H 5.542574 -0.291898 5.190302 0
M  V30 40 H 7.760903 -0.391800 5.531470 0
M  V30 41 H 7.659384 0.396725 4.048934 0
M  V30 42 H 3.817463 1.720925 -0.102733 0
M  V30 43 H 1.714109 1.405194 -1.256400 0
M  V30 44 H -2.074187 2.269591 1.387549 0
M  V30 45 H -2.800112 2.283379 -0.263390 0
M  V30 46 H -3.669475 0.514337 0.982392 0
M  V30 47 H -1.967428 0.044206 1.588752 0
M  V30 48 H -4.549830 -6.105079 -2.891141 0
M  V30 49 H -4.831112 -6.872960 -5.143924 0
M  V30 50 H -3.520223 -3.260684 -6.631161 0
M  V30 51 H -3.195936 -2.363212 -4.357037 0
M  V30 52 H -4.343017 -5.433385 -1.012715 0
M  V30 53 H -3.768120 -1.379130 2.247133 0
M  V30 54 H -3.532003 -3.074209 2.596629 0
M  V30 55 H -2.087440 -2.192461 2.155649 0
M  V30 56 H -2.653000 -0.007093 -2.388137 0
M  V30 57 H 0.069447 -0.943833 -2.231235 0
M  V30 58 H -1.340288 -1.730589 -3.001407 0
M  V30 59 H -0.922060 -2.057083 -1.289857 0
M  V30 60 H -0.076433 0.941201 -2.076900 0
M  V30 61 H -1.504799 1.958364 -2.047731 0
M  V30 62 H -0.372162 2.167283 2.468128 0
M  V30 63 H 1.741556 2.468043 3.545717 0
M  V30 END ATOM
M  V30 BEGIN BOND
M  V30 1 1 1 2
M  V30 2 1 2 3
M  V30 3 1 2 4
M  V30 4 2 4 5
M  V30 5 1 5 6
M  V30 6 1 6 7
M  V30 7 2 7 8
M  V30 8 1 8 9
M  V30 9 2 9 10
M  V30 10 1 10 11
M  V30 11 1 11 12
M  V30 12 1 12 13
M  V30 13 1 13 14
M  V30 14 1 14 15
M  V30 15 2 15 16
M  V30 16 1 16 17
M  V30 17 1 17 18
M  V30 18 2 18 19
M  V30 19 1 19 20
M  V30 20 2 20 21
M  V30 21 1 21 22
M  V30 22 2 22 23
M  V30 23 2 17 24
M  V30 24 1 24 25
M  V30 25 2 25 26
M  V30 26 1 25 27
M  V30 27 1 27 28
M  V30 28 1 14 29
M  V30 29 1 29 30
M  V30 30 1 29 31
M  V30 31 1 10 32
M  V30 32 2 32 33
M  V30 33 2 6 34
M  V30 34 1 34 35
M  V30 35 1 35 4
M  V30 36 1 33 7
M  V30 37 1 31 11
M  V30 38 1 27 15
M  V30 39 1 23 18
M  V30 40 1 1 36
M  V30 41 1 1 37
M  V30 42 1 1 38
M  V30 43 1 2 39 CFG=1
M  V30 44 1 3 40
M  V30 45 1 3 41
M  V30 46 1 8 42
M  V30 47 1 9 43
M  V30 48 1 12 44
M  V30 49 1 12 45
M  V30 50 1 13 46
M  V30 51 1 13 47
M  V30 52 1 19 48
M  V30 53 1 20 49
M  V30 54 1 22 50
M  V30 55 1 23 51
M  V30 56 1 24 52
M  V30 57 1 28 53
M  V30 58 1 28 54
M  V30 59 1 28 55
M  V30 60 1 29 56 CFG=3
M  V30 61 1 30 57
M  V30 62 1 30 58
M  V30 63 1 30 59
M  V30 64 1 31 60
M  V30 65 1 31 61
M  V30 66 1 32 62
M  V30 67 1 33 63
M  V30 END BOND
M  V30 END CTAB
M  END
>  <Dataset>  (673) 
ChEMBL_Kinases

>  <Ligand_Instance>  (673) 
nan

>  <PDB_ID>  (673) 
nan

>  <Standardized_SMILES>  (673) 
C[C@H](N)c1nc(-c2ccc(N3CCN(c4nc(-c5ccncc5)cc(=O)n4C)[C@H](C)C3)cc2)no1

>  <Name>  (673) 
nan

>  <Pocket>  (673) 
nan

>  <ATP_Site>  (673) 
nan

>  <Peripheral>  (673) 
nan

>  <Num_H_Atoms_ProtBoundConf>  (673) 
nan

>  <Num_Resolved_Atoms>  (673) 
nan

>  <Num_Not_Resolved_Atoms>  (673) 
nan

$$$$
CHEMBL371658
     RDKit          3D

  0  0  0  0  0  0  0  0  0  0999 V3000
M  V30 BEGIN CTAB
M  V30 COUNTS 63 67 0 0 0
M  V30 BEGIN ATOM
M  V30 1 N -2.082773 -4.754035 3.353362 0
M  V30 2 C -1.221129 -3.994689 3.558467 0
M  V30 3 C -0.142126 -3.067128 3.829978 0
M  V30 4 C 0.904474 -3.520416 4.618707 0
M  V30 5 N 1.902262 -2.672089 4.875903 0
M  V30 6 C 1.917165 -1.387642 4.388083 0
M  V30 7 C 2.969696 -0.445261 4.635742 0
M  V30 8 N 2.421740 0.392116 3.988386 0
M  V30 9 C 1.847861 1.277187 3.307249 0
M  V30 10 N 2.006178 2.598000 2.873023 0
M  V30 11 C 2.513783 2.838899 1.541508 0
M  V30 12 C 1.469935 2.603950 0.516098 0
M  V30 13 N 0.333787 3.423245 0.516839 0
M  V30 14 C -0.621568 3.398909 1.537257 0
M  V30 15 C -1.958193 2.801200 1.141709 0
M  V30 16 O -2.387001 3.242055 -0.107671 0
M  V30 17 C -1.457594 2.779725 -1.026333 0
M  V30 18 C -0.180324 3.599657 -0.801045 0
M  V30 19 C 0.808219 0.361355 3.057020 0
M  V30 20 C 0.831943 -0.941873 3.579983 0
M  V30 21 C -0.244334 -1.811351 3.285297 0
M  V30 22 N -1.344014 -1.439142 2.497200 0
M  V30 23 C -1.365739 -1.612056 1.086705 0
M  V30 24 C -2.615731 -1.646653 0.478381 0
M  V30 25 C -2.709584 -1.810632 -0.886299 0
M  V30 26 C -1.568672 -1.942598 -1.666202 0
M  V30 27 C -1.539430 -2.159823 -3.153622 0
M  V30 28 C -1.146856 -3.553015 -3.471122 0
M  V30 29 C 0.204855 -3.776655 -3.696446 0
M  V30 30 C 0.771831 -5.005806 -4.002763 0
M  V30 31 C -0.038229 -6.114751 -4.099108 0
M  V30 32 C -1.368938 -5.877549 -3.874501 0
M  V30 33 C -1.962480 -4.688852 -3.573188 0
M  V30 34 C -0.322365 -1.903959 -1.026620 0
M  V30 35 C -0.201864 -1.737776 0.358812 0
M  V30 36 H 0.971680 -4.510663 5.038259 0
M  V30 37 H 3.761332 -0.803789 5.241740 0
M  V30 38 H 1.691951 3.161961 3.696969 0
M  V30 39 H 3.356568 2.098962 1.393821 0
M  V30 40 H 3.023752 3.821779 1.450942 0
M  V30 41 H 1.954079 2.733888 -0.501825 0
M  V30 42 H 1.179199 1.512492 0.500980 0
M  V30 43 H -0.336432 2.980800 2.494937 0
M  V30 44 H -0.883150 4.489993 1.761726 0
M  V30 45 H -2.713698 3.163802 1.877302 0
M  V30 46 H -1.892786 1.717861 1.206742 0
M  V30 47 H -1.261534 1.710392 -0.816087 0
M  V30 48 H -1.757897 2.912925 -2.083553 0
M  V30 49 H 0.597876 3.236821 -1.528486 0
M  V30 50 H -0.379931 4.652230 -1.047525 0
M  V30 51 H -0.050489 0.665844 2.429148 0
M  V30 52 H -2.157049 -1.024019 3.008354 0
M  V30 53 H -3.570901 -1.552493 0.974713 0
M  V30 54 H -3.656923 -1.846793 -1.434048 0
M  V30 55 H -0.841283 -1.447706 -3.605891 0
M  V30 56 H -2.558416 -1.981502 -3.571104 0
M  V30 57 H 0.923951 -2.952256 -3.647439 0
M  V30 58 H 1.852056 -5.094044 -4.166941 0
M  V30 59 H 0.304010 -7.104904 -4.328295 0
M  V30 60 H -2.032104 -6.740123 -3.943397 0
M  V30 61 H -2.999214 -4.493487 -3.396325 0
M  V30 62 H 0.652153 -1.988932 -1.497646 0
M  V30 63 H 0.742949 -1.704156 0.872430 0
M  V30 END ATOM
M  V30 BEGIN BOND
M  V30 1 3 1 2
M  V30 2 1 2 3
M  V30 3 2 3 4
M  V30 4 1 4 5
M  V30 5 2 5 6
M  V30 6 1 6 7
M  V30 7 2 7 8
M  V30 8 1 8 9
M  V30 9 1 9 10
M  V30 10 1 10 11
M  V30 11 1 11 12
M  V30 12 1 12 13
M  V30 13 1 13 14
M  V30 14 1 14 15
M  V30 15 1 15 16
M  V30 16 1 16 17
M  V30 17 1 17 18
M  V30 18 2 9 19
M  V30 19 1 19 20
M  V30 20 2 20 21
M  V30 21 1 21 22
M  V30 22 1 22 23
M  V30 23 2 23 24
M  V30 24 1 24 25
M  V30 25 2 25 26
M  V30 26 1 26 27
M  V30 27 1 27 28
M  V30 28 2 28 29
M  V30 29 1 29 30
M  V30 30 2 30 31
M  V30 31 1 31 32
M  V30 32 2 32 33
M  V30 33 1 26 34
M  V30 34 2 34 35
M  V30 35 1 21 3
M  V30 36 1 35 23
M  V30 37 1 20 6
M  V30 38 1 33 28
M  V30 39 1 18 13
M  V30 40 1 4 36
M  V30 41 1 7 37
M  V30 42 1 10 38
M  V30 43 1 11 39
M  V30 44 1 11 40
M  V30 45 1 12 41
M  V30 46 1 12 42
M  V30 47 1 14 43
M  V30 48 1 14 44
M  V30 49 1 15 45
M  V30 50 1 15 46
M  V30 51 1 17 47
M  V30 52 1 17 48
M  V30 53 1 18 49
M  V30 54 1 18 50
M  V30 55 1 19 51
M  V30 56 1 22 52
M  V30 57 1 24 53
M  V30 58 1 25 54
M  V30 59 1 27 55
M  V30 60 1 27 56
M  V30 61 1 29 57
M  V30 62 1 30 58
M  V30 63 1 31 59
M  V30 64 1 32 60
M  V30 65 1 33 61
M  V30 66 1 34 62
M  V30 67 1 35 63
M  V30 END BOND
M  V30 END CTAB
M  END
>  <Dataset>  (674) 
ChEMBL_Kinases

>  <Ligand_Instance>  (674) 
nan

>  <PDB_ID>  (674) 
nan

>  <Standardized_SMILES>  (674) 
N#Cc1cnc2cnc(NCCN3CCOCC3)cc2c1Nc1ccc(Cc2ccccc2)cc1

>  <Name>  (674) 
nan

>  <Pocket>  (674) 
nan

>  <ATP_Site>  (674) 
nan

>  <Peripheral>  (674) 
nan

>  <Num_H_Atoms_ProtBoundConf>  (674) 
nan

>  <Num_Resolved_Atoms>  (674) 
nan

>  <Num_Not_Resolved_Atoms>  (674) 
nan

$$$$
CHEMBL568687
     RDKit          3D

  0  0  0  0  0  0  0  0  0  0999 V3000
M  V30 BEGIN CTAB
M  V30 COUNTS 45 48 0 0 0
M  V30 BEGIN ATOM
M  V30 1 C -2.308855 -1.767589 -0.121315 0
M  V30 2 C -0.988158 -2.370717 0.202948 0
M  V30 3 C 0.125135 -1.724837 -0.292521 0
M  V30 4 N 0.002436 -0.522218 -1.086337 0
M  V30 5 C 1.253177 -0.029126 -1.488100 0
M  V30 6 C 1.750606 -0.603203 -2.637798 0
M  V30 7 C 1.044301 -1.615850 -3.367486 0
M  V30 8 N 0.457333 -2.422368 -3.954000 0
M  V30 9 C 2.979504 -0.170058 -3.085501 0
M  V30 10 N 3.637509 0.777191 -2.400745 0
M  V30 11 C 3.117905 1.309260 -1.287688 0
M  V30 12 C 1.896401 0.941011 -0.762846 0
M  V30 13 C 1.431181 1.599252 0.433173 0
M  V30 14 C 0.362609 1.547308 1.153775 0
M  V30 15 C 0.024006 2.284153 2.359676 0
M  V30 16 C -1.177473 2.085180 2.987580 0
M  V30 17 C -1.531002 2.765910 4.131690 0
M  V30 18 C -0.683099 3.689570 4.704977 0
M  V30 19 C 0.532802 3.921118 4.108710 0
M  V30 20 C 0.839754 3.214665 2.965566 0
M  V30 21 C 1.338954 -2.298402 0.018331 0
M  V30 22 C 1.409324 -3.455611 0.784965 0
M  V30 23 Cl 2.968489 -4.155239 1.159533 0
M  V30 24 C 0.273763 -4.061294 1.254966 0
M  V30 25 N 0.098837 -5.177113 2.008411 0
M  V30 26 C -1.231933 -5.319853 2.181512 0
M  V30 27 C -1.925656 -4.301437 1.543873 0
M  V30 28 C -0.941321 -3.519228 0.965169 0
M  V30 29 H -2.335907 -0.800630 0.408075 0
M  V30 30 H -3.121916 -2.388954 0.280417 0
M  V30 31 H -2.454052 -1.686757 -1.217394 0
M  V30 32 H -0.954451 -0.173786 -1.268975 0
M  V30 33 H 3.427659 -0.572707 -3.973332 0
M  V30 34 H 3.747829 2.073499 -0.816327 0
M  V30 35 H 2.106731 2.333473 0.889008 0
M  V30 36 H -0.364461 0.851448 0.775157 0
M  V30 37 H -1.895806 1.374253 2.594793 0
M  V30 38 H -2.498540 2.570167 4.591246 0
M  V30 39 H -0.935162 4.239496 5.604511 0
M  V30 40 H 1.207390 4.642979 4.547961 0
M  V30 41 H 1.807105 3.439407 2.543760 0
M  V30 42 H 2.247699 -1.845257 -0.336772 0
M  V30 43 H 0.830716 -5.824920 2.396966 0
M  V30 44 H -1.756398 -6.110460 2.738841 0
M  V30 45 H -2.986131 -4.114729 1.481695 0
M  V30 END ATOM
M  V30 BEGIN BOND
M  V30 1 1 1 2
M  V30 2 2 2 3
M  V30 3 1 3 4
M  V30 4 1 4 5
M  V30 5 2 5 6
M  V30 6 1 6 7
M  V30 7 3 7 8
M  V30 8 1 6 9
M  V30 9 2 9 10
M  V30 10 1 10 11
M  V30 11 2 11 12
M  V30 12 1 12 13
M  V30 13 2 13 14
M  V30 14 1 14 15
M  V30 15 2 15 16
M  V30 16 1 16 17
M  V30 17 2 17 18
M  V30 18 1 18 19
M  V30 19 2 19 20
M  V30 20 1 3 21
M  V30 21 2 21 22
M  V30 22 1 22 23
M  V30 23 1 22 24
M  V30 24 1 24 25
M  V30 25 1 25 26
M  V30 26 2 26 27
M  V30 27 1 27 28
M  V30 28 1 28 2
M  V30 29 1 12 5
M  V30 30 1 20 15
M  V30 31 2 28 24
M  V30 32 1 1 29
M  V30 33 1 1 30
M  V30 34 1 1 31
M  V30 35 1 4 32
M  V30 36 1 9 33
M  V30 37 1 11 34
M  V30 38 1 13 35
M  V30 39 1 14 36
M  V30 40 1 16 37
M  V30 41 1 17 38
M  V30 42 1 18 39
M  V30 43 1 19 40
M  V30 44 1 20 41
M  V30 45 1 21 42
M  V30 46 1 25 43
M  V30 47 1 26 44
M  V30 48 1 27 45
M  V30 END BOND
M  V30 END CTAB
M  END
>  <Dataset>  (675) 
ChEMBL_Kinases

>  <Ligand_Instance>  (675) 
nan

>  <PDB_ID>  (675) 
nan

>  <Standardized_SMILES>  (675) 
Cc1c(Nc2c(C#N)cncc2/C=C/c2ccccc2)cc(Cl)c2[nH]ccc12

>  <Name>  (675) 
nan

>  <Pocket>  (675) 
nan

>  <ATP_Site>  (675) 
nan

>  <Peripheral>  (675) 
nan

>  <Num_H_Atoms_ProtBoundConf>  (675) 
nan

>  <Num_Resolved_Atoms>  (675) 
nan

>  <Num_Not_Resolved_Atoms>  (675) 
nan

$$$$
CHEMBL3716558
     RDKit          3D

  0  0  0  0  0  0  0  0  0  0999 V3000
M  V30 BEGIN CTAB
M  V30 COUNTS 30 31 0 0 0
M  V30 BEGIN ATOM
M  V30 1 C -0.112001 -3.316913 4.154086 0
M  V30 2 S -1.067767 -3.582632 2.657341 0 CHG=1 VAL=3
M  V30 3 O -1.818696 -5.082157 2.702022 0 CHG=-1 VAL=1
M  V30 4 C 0.070220 -3.452641 1.319312 0
M  V30 5 C 0.777891 -4.520080 0.798320 0
M  V30 6 C 1.652389 -4.334563 -0.253049 0
M  V30 7 C 1.825699 -3.068294 -0.794456 0
M  V30 8 C 1.136722 -1.973628 -0.302241 0
M  V30 9 C 1.279217 -0.618342 -0.832442 0
M  V30 10 N 2.091272 -0.284758 -1.851944 0
M  V30 11 N 1.989129 1.028769 -2.090818 0
M  V30 12 C 1.085638 1.504363 -1.185849 0
M  V30 13 S 0.563654 3.220810 -1.053463 0
M  V30 14 C -0.641676 3.318514 0.299270 0
M  V30 15 C -1.126107 4.720077 0.474228 0
M  V30 16 O -0.786858 5.743007 -0.190938 0
M  V30 17 O -2.046337 4.915273 1.474512 0
M  V30 18 N 0.647864 0.494025 -0.411305 0
M  V30 19 C 0.275042 -2.212294 0.748857 0
M  V30 20 H -0.053332 -2.202464 4.297805 0
M  V30 21 H 0.939272 -3.619630 3.972654 0
M  V30 22 H -0.561574 -3.816077 5.028018 0
M  V30 23 H 0.614223 -5.496672 1.250205 0
M  V30 24 H 2.200063 -5.167874 -0.654316 0
M  V30 25 H 2.498343 -2.863297 -1.620034 0
M  V30 26 H -0.181255 2.935185 1.238438 0
M  V30 27 H -1.532059 2.732202 -0.014226 0
M  V30 28 H -2.197027 5.819593 1.902730 0
M  V30 29 H -0.048637 0.524683 0.377328 0
M  V30 30 H -0.270440 -1.361325 1.142859 0
M  V30 END ATOM
M  V30 BEGIN BOND
M  V30 1 1 1 2
M  V30 2 1 2 3
M  V30 3 1 2 4
M  V30 4 2 4 5
M  V30 5 1 5 6
M  V30 6 2 6 7
M  V30 7 1 7 8
M  V30 8 1 8 9
M  V30 9 2 9 10
M  V30 10 1 10 11
M  V30 11 2 11 12
M  V30 12 1 12 13
M  V30 13 1 13 14
M  V30 14 1 14 15
M  V30 15 2 15 16
M  V30 16 1 15 17
M  V30 17 1 12 18
M  V30 18 2 8 19
M  V30 19 1 19 4
M  V30 20 1 18 9
M  V30 21 1 1 20
M  V30 22 1 1 21
M  V30 23 1 1 22
M  V30 24 1 5 23
M  V30 25 1 6 24
M  V30 26 1 7 25
M  V30 27 1 14 26
M  V30 28 1 14 27
M  V30 29 1 17 28
M  V30 30 1 18 29
M  V30 31 1 19 30
M  V30 END BOND
M  V30 END CTAB
M  END
>  <Dataset>  (676) 
ChEMBL_Kinases

>  <Ligand_Instance>  (676) 
nan

>  <PDB_ID>  (676) 
nan

>  <Standardized_SMILES>  (676) 
C[S+]([O-])c1cccc(-c2nnc(SCC(=O)O)[nH]2)c1

>  <Name>  (676) 
nan

>  <Pocket>  (676) 
nan

>  <ATP_Site>  (676) 
nan

>  <Peripheral>  (676) 
nan

>  <Num_H_Atoms_ProtBoundConf>  (676) 
nan

>  <Num_Resolved_Atoms>  (676) 
nan

>  <Num_Not_Resolved_Atoms>  (676) 
nan

$$$$
CHEMBL3716547
     RDKit          3D

  0  0  0  0  0  0  0  0  0  0999 V3000
M  V30 BEGIN CTAB
M  V30 COUNTS 43 46 0 0 0
M  V30 BEGIN ATOM
M  V30 1 C 6.043659 -5.518366 1.615230 0
M  V30 2 O 5.357848 -4.866474 0.578239 0
M  V30 3 C 4.646030 -3.708864 0.767641 0
M  V30 4 C 4.547537 -3.091763 1.995153 0
M  V30 5 C 3.825432 -1.929562 2.155942 0
M  V30 6 C 3.196147 -1.389175 1.054304 0
M  V30 7 C 3.245979 -1.949093 -0.218086 0
M  V30 8 N 2.609430 -1.400695 -1.339894 0
M  V30 9 C 1.832885 -0.182498 -1.314647 0
M  V30 10 C 2.709772 0.956545 -0.907588 0
M  V30 11 C 0.640303 -0.326830 -0.432602 0
M  V30 12 O -0.027761 -1.074622 0.344586 0
M  V30 13 N -0.060840 0.916820 -0.478687 0
M  V30 14 C -1.299279 1.173075 0.261796 0
M  V30 15 N -1.666517 1.567212 1.270645 0
M  V30 16 C -2.887980 1.715620 1.737627 0
M  V30 17 C -3.316224 2.202304 2.979414 0
M  V30 18 C -4.663957 2.258001 3.225026 0
M  V30 19 C -5.681476 1.884265 2.378789 0
M  V30 20 N -7.021013 1.827569 2.345336 0
M  V30 21 N -7.408407 1.338501 1.162411 0
M  V30 22 C -6.356983 1.059315 0.385429 0
M  V30 23 C -5.265641 1.404545 1.155039 0
M  V30 24 C -3.905806 1.335310 0.874702 0
M  V30 25 S -2.989682 0.783131 -0.570828 0
M  V30 26 C 3.989663 -3.106538 -0.279938 0
M  V30 27 H 6.626656 -6.333383 1.188650 0
M  V30 28 H 6.742253 -4.779228 2.088471 0
M  V30 29 H 5.285147 -5.812918 2.367759 0
M  V30 30 H 5.036127 -3.502442 2.872396 0
M  V30 31 H 3.769645 -1.473339 3.130640 0
M  V30 32 H 2.639569 -0.483198 1.219414 0
M  V30 33 H 2.717385 -1.927075 -2.251130 0
M  V30 34 H 1.474027 0.041714 -2.351181 0
M  V30 35 H 2.833228 1.715394 -1.713047 0
M  V30 36 H 3.711317 0.562733 -0.651251 0
M  V30 37 H 2.351301 1.530366 -0.028539 0
M  V30 38 H 0.133733 1.825761 -0.996114 0
M  V30 39 H -2.633361 2.543358 3.771586 0
M  V30 40 H -4.990100 2.642368 4.204362 0
M  V30 41 H -7.609397 2.133011 3.151262 0
M  V30 42 H -6.278290 0.660076 -0.611287 0
M  V30 43 H 4.072614 -3.600310 -1.248240 0
M  V30 END ATOM
M  V30 BEGIN BOND
M  V30 1 1 1 2
M  V30 2 1 2 3
M  V30 3 2 3 4
M  V30 4 1 4 5
M  V30 5 2 5 6
M  V30 6 1 6 7
M  V30 7 1 7 8
M  V30 8 1 8 9
M  V30 9 1 9 10
M  V30 10 1 9 11
M  V30 11 2 11 12
M  V30 12 1 11 13
M  V30 13 1 13 14
M  V30 14 2 14 15
M  V30 15 1 15 16
M  V30 16 2 16 17
M  V30 17 1 17 18
M  V30 18 2 18 19
M  V30 19 1 19 20
M  V30 20 1 20 21
M  V30 21 2 21 22
M  V30 22 1 22 23
M  V30 23 2 23 24
M  V30 24 1 24 25
M  V30 25 2 7 26
M  V30 26 1 26 3
M  V30 27 1 25 14
M  V30 28 1 24 16
M  V30 29 1 23 19
M  V30 30 1 1 27
M  V30 31 1 1 28
M  V30 32 1 1 29
M  V30 33 1 4 30
M  V30 34 1 5 31
M  V30 35 1 6 32
M  V30 36 1 8 33
M  V30 37 1 9 34
M  V30 38 1 10 35
M  V30 39 1 10 36
M  V30 40 1 10 37
M  V30 41 1 13 38
M  V30 42 1 17 39
M  V30 43 1 18 40
M  V30 44 1 20 41
M  V30 45 1 22 42
M  V30 46 1 26 43
M  V30 END BOND
M  V30 END CTAB
M  END
>  <Dataset>  (677) 
ChEMBL_Kinases

>  <Ligand_Instance>  (677) 
nan

>  <PDB_ID>  (677) 
nan

>  <Standardized_SMILES>  (677) 
COc1cccc(NC(C)C(=O)Nc2nc3ccc4[nH]ncc4c3s2)c1

>  <Name>  (677) 
nan

>  <Pocket>  (677) 
nan

>  <ATP_Site>  (677) 
nan

>  <Peripheral>  (677) 
nan

>  <Num_H_Atoms_ProtBoundConf>  (677) 
nan

>  <Num_Resolved_Atoms>  (677) 
nan

>  <Num_Not_Resolved_Atoms>  (677) 
nan

$$$$
CHEMBL3715255
     RDKit          3D

  0  0  0  0  0  0  0  0  0  0999 V3000
M  V30 BEGIN CTAB
M  V30 COUNTS 35 36 0 0 0
M  V30 BEGIN ATOM
M  V30 1 C -1.802659 -3.948413 2.582069 0
M  V30 2 O -2.495117 -2.987325 1.775320 0
M  V30 3 C -1.679752 -2.097518 1.097822 0
M  V30 4 C -0.302866 -2.126353 1.186640 0
M  V30 5 C 0.479327 -1.223649 0.497166 0
M  V30 6 C 1.938026 -1.211051 0.552863 0
M  V30 7 N 2.740241 -2.020486 1.234492 0
M  V30 8 N 4.008765 -1.677342 1.016252 0
M  V30 9 C 4.031484 -0.637920 0.187301 0
M  V30 10 S 5.473274 0.237500 -0.447212 0
M  V30 11 C 4.930831 1.585582 -1.539634 0
M  V30 12 C 4.204538 2.595457 -0.705028 0
M  V30 13 O 3.812027 3.547601 -1.432702 0
M  V30 14 O 3.851807 2.764825 0.629520 0
M  V30 15 N 2.745999 -0.356788 -0.093666 0
M  V30 16 C -0.186214 -0.295698 -0.280936 0
M  V30 17 C -1.565526 -0.235919 -0.394592 0
M  V30 18 C -2.331747 -1.166732 0.317624 0
M  V30 19 O -3.702928 -1.028373 0.139857 0
M  V30 20 C -4.490316 -0.239353 0.946606 0
M  V30 21 C -5.553401 0.507084 1.627240 0
M  V30 22 O -3.361949 -0.042090 1.494840 0
M  V30 23 H -1.116200 -4.553626 1.925451 0
M  V30 24 H -1.118428 -3.415278 3.276654 0
M  V30 25 H -2.472782 -4.605620 3.138373 0
M  V30 26 H 0.184964 -2.856904 1.797390 0
M  V30 27 H 5.835301 2.060721 -1.975505 0
M  V30 28 H 4.276166 1.232021 -2.359537 0
M  V30 29 H 4.098848 3.673823 1.035821 0
M  V30 30 H 2.481264 0.423647 -0.728617 0
M  V30 31 H 0.414464 0.427384 -0.835012 0
M  V30 32 H -2.014932 0.530494 -1.031803 0
M  V30 33 H -5.690394 0.160671 2.664986 0
M  V30 34 H -6.497033 0.528108 1.040038 0
M  V30 35 H -5.230919 1.580065 1.689211 0
M  V30 END ATOM
M  V30 BEGIN BOND
M  V30 1 1 1 2
M  V30 2 1 2 3
M  V30 3 2 3 4
M  V30 4 1 4 5
M  V30 5 1 5 6
M  V30 6 2 6 7
M  V30 7 1 7 8
M  V30 8 2 8 9
M  V30 9 1 9 10
M  V30 10 1 10 11
M  V30 11 1 11 12
M  V30 12 2 12 13
M  V30 13 1 12 14
M  V30 14 1 9 15
M  V30 15 2 5 16
M  V30 16 1 16 17
M  V30 17 2 17 18
M  V30 18 1 18 19
M  V30 19 1 19 20
M  V30 20 1 20 21
M  V30 21 2 20 22
M  V30 22 1 18 3
M  V30 23 1 15 6
M  V30 24 1 1 23
M  V30 25 1 1 24
M  V30 26 1 1 25
M  V30 27 1 4 26
M  V30 28 1 11 27
M  V30 29 1 11 28
M  V30 30 1 14 29
M  V30 31 1 15 30
M  V30 32 1 16 31
M  V30 33 1 17 32
M  V30 34 1 21 33
M  V30 35 1 21 34
M  V30 36 1 21 35
M  V30 END BOND
M  V30 END CTAB
M  END
>  <Dataset>  (678) 
ChEMBL_Kinases

>  <Ligand_Instance>  (678) 
nan

>  <PDB_ID>  (678) 
nan

>  <Standardized_SMILES>  (678) 
COc1cc(-c2nnc(SCC(=O)O)[nH]2)ccc1OC(C)=O

>  <Name>  (678) 
nan

>  <Pocket>  (678) 
nan

>  <ATP_Site>  (678) 
nan

>  <Peripheral>  (678) 
nan

>  <Num_H_Atoms_ProtBoundConf>  (678) 
nan

>  <Num_Resolved_Atoms>  (678) 
nan

>  <Num_Not_Resolved_Atoms>  (678) 
nan

$$$$
CHEMBL3716544
     RDKit          3D

  0  0  0  0  0  0  0  0  0  0999 V3000
M  V30 BEGIN CTAB
M  V30 COUNTS 51 56 0 0 0
M  V30 BEGIN ATOM
M  V30 1 N 1.029434 -5.067917 1.935827 0
M  V30 2 C 1.143501 -4.103626 0.880991 0
M  V30 3 C 0.078125 -4.405939 -0.128134 0
M  V30 4 C 0.151410 -3.379354 -1.245794 0
M  V30 5 C 1.481864 -3.430701 -1.958113 0
M  V30 6 C 2.593306 -3.306226 -0.953552 0
M  V30 7 C 2.480743 -4.295266 0.172062 0
M  V30 8 C 2.501920 -1.896499 -0.365840 0
M  V30 9 C 1.172720 -1.699851 0.272384 0
M  V30 10 N 1.062028 -0.381133 0.806013 0
M  V30 11 C 1.179111 0.807290 0.020378 0
M  V30 12 O 1.397499 0.703054 -1.209553 0
M  V30 13 C 1.038239 2.121424 0.683360 0
M  V30 14 C 2.039559 3.035859 0.995056 0
M  V30 15 C 1.686562 4.211459 1.623735 0
M  V30 16 N 0.402766 4.516036 1.952904 0
M  V30 17 C -0.611430 3.687069 1.685908 0
M  V30 18 N -1.944120 3.682607 1.870700 0
M  V30 19 C -2.456329 2.540482 1.380441 0
M  V30 20 C -3.876226 2.063741 1.353961 0
M  V30 21 C -4.979017 2.998523 1.627497 0
M  V30 22 C -4.566579 2.054629 2.716769 0
M  V30 23 N -1.416975 1.843013 0.890640 0
M  V30 24 C -0.258536 2.498683 1.050620 0
M  V30 25 C -0.008685 -2.026503 -0.606824 0
M  V30 26 C 1.075647 -2.709057 1.423449 0
M  V30 27 H 0.053063 -5.242919 2.255259 0
M  V30 28 H 1.717870 -4.959557 2.714588 0
M  V30 29 H -0.958209 -4.349629 0.287676 0
M  V30 30 H 0.302026 -5.407653 -0.552550 0
M  V30 31 H -0.681785 -3.500389 -1.966080 0
M  V30 32 H 1.569206 -4.317163 -2.608973 0
M  V30 33 H 1.536201 -2.529116 -2.607034 0
M  V30 34 H 3.559568 -3.471693 -1.449992 0
M  V30 35 H 3.312300 -4.113689 0.873384 0
M  V30 36 H 2.462300 -5.327730 -0.241611 0
M  V30 37 H 3.260751 -1.907889 0.467286 0
M  V30 38 H 2.829655 -1.133633 -1.073461 0
M  V30 39 H 0.878415 -0.230255 1.839369 0
M  V30 40 H 3.018173 2.715442 0.700812 0
M  V30 41 H 2.519134 4.902343 1.850144 0
M  V30 42 H -2.493303 4.441119 2.321652 0
M  V30 43 H -4.071189 1.149879 0.751319 0
M  V30 44 H -4.782304 4.081062 1.768673 0
M  V30 45 H -5.958801 2.771236 1.152348 0
M  V30 46 H -5.176015 1.169806 2.986565 0
M  V30 47 H -4.002825 2.497734 3.554374 0
M  V30 48 H -0.277071 -1.239232 -1.323628 0
M  V30 49 H -0.890320 -2.121591 0.091810 0
M  V30 50 H 0.166919 -2.519109 1.990288 0
M  V30 51 H 1.957408 -2.545880 2.067556 0
M  V30 END ATOM
M  V30 BEGIN BOND
M  V30 1 1 1 2
M  V30 2 1 2 3
M  V30 3 1 3 4
M  V30 4 1 4 5
M  V30 5 1 5 6
M  V30 6 1 6 7
M  V30 7 1 6 8
M  V30 8 1 8 9
M  V30 9 1 9 10
M  V30 10 1 10 11
M  V30 11 2 11 12
M  V30 12 1 11 13
M  V30 13 1 13 14
M  V30 14 2 14 15
M  V30 15 1 15 16
M  V30 16 2 16 17
M  V30 17 1 17 18
M  V30 18 1 18 19
M  V30 19 1 19 20
M  V30 20 1 20 21
M  V30 21 1 21 22
M  V30 22 2 19 23
M  V30 23 1 23 24
M  V30 24 1 9 25
M  V30 25 1 9 26
M  V30 26 1 7 2
M  V30 27 2 24 13
M  V30 28 1 26 2
M  V30 29 1 25 4
M  V30 30 1 24 17
M  V30 31 1 22 20
M  V30 32 1 1 27
M  V30 33 1 1 28
M  V30 34 1 3 29
M  V30 35 1 3 30
M  V30 36 1 4 31
M  V30 37 1 5 32
M  V30 38 1 5 33
M  V30 39 1 6 34
M  V30 40 1 7 35
M  V30 41 1 7 36
M  V30 42 1 8 37
M  V30 43 1 8 38
M  V30 44 1 10 39
M  V30 45 1 14 40
M  V30 46 1 15 41
M  V30 47 1 18 42
M  V30 48 1 20 43
M  V30 49 1 21 44
M  V30 50 1 21 45
M  V30 51 1 22 46
M  V30 52 1 22 47
M  V30 53 1 25 48
M  V30 54 1 25 49
M  V30 55 1 26 50
M  V30 56 1 26 51
M  V30 END BOND
M  V30 END CTAB
M  END
>  <Dataset>  (679) 
ChEMBL_Kinases

>  <Ligand_Instance>  (679) 
nan

>  <PDB_ID>  (679) 
nan

>  <Standardized_SMILES>  (679) 
NC12CC3CC(C1)CC(NC(=O)c1ccnc4[nH]c(C5CC5)nc14)(C3)C2

>  <Name>  (679) 
nan

>  <Pocket>  (679) 
nan

>  <ATP_Site>  (679) 
nan

>  <Peripheral>  (679) 
nan

>  <Num_H_Atoms_ProtBoundConf>  (679) 
nan

>  <Num_Resolved_Atoms>  (679) 
nan

>  <Num_Not_Resolved_Atoms>  (679) 
nan

$$$$
CHEMBL3716535
     RDKit          3D

  0  0  0  0  0  0  0  0  0  0999 V3000
M  V30 BEGIN CTAB
M  V30 COUNTS 27 28 0 0 0
M  V30 BEGIN ATOM
M  V30 1 O 1.152891 -3.503984 4.946665 0
M  V30 2 C 1.273367 -3.549384 3.680071 0
M  V30 3 O 0.053362 -3.403318 3.004684 0
M  V30 4 C 2.602875 -3.739937 3.071878 0
M  V30 5 S 2.461881 -3.760884 1.249304 0
M  V30 6 C 1.954912 -2.155241 0.656094 0
M  V30 7 N 2.845052 -1.194039 0.336771 0
M  V30 8 N 2.189236 -0.114091 -0.070739 0
M  V30 9 C 0.865661 -0.357515 -0.022277 0
M  V30 10 C -0.144971 0.617028 -0.402791 0
M  V30 11 C 0.211946 1.891607 -0.847049 0
M  V30 12 C -0.687843 2.865231 -1.224205 0
M  V30 13 O -0.199580 4.086955 -1.645408 0
M  V30 14 C -2.025990 2.543164 -1.151991 0
M  V30 15 C -2.480174 1.297256 -0.721236 0
M  V30 16 C -1.500166 0.376970 -0.360647 0
M  V30 17 O -1.972630 -0.833775 0.056487 0
M  V30 18 N 0.753015 -1.606612 0.423477 0
M  V30 19 H -0.819665 -3.688641 3.444339 0
M  V30 20 H 3.073263 -4.663184 3.440375 0
M  V30 21 H 3.216487 -2.841716 3.374155 0
M  V30 22 H 1.273459 2.122072 -0.895067 0
M  V30 23 H 0.598332 4.141051 -2.265183 0
M  V30 24 H -2.737177 3.307760 -1.448748 0
M  V30 25 H -3.536141 1.069483 -0.673886 0
M  V30 26 H -2.455251 -0.928895 0.939811 0
M  V30 27 H -0.120492 -2.121726 0.583350 0
M  V30 END ATOM
M  V30 BEGIN BOND
M  V30 1 2 1 2
M  V30 2 1 2 3
M  V30 3 1 2 4
M  V30 4 1 4 5
M  V30 5 1 5 6
M  V30 6 2 6 7
M  V30 7 1 7 8
M  V30 8 2 8 9
M  V30 9 1 9 10
M  V30 10 2 10 11
M  V30 11 1 11 12
M  V30 12 1 12 13
M  V30 13 2 12 14
M  V30 14 1 14 15
M  V30 15 2 15 16
M  V30 16 1 16 17
M  V30 17 1 9 18
M  V30 18 1 18 6
M  V30 19 1 16 10
M  V30 20 1 3 19
M  V30 21 1 4 20
M  V30 22 1 4 21
M  V30 23 1 11 22
M  V30 24 1 13 23
M  V30 25 1 14 24
M  V30 26 1 15 25
M  V30 27 1 17 26
M  V30 28 1 18 27
M  V30 END BOND
M  V30 END CTAB
M  END
>  <Dataset>  (680) 
ChEMBL_Kinases

>  <Ligand_Instance>  (680) 
nan

>  <PDB_ID>  (680) 
nan

>  <Standardized_SMILES>  (680) 
O=C(O)CSc1nnc(-c2cc(O)ccc2O)[nH]1

>  <Name>  (680) 
nan

>  <Pocket>  (680) 
nan

>  <ATP_Site>  (680) 
nan

>  <Peripheral>  (680) 
nan

>  <Num_H_Atoms_ProtBoundConf>  (680) 
nan

>  <Num_Resolved_Atoms>  (680) 
nan

>  <Num_Not_Resolved_Atoms>  (680) 
nan

$$$$
CHEMBL568708
     RDKit          3D

  0  0  0  0  0  0  0  0  0  0999 V3000
M  V30 BEGIN CTAB
M  V30 COUNTS 22 23 0 0 0
M  V30 BEGIN ATOM
M  V30 1 C 0.337173 -1.087128 4.213869 0
M  V30 2 C -0.965733 -1.312865 3.515051 0
M  V30 3 O -1.276573 -0.326087 2.556279 0
M  V30 4 C -0.421997 -0.141837 1.488631 0
M  V30 5 C 0.753757 -0.755455 1.121160 0
M  V30 6 C 1.479205 -0.437578 0.011051 0
M  V30 7 C 1.069654 0.556616 -0.851093 0
M  V30 8 N 1.610247 1.017835 -1.962973 0
M  V30 9 C 1.287540 1.829058 -2.677675 0
M  V30 10 S 2.106640 2.418108 -4.223175 0
M  V30 11 S -0.332050 2.379925 -1.798373 0
M  V30 12 C -0.108403 1.178258 -0.491811 0
M  V30 13 C -0.865839 0.873545 0.632878 0
M  V30 14 H 0.156237 -0.813004 5.283390 0
M  V30 15 H 0.845837 -0.185278 3.790413 0
M  V30 16 H 0.962015 -2.002002 4.174901 0
M  V30 17 H -0.873001 -2.269750 2.925991 0
M  V30 18 H -1.806922 -1.509842 4.208406 0
M  V30 19 H 1.035351 -1.537579 1.832852 0
M  V30 20 H 2.373302 -1.032683 -0.105185 0
M  V30 21 H 3.254449 3.172647 -3.841264 0
M  V30 22 H -1.734364 1.477515 0.712933 0
M  V30 END ATOM
M  V30 BEGIN BOND
M  V30 1 1 1 2
M  V30 2 1 2 3
M  V30 3 1 3 4
M  V30 4 2 4 5
M  V30 5 1 5 6
M  V30 6 2 6 7
M  V30 7 1 7 8
M  V30 8 2 8 9
M  V30 9 1 9 10
M  V30 10 1 9 11
M  V30 11 1 11 12
M  V30 12 2 12 13
M  V30 13 1 13 4
M  V30 14 1 12 7
M  V30 15 1 1 14
M  V30 16 1 1 15
M  V30 17 1 1 16
M  V30 18 1 2 17
M  V30 19 1 2 18
M  V30 20 1 5 19
M  V30 21 1 6 20
M  V30 22 1 10 21
M  V30 23 1 13 22
M  V30 END BOND
M  V30 END CTAB
M  END
>  <Dataset>  (681) 
ChEMBL_Kinases

>  <Ligand_Instance>  (681) 
nan

>  <PDB_ID>  (681) 
nan

>  <Standardized_SMILES>  (681) 
CCOc1ccc2nc(S)sc2c1

>  <Name>  (681) 
nan

>  <Pocket>  (681) 
nan

>  <ATP_Site>  (681) 
nan

>  <Peripheral>  (681) 
nan

>  <Num_H_Atoms_ProtBoundConf>  (681) 
nan

>  <Num_Resolved_Atoms>  (681) 
nan

>  <Num_Not_Resolved_Atoms>  (681) 
nan

$$$$
CHEMBL3716516
     RDKit          3D

  0  0  0  0  0  0  0  0  0  0999 V3000
M  V30 BEGIN CTAB
M  V30 COUNTS 45 48 0 0 0
M  V30 BEGIN ATOM
M  V30 1 O -4.006821 -0.224652 4.999179 0
M  V30 2 C -3.349190 0.015731 3.965300 0
M  V30 3 C -2.611733 -1.051416 3.321682 0
M  V30 4 N -2.642629 -2.290834 3.847653 0
M  V30 5 C -1.883281 -3.118218 3.079049 0
M  V30 6 N -1.608229 -4.429494 3.193555 0
M  V30 7 C -0.805902 -5.040129 2.279080 0
M  V30 8 C -0.266101 -4.331400 1.228854 0
M  V30 9 C -0.546138 -2.986499 1.108387 0
M  V30 10 C -0.059684 -2.070161 0.054493 0
M  V30 11 O -0.336731 -2.308213 -1.143779 0
M  V30 12 N 0.709761 -0.949377 0.472493 0
M  V30 13 C 1.239041 0.012667 -0.449887 0
M  V30 14 C 2.190340 -0.593004 -1.472235 0 CFG=1
M  V30 15 C 2.646699 0.528799 -2.345606 0
M  V30 16 C 4.118198 0.766366 -2.399877 0
M  V30 17 C 4.891593 0.205127 -1.243053 0
M  V30 18 N 4.573771 -1.232214 -1.241612 0
M  V30 19 C 3.238038 -1.313897 -0.707563 0
M  V30 20 C -1.360988 -2.387510 2.045453 0
M  V30 21 N -1.828442 -1.160313 2.239648 0
M  V30 22 C -3.414632 1.367457 3.537472 0
M  V30 23 C -4.059749 2.432196 4.046505 0
M  V30 24 C -3.918241 3.624435 3.385553 0
M  V30 25 C -3.160468 3.738493 2.261882 0
M  V30 26 S -2.515481 1.969645 2.024287 0
M  V30 27 H -0.568897 -6.102621 2.351542 0
M  V30 28 H 0.377247 -4.731304 0.460598 0
M  V30 29 H 0.898539 -0.822711 1.511804 0
M  V30 30 H 1.690139 0.854413 0.081363 0
M  V30 31 H 0.375441 0.393906 -1.069203 0
M  V30 32 H 1.587131 -1.339949 -2.043508 0
M  V30 33 H 2.148778 1.512469 -2.113075 0
M  V30 34 H 2.319864 0.309625 -3.388040 0
M  V30 35 H 4.343312 1.856211 -2.488843 0
M  V30 36 H 4.584668 0.325081 -3.326817 0
M  V30 37 H 4.550350 0.612444 -0.265555 0
M  V30 38 H 5.953827 0.393060 -1.410891 0
M  V30 39 H 4.610531 -1.523959 -2.245123 0
M  V30 40 H 2.983497 -2.391830 -0.622263 0
M  V30 41 H 3.306756 -0.964023 0.359560 0
M  V30 42 H -1.623156 -0.343685 1.627389 0
M  V30 43 H -4.665497 2.360873 4.936881 0
M  V30 44 H -4.383276 4.570860 3.683588 0
M  V30 45 H -2.893419 4.484550 1.593827 0
M  V30 END ATOM
M  V30 BEGIN BOND
M  V30 1 2 1 2
M  V30 2 1 2 3
M  V30 3 2 3 4
M  V30 4 1 4 5
M  V30 5 2 5 6
M  V30 6 1 6 7
M  V30 7 2 7 8
M  V30 8 1 8 9
M  V30 9 1 9 10
M  V30 10 2 10 11
M  V30 11 1 10 12
M  V30 12 1 12 13
M  V30 13 1 13 14
M  V30 14 1 14 15
M  V30 15 1 15 16
M  V30 16 1 16 17
M  V30 17 1 17 18
M  V30 18 1 18 19
M  V30 19 2 9 20
M  V30 20 1 20 21
M  V30 21 1 2 22
M  V30 22 2 22 23
M  V30 23 1 23 24
M  V30 24 2 24 25
M  V30 25 1 25 26
M  V30 26 1 21 3
M  V30 27 1 26 22
M  V30 28 1 20 5
M  V30 29 1 19 14
M  V30 30 1 7 27
M  V30 31 1 8 28
M  V30 32 1 12 29
M  V30 33 1 13 30
M  V30 34 1 13 31
M  V30 35 1 14 32 CFG=3
M  V30 36 1 15 33
M  V30 37 1 15 34
M  V30 38 1 16 35
M  V30 39 1 16 36
M  V30 40 1 17 37
M  V30 41 1 17 38
M  V30 42 1 18 39
M  V30 43 1 19 40
M  V30 44 1 19 41
M  V30 45 1 21 42
M  V30 46 1 23 43
M  V30 47 1 24 44
M  V30 48 1 25 45
M  V30 END BOND
M  V30 END CTAB
M  END
>  <Dataset>  (682) 
ChEMBL_Kinases

>  <Ligand_Instance>  (682) 
nan

>  <PDB_ID>  (682) 
nan

>  <Standardized_SMILES>  (682) 
O=C(c1nc2nccc(C(=O)NC[C@H]3CCCNC3)c2[nH]1)c1cccs1

>  <Name>  (682) 
nan

>  <Pocket>  (682) 
nan

>  <ATP_Site>  (682) 
nan

>  <Peripheral>  (682) 
nan

>  <Num_H_Atoms_ProtBoundConf>  (682) 
nan

>  <Num_Resolved_Atoms>  (682) 
nan

>  <Num_Not_Resolved_Atoms>  (682) 
nan

$$$$
CHEMBL3716499
     RDKit          3D

  0  0  0  0  0  0  0  0  0  0999 V3000
M  V30 BEGIN CTAB
M  V30 COUNTS 47 50 0 0 0
M  V30 BEGIN ATOM
M  V30 1 O 1.821459 0.574863 1.525167 0
M  V30 2 C 1.150126 -0.358864 2.083736 0
M  V30 3 N 1.350828 -1.731933 1.805141 0
M  V30 4 C 2.336688 -2.205063 0.855834 0
M  V30 5 C 2.012575 -1.648089 -0.483268 0
M  V30 6 N 2.896350 -2.026862 -1.538728 0
M  V30 7 C 2.423283 -1.404010 -2.754400 0
M  V30 8 C 2.827634 0.026314 -2.915740 0
M  V30 9 N 4.068235 0.410171 -2.348483 0
M  V30 10 C 4.441753 -0.258059 -1.133570 0
M  V30 11 C 4.275956 -1.733045 -1.354423 0
M  V30 12 C 0.228696 0.317394 2.981820 0
M  V30 13 C 0.698522 1.101191 4.018790 0
M  V30 14 C -0.197793 1.744836 4.868863 0
M  V30 15 C -1.574850 1.596385 4.671380 0
M  V30 16 O -2.479065 2.214993 5.488042 0
M  V30 17 C -1.995221 0.791672 3.607066 0
M  V30 18 N -3.256824 0.510441 3.234885 0
M  V30 19 C -3.188181 -0.298701 2.165700 0
M  V30 20 C -4.320656 -0.855655 1.430540 0
M  V30 21 C -5.617205 -0.641056 1.700874 0
M  V30 22 C -6.593251 -1.220460 0.942287 0
M  V30 23 C -6.069706 -2.069714 -0.157183 0
M  V30 24 S -4.197386 -1.901173 0.073546 0
M  V30 25 N -1.897309 -0.519059 1.875348 0
M  V30 26 C -1.108162 0.137527 2.742958 0
M  V30 27 H 0.705452 -2.325352 2.365816 0
M  V30 28 H 3.333426 -1.911772 1.240074 0
M  V30 29 H 2.316220 -3.313417 0.881273 0
M  V30 30 H 1.004356 -2.065205 -0.769909 0
M  V30 31 H 1.859882 -0.553515 -0.493130 0
M  V30 32 H 1.312015 -1.419234 -2.693647 0
M  V30 33 H 2.702484 -2.058246 -3.600675 0
M  V30 34 H 2.018097 0.727527 -2.569744 0
M  V30 35 H 2.887954 0.226969 -4.023075 0
M  V30 36 H 4.859031 0.550765 -2.988467 0
M  V30 37 H 5.509946 -0.024636 -0.949901 0
M  V30 38 H 3.792145 0.141668 -0.333359 0
M  V30 39 H 4.767632 -1.936499 -2.351487 0
M  V30 40 H 4.816171 -2.373222 -0.647522 0
M  V30 41 H 1.771466 1.178272 4.121071 0
M  V30 42 H 0.187842 2.357342 5.678853 0
M  V30 43 H -2.677745 3.210387 5.492648 0
M  V30 44 H -4.150366 0.854355 3.688500 0
M  V30 45 H -5.953224 -0.007823 2.520023 0
M  V30 46 H -7.664674 -1.143013 1.035913 0
M  V30 47 H -6.844517 -2.613668 -0.867841 0
M  V30 END ATOM
M  V30 BEGIN BOND
M  V30 1 2 1 2
M  V30 2 1 2 3
M  V30 3 1 3 4
M  V30 4 1 4 5
M  V30 5 1 5 6
M  V30 6 1 6 7
M  V30 7 1 7 8
M  V30 8 1 8 9
M  V30 9 1 9 10
M  V30 10 1 10 11
M  V30 11 1 2 12
M  V30 12 2 12 13
M  V30 13 1 13 14
M  V30 14 2 14 15
M  V30 15 1 15 16
M  V30 16 1 15 17
M  V30 17 1 17 18
M  V30 18 1 18 19
M  V30 19 1 19 20
M  V30 20 2 20 21
M  V30 21 1 21 22
M  V30 22 2 22 23
M  V30 23 1 23 24
M  V30 24 2 19 25
M  V30 25 1 25 26
M  V30 26 1 11 6
M  V30 27 1 26 12
M  V30 28 2 26 17
M  V30 29 1 24 20
M  V30 30 1 3 27
M  V30 31 1 4 28
M  V30 32 1 4 29
M  V30 33 1 5 30
M  V30 34 1 5 31
M  V30 35 1 7 32
M  V30 36 1 7 33
M  V30 37 1 8 34
M  V30 38 1 8 35
M  V30 39 1 9 36
M  V30 40 1 10 37
M  V30 41 1 10 38
M  V30 42 1 11 39
M  V30 43 1 11 40
M  V30 44 1 13 41
M  V30 45 1 14 42
M  V30 46 1 16 43
M  V30 47 1 18 44
M  V30 48 1 21 45
M  V30 49 1 22 46
M  V30 50 1 23 47
M  V30 END BOND
M  V30 END CTAB
M  END
>  <Dataset>  (683) 
ChEMBL_Kinases

>  <Ligand_Instance>  (683) 
nan

>  <PDB_ID>  (683) 
nan

>  <Standardized_SMILES>  (683) 
O=C(NCCN1CCNCC1)c1ccc(O)c2[nH]c(-c3cccs3)nc12

>  <Name>  (683) 
nan

>  <Pocket>  (683) 
nan

>  <ATP_Site>  (683) 
nan

>  <Peripheral>  (683) 
nan

>  <Num_H_Atoms_ProtBoundConf>  (683) 
nan

>  <Num_Resolved_Atoms>  (683) 
nan

>  <Num_Not_Resolved_Atoms>  (683) 
nan

$$$$
CHEMBL568186
     RDKit          3D

  0  0  0  0  0  0  0  0  0  0999 V3000
M  V30 BEGIN CTAB
M  V30 COUNTS 45 48 0 0 0
M  V30 BEGIN ATOM
M  V30 1 C -3.398816 -4.422436 -0.936236 0
M  V30 2 N -2.082677 -3.821634 -1.195731 0
M  V30 3 C -0.978512 -4.373708 -1.730176 0
M  V30 4 C 0.034252 -3.438157 -1.787909 0
M  V30 5 C -0.466617 -2.262418 -1.267952 0
M  V30 6 C 0.078944 -0.988699 -1.068232 0
M  V30 7 C -0.680272 0.018801 -0.512479 0
M  V30 8 N -0.145432 1.346856 -0.292956 0
M  V30 9 C 1.205217 1.459138 -0.708785 0
M  V30 10 C 1.377291 1.734792 -2.028978 0
M  V30 11 C 0.299423 1.909168 -2.943054 0
M  V30 12 N -0.579254 2.039764 -3.690567 0
M  V30 13 C 2.641057 1.852678 -2.513609 0
M  V30 14 N 3.669366 1.691871 -1.667749 0
M  V30 15 C 3.461736 1.422549 -0.379119 0
M  V30 16 C 2.207283 1.288847 0.184350 0
M  V30 17 C 2.125394 1.014297 1.601083 0
M  V30 18 C 1.159972 0.874062 2.448426 0
M  V30 19 C 1.208943 0.593685 3.873473 0
M  V30 20 C 0.074617 0.479680 4.610714 0
M  V30 21 C 0.072197 0.216575 5.954597 0
M  V30 22 C 1.257364 0.050845 6.638908 0
M  V30 23 C 2.440154 0.156625 5.937096 0
M  V30 24 C 2.372833 0.421795 4.592186 0
M  V30 25 C -2.001399 -0.284320 -0.162039 0
M  V30 26 C -2.545491 -1.537589 -0.356117 0
M  V30 27 C -1.771873 -2.532844 -0.913022 0
M  V30 28 H -3.254255 -5.513566 -0.895831 0
M  V30 29 H -4.112161 -4.082584 -1.710057 0
M  V30 30 H -3.766357 -4.129616 0.082995 0
M  V30 31 H -0.968958 -5.407867 -2.043545 0
M  V30 32 H 1.036283 -3.589934 -2.168182 0
M  V30 33 H 1.105306 -0.814127 -1.358747 0
M  V30 34 H -0.790968 2.050298 0.126527 0
M  V30 35 H 2.854057 2.067627 -3.537614 0
M  V30 36 H 4.378084 1.312296 0.214730 0
M  V30 37 H 3.065615 0.881519 2.148101 0
M  V30 38 H 0.186286 0.994055 2.001849 0
M  V30 39 H -0.903265 0.594450 4.158237 0
M  V30 40 H -0.846329 0.131724 6.513445 0
M  V30 41 H 1.259432 -0.158774 7.709031 0
M  V30 42 H 3.382460 0.028799 6.460980 0
M  V30 43 H 3.332460 0.491478 4.105063 0
M  V30 44 H -2.584693 0.514269 0.272309 0
M  V30 45 H -3.579862 -1.653273 -0.045269 0
M  V30 END ATOM
M  V30 BEGIN BOND
M  V30 1 1 1 2
M  V30 2 1 2 3
M  V30 3 2 3 4
M  V30 4 1 4 5
M  V30 5 2 5 6
M  V30 6 1 6 7
M  V30 7 1 7 8
M  V30 8 1 8 9
M  V30 9 2 9 10
M  V30 10 1 10 11
M  V30 11 3 11 12
M  V30 12 1 10 13
M  V30 13 2 13 14
M  V30 14 1 14 15
M  V30 15 2 15 16
M  V30 16 1 16 17
M  V30 17 2 17 18
M  V30 18 1 18 19
M  V30 19 2 19 20
M  V30 20 1 20 21
M  V30 21 2 21 22
M  V30 22 1 22 23
M  V30 23 2 23 24
M  V30 24 2 7 25
M  V30 25 1 25 26
M  V30 26 2 26 27
M  V30 27 1 27 2
M  V30 28 1 27 5
M  V30 29 1 16 9
M  V30 30 1 24 19
M  V30 31 1 1 28
M  V30 32 1 1 29
M  V30 33 1 1 30
M  V30 34 1 3 31
M  V30 35 1 4 32
M  V30 36 1 6 33
M  V30 37 1 8 34
M  V30 38 1 13 35
M  V30 39 1 15 36
M  V30 40 1 17 37
M  V30 41 1 18 38
M  V30 42 1 20 39
M  V30 43 1 21 40
M  V30 44 1 22 41
M  V30 45 1 23 42
M  V30 46 1 24 43
M  V30 47 1 25 44
M  V30 48 1 26 45
M  V30 END BOND
M  V30 END CTAB
M  END
>  <Dataset>  (684) 
ChEMBL_Kinases

>  <Ligand_Instance>  (684) 
nan

>  <PDB_ID>  (684) 
nan

>  <Standardized_SMILES>  (684) 
Cn1ccc2cc(Nc3c(C#N)cncc3/C=C/c3ccccc3)ccc21

>  <Name>  (684) 
nan

>  <Pocket>  (684) 
nan

>  <ATP_Site>  (684) 
nan

>  <Peripheral>  (684) 
nan

>  <Num_H_Atoms_ProtBoundConf>  (684) 
nan

>  <Num_Resolved_Atoms>  (684) 
nan

>  <Num_Not_Resolved_Atoms>  (684) 
nan

$$$$
CHEMBL3716466
     RDKit          3D

  0  0  0  0  0  0  0  0  0  0999 V3000
M  V30 BEGIN CTAB
M  V30 COUNTS 31 32 0 0 0
M  V30 BEGIN ATOM
M  V30 1 C -3.057216 -2.596803 3.303860 0
M  V30 2 S -1.458151 -3.146989 2.815540 0
M  V30 3 O -1.333495 -4.601325 3.177744 0
M  V30 4 O -0.424611 -2.344311 3.549438 0
M  V30 5 C -1.156315 -2.917441 1.090630 0
M  V30 6 C -1.419957 -3.845582 0.104961 0
M  V30 7 C -1.143632 -3.555962 -1.214742 0
M  V30 8 C -0.601078 -2.348397 -1.605823 0
M  V30 9 C -0.324329 -1.392828 -0.636004 0
M  V30 10 C 0.251586 -0.074082 -0.946550 0
M  V30 11 N 0.579239 0.365533 -2.176969 0
M  V30 12 N 1.075149 1.610799 -2.085784 0
M  V30 13 C 1.056635 1.957527 -0.764850 0
M  V30 14 S 1.629644 3.546623 -0.181129 0
M  V30 15 C 3.416774 3.460325 0.226069 0
M  V30 16 C 3.546506 2.537761 1.406686 0
M  V30 17 O 3.473880 3.053743 2.543982 0
M  V30 18 O 3.740382 1.159905 1.247076 0
M  V30 19 N 0.549594 0.913985 -0.084641 0
M  V30 20 C -0.610162 -1.707817 0.676428 0
M  V30 21 H -2.980250 -1.937764 4.215343 0
M  V30 22 H -3.717015 -3.433999 3.589983 0
M  V30 23 H -3.584051 -1.980137 2.549511 0
M  V30 24 H -1.852278 -4.798168 0.446140 0
M  V30 25 H -1.370407 -4.323707 -1.959903 0
M  V30 26 H -0.384517 -2.118697 -2.633635 0
M  V30 27 H 4.016106 3.051873 -0.605551 0
M  V30 28 H 3.785070 4.460655 0.527214 0
M  V30 29 H 3.416530 0.523538 1.981952 0
M  V30 30 H 0.430410 0.922968 0.932168 0
M  V30 31 H -0.395403 -0.965537 1.426319 0
M  V30 END ATOM
M  V30 BEGIN BOND
M  V30 1 1 1 2
M  V30 2 2 2 3
M  V30 3 2 2 4
M  V30 4 1 2 5
M  V30 5 2 5 6
M  V30 6 1 6 7
M  V30 7 2 7 8
M  V30 8 1 8 9
M  V30 9 1 9 10
M  V30 10 2 10 11
M  V30 11 1 11 12
M  V30 12 2 12 13
M  V30 13 1 13 14
M  V30 14 1 14 15
M  V30 15 1 15 16
M  V30 16 2 16 17
M  V30 17 1 16 18
M  V30 18 1 13 19
M  V30 19 2 9 20
M  V30 20 1 20 5
M  V30 21 1 19 10
M  V30 22 1 1 21
M  V30 23 1 1 22
M  V30 24 1 1 23
M  V30 25 1 6 24
M  V30 26 1 7 25
M  V30 27 1 8 26
M  V30 28 1 15 27
M  V30 29 1 15 28
M  V30 30 1 18 29
M  V30 31 1 19 30
M  V30 32 1 20 31
M  V30 END BOND
M  V30 END CTAB
M  END
>  <Dataset>  (685) 
ChEMBL_Kinases

>  <Ligand_Instance>  (685) 
nan

>  <PDB_ID>  (685) 
nan

>  <Standardized_SMILES>  (685) 
CS(=O)(=O)c1cccc(-c2nnc(SCC(=O)O)[nH]2)c1

>  <Name>  (685) 
nan

>  <Pocket>  (685) 
nan

>  <ATP_Site>  (685) 
nan

>  <Peripheral>  (685) 
nan

>  <Num_H_Atoms_ProtBoundConf>  (685) 
nan

>  <Num_Resolved_Atoms>  (685) 
nan

>  <Num_Not_Resolved_Atoms>  (685) 
nan

$$$$
CHEMBL3716440
     RDKit          3D

  0  0  0  0  0  0  0  0  0  0999 V3000
M  V30 BEGIN CTAB
M  V30 COUNTS 55 58 0 0 0
M  V30 BEGIN ATOM
M  V30 1 C -0.030202 0.003414 5.063204 0
M  V30 2 C 1.370909 0.298379 4.616750 0
M  V30 3 C 1.389237 0.756811 3.204953 0
M  V30 4 O 0.274472 0.814718 2.654783 0
M  V30 5 N 2.551942 1.114992 2.484165 0
M  V30 6 C 2.682275 1.557642 1.158554 0
M  V30 7 C 1.672711 1.741989 0.246441 0
M  V30 8 C 1.818087 2.178103 -1.050327 0
M  V30 9 N 0.713802 2.348020 -1.936803 0
M  V30 10 C -0.664485 2.088302 -1.576946 0
M  V30 11 C -1.517070 2.412050 -2.812378 0
M  V30 12 C -1.160439 2.894820 -0.424787 0
M  V30 13 C -0.915409 0.618475 -1.348573 0
M  V30 14 O -2.121870 0.502349 -1.011226 0
M  V30 15 N 0.000035 -0.431702 -1.480571 0
M  V30 16 C -0.627305 -1.782978 -1.163119 0
M  V30 17 N -0.675031 -2.309539 -0.108109 0
M  V30 18 C -1.210748 -3.474795 0.186258 0
M  V30 19 C -1.319160 -4.172609 1.369499 0
M  V30 20 C -0.767528 -3.626593 2.656985 0
M  V30 21 F 0.582462 -3.438161 2.521819 0
M  V30 22 F -1.099215 -4.418978 3.715605 0
M  V30 23 F -1.351946 -2.369093 2.792650 0
M  V30 24 C -1.939048 -5.399939 1.415191 0
M  V30 25 C -2.500277 -6.051186 0.337784 0
M  V30 26 N -3.148407 -7.177352 0.003313 0
M  V30 27 N -3.435365 -7.205544 -1.289240 0
M  V30 28 C -2.982105 -6.071721 -1.897661 0
M  V30 29 C -2.415720 -5.390287 -0.868965 0
M  V30 30 C -1.781840 -4.146831 -0.887579 0
M  V30 31 S -1.475304 -2.978861 -2.275565 0
M  V30 32 C 3.107668 2.450593 -1.453916 0
M  V30 33 C 4.154207 2.285721 -0.589667 0
M  V30 34 C 3.931775 1.846093 0.692206 0
M  V30 35 Cl 5.330789 1.655762 1.754978 0
M  V30 36 H -0.741885 0.648584 4.488301 0
M  V30 37 H -0.145698 0.243785 6.159897 0
M  V30 38 H -0.324174 -1.054338 4.914756 0
M  V30 39 H 1.820676 1.092405 5.257772 0
M  V30 40 H 2.018046 -0.615248 4.744664 0
M  V30 41 H 3.395699 1.011077 3.086284 0
M  V30 42 H 0.656901 1.531218 0.540339 0
M  V30 43 H 0.962818 2.688381 -2.914169 0
M  V30 44 H -2.372585 1.728426 -2.923605 0
M  V30 45 H -0.899606 2.286569 -3.747401 0
M  V30 46 H -1.868345 3.452036 -2.801288 0
M  V30 47 H -1.992871 3.547254 -0.778561 0
M  V30 48 H -0.377850 3.595015 -0.064678 0
M  V30 49 H -1.606869 2.274245 0.395713 0
M  V30 50 H 0.947641 -0.184638 -1.766486 0
M  V30 51 H -2.026264 -5.959685 2.363525 0
M  V30 52 H -3.364487 -7.903031 0.743868 0
M  V30 53 H -3.028608 -5.742274 -2.919658 0
M  V30 54 H 3.282977 2.800308 -2.474018 0
M  V30 55 H 5.167670 2.496906 -0.897712 0
M  V30 END ATOM
M  V30 BEGIN BOND
M  V30 1 1 1 2
M  V30 2 1 2 3
M  V30 3 2 3 4
M  V30 4 1 3 5
M  V30 5 1 5 6
M  V30 6 2 6 7
M  V30 7 1 7 8
M  V30 8 1 8 9
M  V30 9 1 9 10
M  V30 10 1 10 11
M  V30 11 1 10 12
M  V30 12 1 10 13
M  V30 13 2 13 14
M  V30 14 1 13 15
M  V30 15 1 15 16
M  V30 16 2 16 17
M  V30 17 1 17 18
M  V30 18 2 18 19
M  V30 19 1 19 20
M  V30 20 1 20 21
M  V30 21 1 20 22
M  V30 22 1 20 23
M  V30 23 1 19 24
M  V30 24 2 24 25
M  V30 25 1 25 26
M  V30 26 1 26 27
M  V30 27 2 27 28
M  V30 28 1 28 29
M  V30 29 2 29 30
M  V30 30 1 30 31
M  V30 31 2 8 32
M  V30 32 1 32 33
M  V30 33 2 33 34
M  V30 34 1 34 35
M  V30 35 1 34 6
M  V30 36 1 31 16
M  V30 37 1 30 18
M  V30 38 1 29 25
M  V30 39 1 1 36
M  V30 40 1 1 37
M  V30 41 1 1 38
M  V30 42 1 2 39
M  V30 43 1 2 40
M  V30 44 1 5 41
M  V30 45 1 7 42
M  V30 46 1 9 43
M  V30 47 1 11 44
M  V30 48 1 11 45
M  V30 49 1 11 46
M  V30 50 1 12 47
M  V30 51 1 12 48
M  V30 52 1 12 49
M  V30 53 1 15 50
M  V30 54 1 24 51
M  V30 55 1 26 52
M  V30 56 1 28 53
M  V30 57 1 32 54
M  V30 58 1 33 55
M  V30 END BOND
M  V30 END CTAB
M  END
>  <Dataset>  (686) 
ChEMBL_Kinases

>  <Ligand_Instance>  (686) 
nan

>  <PDB_ID>  (686) 
nan

>  <Standardized_SMILES>  (686) 
CCC(=O)Nc1cc(NC(C)(C)C(=O)Nc2nc3c(C(F)(F)F)cc4[nH]ncc4c3s2)ccc1Cl

>  <Name>  (686) 
nan

>  <Pocket>  (686) 
nan

>  <ATP_Site>  (686) 
nan

>  <Peripheral>  (686) 
nan

>  <Num_H_Atoms_ProtBoundConf>  (686) 
nan

>  <Num_Resolved_Atoms>  (686) 
nan

>  <Num_Not_Resolved_Atoms>  (686) 
nan

$$$$
CHEMBL3716427
     RDKit          3D

  0  0  0  0  0  0  0  0  0  0999 V3000
M  V30 BEGIN CTAB
M  V30 COUNTS 48 51 0 0 0
M  V30 BEGIN ATOM
M  V30 1 C 1.354284 2.282918 2.244798 0
M  V30 2 C 1.840064 0.863896 2.433221 0
M  V30 3 C 1.800699 0.496617 3.924356 0
M  V30 4 N 3.227054 0.745775 2.031344 0
M  V30 5 C 3.714144 0.997304 0.716837 0
M  V30 6 C 5.054826 0.891338 0.326388 0
M  V30 7 C 5.445271 1.149779 -0.969539 0
M  V30 8 C 4.543073 1.523390 -1.942140 0
M  V30 9 C 3.226901 1.637435 -1.599925 0
M  V30 10 C 2.283847 2.032097 -2.633479 0
M  V30 11 O 2.718835 2.250493 -3.792919 0
M  V30 12 O 0.922917 2.193448 -2.457116 0
M  V30 13 C 2.833723 1.379240 -0.303446 0
M  V30 14 C 0.962970 -0.037407 1.689399 0
M  V30 15 O 0.886264 -0.936220 0.787020 0
M  V30 16 N -0.390859 0.147667 2.150834 0
M  V30 17 C -1.457012 -0.693341 1.506482 0
M  V30 18 N -1.822355 -1.783239 1.882636 0
M  V30 19 C -2.748395 -2.525116 1.331302 0
M  V30 20 C -3.268059 -3.766622 1.636486 0
M  V30 21 C -2.744147 -4.520423 2.822038 0
M  V30 22 F -2.931910 -3.809030 3.992476 0
M  V30 23 F -1.355264 -4.535788 2.629942 0
M  V30 24 F -3.215403 -5.794976 2.858060 0
M  V30 25 C -4.249750 -4.331713 0.887239 0
M  V30 26 C -4.842639 -3.777430 -0.232204 0
M  V30 27 N -5.765599 -4.025274 -1.147759 0
M  V30 28 N -5.874353 -3.022838 -2.023976 0
M  V30 29 C -4.991212 -2.034622 -1.707271 0
M  V30 30 C -4.372310 -2.539009 -0.593909 0
M  V30 31 C -3.368130 -1.953501 0.166940 0
M  V30 32 S -2.464154 -0.330191 0.035565 0
M  V30 33 H 2.105129 2.932803 1.747004 0
M  V30 34 H 1.065500 2.699758 3.246072 0
M  V30 35 H 0.407347 2.262095 1.673322 0
M  V30 36 H 2.760420 0.801811 4.389215 0
M  V30 37 H 1.762273 -0.610915 3.957912 0
M  V30 38 H 0.914354 0.942499 4.425093 0
M  V30 39 H 3.997544 0.457690 2.698943 0
M  V30 40 H 5.751318 0.594672 1.110887 0
M  V30 41 H 6.520307 1.037203 -1.169855 0
M  V30 42 H 4.964578 1.699653 -2.921006 0
M  V30 43 H 0.389280 2.938455 -2.888246 0
M  V30 44 H 1.775899 1.495203 -0.134979 0
M  V30 45 H -0.886482 0.735778 2.851096 0
M  V30 46 H -4.632791 -5.320425 1.167002 0
M  V30 47 H -6.321886 -4.927696 -1.138725 0
M  V30 48 H -4.782085 -1.080454 -2.168688 0
M  V30 END ATOM
M  V30 BEGIN BOND
M  V30 1 1 1 2
M  V30 2 1 2 3
M  V30 3 1 2 4
M  V30 4 1 4 5
M  V30 5 2 5 6
M  V30 6 1 6 7
M  V30 7 2 7 8
M  V30 8 1 8 9
M  V30 9 1 9 10
M  V30 10 2 10 11
M  V30 11 1 10 12
M  V30 12 2 9 13
M  V30 13 1 2 14
M  V30 14 2 14 15
M  V30 15 1 14 16
M  V30 16 1 16 17
M  V30 17 2 17 18
M  V30 18 1 18 19
M  V30 19 2 19 20
M  V30 20 1 20 21
M  V30 21 1 21 22
M  V30 22 1 21 23
M  V30 23 1 21 24
M  V30 24 1 20 25
M  V30 25 2 25 26
M  V30 26 1 26 27
M  V30 27 1 27 28
M  V30 28 2 28 29
M  V30 29 1 29 30
M  V30 30 2 30 31
M  V30 31 1 31 32
M  V30 32 1 13 5
M  V30 33 1 32 17
M  V30 34 1 31 19
M  V30 35 1 30 26
M  V30 36 1 1 33
M  V30 37 1 1 34
M  V30 38 1 1 35
M  V30 39 1 3 36
M  V30 40 1 3 37
M  V30 41 1 3 38
M  V30 42 1 4 39
M  V30 43 1 6 40
M  V30 44 1 7 41
M  V30 45 1 8 42
M  V30 46 1 12 43
M  V30 47 1 13 44
M  V30 48 1 16 45
M  V30 49 1 25 46
M  V30 50 1 27 47
M  V30 51 1 29 48
M  V30 END BOND
M  V30 END CTAB
M  END
>  <Dataset>  (687) 
ChEMBL_Kinases

>  <Ligand_Instance>  (687) 
nan

>  <PDB_ID>  (687) 
nan

>  <Standardized_SMILES>  (687) 
CC(C)(Nc1cccc(C(=O)O)c1)C(=O)Nc1nc2c(C(F)(F)F)cc3[nH]ncc3c2s1

>  <Name>  (687) 
nan

>  <Pocket>  (687) 
nan

>  <ATP_Site>  (687) 
nan

>  <Peripheral>  (687) 
nan

>  <Num_H_Atoms_ProtBoundConf>  (687) 
nan

>  <Num_Resolved_Atoms>  (687) 
nan

>  <Num_Not_Resolved_Atoms>  (687) 
nan

$$$$
CHEMBL3716418
     RDKit          3D

  0  0  0  0  0  0  0  0  0  0999 V3000
M  V30 BEGIN CTAB
M  V30 COUNTS 29 30 0 0 0
M  V30 BEGIN ATOM
M  V30 1 C -2.282295 -3.382720 1.531059 0
M  V30 2 C -0.853591 -3.000252 1.685918 0
M  V30 3 C -0.010180 -3.974824 2.190806 0
M  V30 4 C 1.354168 -3.761518 2.391981 0
M  V30 5 C 1.863793 -2.516310 2.065692 0
M  V30 6 O 3.217030 -2.263725 2.251110 0
M  V30 7 C 1.044081 -1.544275 1.566410 0
M  V30 8 C 1.554520 -0.200839 1.209474 0
M  V30 9 N 2.857841 0.154495 1.359596 0
M  V30 10 N 2.968678 1.425464 0.949414 0
M  V30 11 C 1.752253 1.850880 0.551798 0
M  V30 12 S 1.307425 3.484382 -0.089150 0
M  V30 13 C -0.478753 3.440937 -0.463062 0
M  V30 14 C -0.676091 2.497693 -1.604216 0
M  V30 15 O -1.779282 2.216230 -2.137666 0
M  V30 16 O 0.364632 1.791993 -2.238153 0
M  V30 17 N 0.874379 0.844849 0.711464 0
M  V30 18 C -0.308012 -1.773391 1.373596 0
M  V30 19 H -2.769859 -2.655414 0.880944 0
M  V30 20 H -2.343209 -4.426417 1.159428 0
M  V30 21 H -2.769775 -3.397296 2.539321 0
M  V30 22 H -0.360073 -4.967698 2.463087 0
M  V30 23 H 1.994036 -4.542045 2.789453 0
M  V30 24 H 3.868618 -2.203940 1.466218 0
M  V30 25 H -0.914550 4.418716 -0.643421 0
M  V30 26 H -1.004995 3.004063 0.439350 0
M  V30 27 H 0.412424 1.659737 -3.241333 0
M  V30 28 H -0.132120 0.824099 0.508064 0
M  V30 29 H -1.028197 -1.055272 0.981510 0
M  V30 END ATOM
M  V30 BEGIN BOND
M  V30 1 1 1 2
M  V30 2 2 2 3
M  V30 3 1 3 4
M  V30 4 2 4 5
M  V30 5 1 5 6
M  V30 6 1 5 7
M  V30 7 1 7 8
M  V30 8 2 8 9
M  V30 9 1 9 10
M  V30 10 2 10 11
M  V30 11 1 11 12
M  V30 12 1 12 13
M  V30 13 1 13 14
M  V30 14 2 14 15
M  V30 15 1 14 16
M  V30 16 1 11 17
M  V30 17 2 7 18
M  V30 18 1 18 2
M  V30 19 1 17 8
M  V30 20 1 1 19
M  V30 21 1 1 20
M  V30 22 1 1 21
M  V30 23 1 3 22
M  V30 24 1 4 23
M  V30 25 1 6 24
M  V30 26 1 13 25
M  V30 27 1 13 26
M  V30 28 1 16 27
M  V30 29 1 17 28
M  V30 30 1 18 29
M  V30 END BOND
M  V30 END CTAB
M  END
>  <Dataset>  (688) 
ChEMBL_Kinases

>  <Ligand_Instance>  (688) 
nan

>  <PDB_ID>  (688) 
nan

>  <Standardized_SMILES>  (688) 
Cc1ccc(O)c(-c2nnc(SCC(=O)O)[nH]2)c1

>  <Name>  (688) 
nan

>  <Pocket>  (688) 
nan

>  <ATP_Site>  (688) 
nan

>  <Peripheral>  (688) 
nan

>  <Num_H_Atoms_ProtBoundConf>  (688) 
nan

>  <Num_Resolved_Atoms>  (688) 
nan

>  <Num_Not_Resolved_Atoms>  (688) 
nan

$$$$
CHEMBL568875
     RDKit          3D

  0  0  0  0  0  0  0  0  0  0999 V3000
M  V30 BEGIN CTAB
M  V30 COUNTS 50 52 0 0 0
M  V30 BEGIN ATOM
M  V30 1 C 0.923970 -4.638951 2.589670 0
M  V30 2 C 0.973581 -3.772967 1.407409 0
M  V30 3 C 0.980007 -4.327218 0.146401 0
M  V30 4 C 1.024437 -3.622289 -1.029252 0
M  V30 5 C 1.064947 -2.251726 -0.891695 0
M  V30 6 C 1.063217 -1.569527 0.333148 0
M  V30 7 N 1.124389 -0.157380 0.409501 0
M  V30 8 N 2.409421 0.197035 0.452804 0
M  V30 9 C 2.500471 1.527775 0.525340 0
M  V30 10 C 3.656734 2.484274 0.598225 0
M  V30 11 C 4.901422 1.650060 0.577559 0
M  V30 12 C 3.518637 3.332571 1.822092 0
M  V30 13 C 3.610612 3.287887 -0.689008 0
M  V30 14 C 1.236852 2.045589 0.528856 0
M  V30 15 C 0.396317 0.962393 0.455236 0
M  V30 16 N -0.997126 0.899737 0.425344 0
M  V30 17 C -2.115287 0.068373 0.360122 0
M  V30 18 O -1.640197 -1.081769 0.308624 0
M  V30 19 N -3.502953 0.317315 0.346657 0
M  V30 20 C -4.267304 -0.909229 0.267443 0
M  V30 21 C -4.546747 -1.385973 1.542174 0
M  V30 22 C -5.271132 -2.553516 1.702992 0
M  V30 23 C -5.698444 -3.215518 0.567453 0
M  V30 24 Cl -6.619697 -4.699783 0.745318 0
M  V30 25 C -5.413870 -2.730440 -0.711505 0
M  V30 26 C -4.700037 -1.580206 -0.855983 0
M  V30 27 C 1.015737 -2.399354 1.463141 0
M  V30 28 H 1.753337 -5.401028 2.600240 0
M  V30 29 H -0.030005 -5.239320 2.535316 0
M  V30 30 H 0.905993 -4.067174 3.529024 0
M  V30 31 H 0.947109 -5.415740 0.075057 0
M  V30 32 H 1.028748 -4.075970 -2.010647 0
M  V30 33 H 1.101972 -1.591159 -1.748712 0
M  V30 34 H 5.132301 1.376498 -0.471705 0
M  V30 35 H 5.736733 2.180705 1.078455 0
M  V30 36 H 4.679665 0.714733 1.151032 0
M  V30 37 H 4.160272 2.919015 2.621989 0
M  V30 38 H 2.483856 3.339136 2.257025 0
M  V30 39 H 3.842362 4.386929 1.644792 0
M  V30 40 H 3.302249 2.566866 -1.498154 0
M  V30 41 H 4.597030 3.674075 -0.980084 0
M  V30 42 H 2.824960 4.060281 -0.668078 0
M  V30 43 H 0.886097 3.075919 0.577000 0
M  V30 44 H -1.432278 1.843320 0.466745 0
M  V30 45 H -3.731746 1.314558 0.394774 0
M  V30 46 H -4.253777 -0.935616 2.482404 0
M  V30 47 H -5.528443 -2.988186 2.678655 0
M  V30 48 H -5.735691 -3.228176 -1.605017 0
M  V30 49 H -4.409026 -1.092545 -1.777855 0
M  V30 50 H 1.011844 -1.935723 2.438940 0
M  V30 END ATOM
M  V30 BEGIN BOND
M  V30 1 1 1 2
M  V30 2 2 2 3
M  V30 3 1 3 4
M  V30 4 2 4 5
M  V30 5 1 5 6
M  V30 6 1 6 7
M  V30 7 1 7 8
M  V30 8 2 8 9
M  V30 9 1 9 10
M  V30 10 1 10 11
M  V30 11 1 10 12
M  V30 12 1 10 13
M  V30 13 1 9 14
M  V30 14 2 14 15
M  V30 15 1 15 16
M  V30 16 1 16 17
M  V30 17 2 17 18
M  V30 18 1 17 19
M  V30 19 1 19 20
M  V30 20 2 20 21
M  V30 21 1 21 22
M  V30 22 2 22 23
M  V30 23 1 23 24
M  V30 24 1 23 25
M  V30 25 2 25 26
M  V30 26 2 6 27
M  V30 27 1 27 2
M  V30 28 1 15 7
M  V30 29 1 26 20
M  V30 30 1 1 28
M  V30 31 1 1 29
M  V30 32 1 1 30
M  V30 33 1 3 31
M  V30 34 1 4 32
M  V30 35 1 5 33
M  V30 36 1 11 34
M  V30 37 1 11 35
M  V30 38 1 11 36
M  V30 39 1 12 37
M  V30 40 1 12 38
M  V30 41 1 12 39
M  V30 42 1 13 40
M  V30 43 1 13 41
M  V30 44 1 13 42
M  V30 45 1 14 43
M  V30 46 1 16 44
M  V30 47 1 19 45
M  V30 48 1 21 46
M  V30 49 1 22 47
M  V30 50 1 25 48
M  V30 51 1 26 49
M  V30 52 1 27 50
M  V30 END BOND
M  V30 END CTAB
M  END
>  <Dataset>  (689) 
ChEMBL_Kinases

>  <Ligand_Instance>  (689) 
nan

>  <PDB_ID>  (689) 
nan

>  <Standardized_SMILES>  (689) 
Cc1cccc(-n2nc(C(C)(C)C)cc2NC(=O)Nc2ccc(Cl)cc2)c1

>  <Name>  (689) 
nan

>  <Pocket>  (689) 
nan

>  <ATP_Site>  (689) 
nan

>  <Peripheral>  (689) 
nan

>  <Num_H_Atoms_ProtBoundConf>  (689) 
nan

>  <Num_Resolved_Atoms>  (689) 
nan

>  <Num_Not_Resolved_Atoms>  (689) 
nan

$$$$
CHEMBL3716414
     RDKit          3D

  0  0  0  0  0  0  0  0  0  0999 V3000
M  V30 BEGIN CTAB
M  V30 COUNTS 63 69 0 0 0
M  V30 BEGIN ATOM
M  V30 1 N 3.797099 -0.192249 2.703732 0
M  V30 2 C 3.389716 0.500052 1.513947 0
M  V30 3 C 4.033541 -0.076716 0.291072 0
M  V30 4 C 3.658363 0.736466 -0.923110 0
M  V30 5 C 4.015831 2.201229 -0.752276 0
M  V30 6 C 3.266572 2.699454 0.441687 0
M  V30 7 C 3.769050 1.946418 1.657968 0
M  V30 8 C 1.763484 2.592641 0.287082 0
M  V30 9 C 1.424464 1.152140 0.125716 0
M  V30 10 N 0.050926 0.839961 -0.121441 0
M  V30 11 C -0.926730 1.221814 0.847204 0
M  V30 12 O -0.668218 1.820240 1.913689 0
M  V30 13 C -2.365855 1.044467 0.875454 0
M  V30 14 C -3.289548 2.084175 1.038954 0
M  V30 15 C -4.651238 1.901256 1.067052 0
M  V30 16 C -5.138643 0.633355 0.928009 0
M  V30 17 O -6.519657 0.377013 0.947836 0
M  V30 18 C -4.319351 -0.462113 0.761339 0
M  V30 19 N -4.421166 -1.799018 0.598474 0
M  V30 20 C -3.214628 -2.390739 0.479286 0
M  V30 21 C -3.189667 -3.851429 0.304202 0
M  V30 22 C -2.234857 -4.544554 1.259785 0
M  V30 23 C -1.258660 -5.214985 0.320331 0
M  V30 24 C -0.474831 -4.121684 -0.337926 0
M  V30 25 C -1.429994 -3.511426 -1.370054 0
M  V30 26 C -2.720184 -4.187011 -1.072283 0
M  V30 27 C -2.207348 -5.617939 -0.818830 0
M  V30 28 N -2.361036 -1.387752 0.572304 0
M  V30 29 C -2.967089 -0.194908 0.743904 0
M  V30 30 C 2.180077 0.658419 -1.114593 0
M  V30 31 C 1.876820 0.402316 1.357133 0
M  V30 32 H 3.007608 -0.762735 3.071703 0
M  V30 33 H 4.144812 0.459446 3.464980 0
M  V30 34 H 5.128097 -0.195448 0.406687 0
M  V30 35 H 3.631909 -1.099679 0.141676 0
M  V30 36 H 4.137102 0.371120 -1.841744 0
M  V30 37 H 5.087955 2.305416 -0.549691 0
M  V30 38 H 3.703965 2.716155 -1.682501 0
M  V30 39 H 3.487598 3.794870 0.542516 0
M  V30 40 H 4.874283 2.019613 1.645459 0
M  V30 41 H 3.398263 2.389112 2.603594 0
M  V30 42 H 1.499148 3.216673 -0.587442 0
M  V30 43 H 1.362735 3.018432 1.250017 0
M  V30 44 H -0.440489 0.356623 -0.914063 0
M  V30 45 H -2.879608 3.095241 1.149206 0
M  V30 46 H -5.332302 2.731985 1.195324 0
M  V30 47 H -6.950408 0.175499 1.863008 0
M  V30 48 H -5.418418 -2.160031 0.591121 0
M  V30 49 H -4.210928 -4.299502 0.472606 0
M  V30 50 H -1.660088 -3.810369 1.863964 0
M  V30 51 H -2.712421 -5.322460 1.872495 0
M  V30 52 H -0.687179 -6.036078 0.732811 0
M  V30 53 H 0.465381 -4.482598 -0.797044 0
M  V30 54 H -0.225736 -3.352146 0.425024 0
M  V30 55 H -1.447224 -2.422155 -1.324319 0
M  V30 56 H -1.052185 -3.890031 -2.352766 0
M  V30 57 H -3.485783 -4.142348 -1.850723 0
M  V30 58 H -3.050936 -6.235453 -0.460891 0
M  V30 59 H -1.664731 -6.013018 -1.676373 0
M  V30 60 H 1.809980 -0.317965 -1.441350 0
M  V30 61 H 1.921208 1.418205 -1.906303 0
M  V30 62 H 1.463404 0.935985 2.239736 0
M  V30 63 H 1.572280 -0.653819 1.347928 0
M  V30 END ATOM
M  V30 BEGIN BOND
M  V30 1 1 1 2
M  V30 2 1 2 3
M  V30 3 1 3 4
M  V30 4 1 4 5
M  V30 5 1 5 6
M  V30 6 1 6 7
M  V30 7 1 6 8
M  V30 8 1 8 9
M  V30 9 1 9 10
M  V30 10 1 10 11
M  V30 11 2 11 12
M  V30 12 1 11 13
M  V30 13 1 13 14
M  V30 14 2 14 15
M  V30 15 1 15 16
M  V30 16 1 16 17
M  V30 17 2 16 18
M  V30 18 1 18 19
M  V30 19 1 19 20
M  V30 20 1 20 21
M  V30 21 1 21 22
M  V30 22 1 22 23
M  V30 23 1 23 24
M  V30 24 1 24 25
M  V30 25 1 25 26
M  V30 26 1 26 27
M  V30 27 2 20 28
M  V30 28 1 28 29
M  V30 29 1 9 30
M  V30 30 1 9 31
M  V30 31 1 7 2
M  V30 32 2 29 13
M  V30 33 1 31 2
M  V30 34 1 30 4
M  V30 35 1 29 18
M  V30 36 1 26 21
M  V30 37 1 27 23
M  V30 38 1 1 32
M  V30 39 1 1 33
M  V30 40 1 3 34
M  V30 41 1 3 35
M  V30 42 1 4 36
M  V30 43 1 5 37
M  V30 44 1 5 38
M  V30 45 1 6 39
M  V30 46 1 7 40
M  V30 47 1 7 41
M  V30 48 1 8 42
M  V30 49 1 8 43
M  V30 50 1 10 44
M  V30 51 1 14 45
M  V30 52 1 15 46
M  V30 53 1 17 47
M  V30 54 1 19 48
M  V30 55 1 21 49
M  V30 56 1 22 50
M  V30 57 1 22 51
M  V30 58 1 23 52
M  V30 59 1 24 53
M  V30 60 1 24 54
M  V30 61 1 25 55
M  V30 62 1 25 56
M  V30 63 1 26 57
M  V30 64 1 27 58
M  V30 65 1 27 59
M  V30 66 1 30 60
M  V30 67 1 30 61
M  V30 68 1 31 62
M  V30 69 1 31 63
M  V30 END BOND
M  V30 END CTAB
M  END
>  <Dataset>  (690) 
ChEMBL_Kinases

>  <Ligand_Instance>  (690) 
nan

>  <PDB_ID>  (690) 
nan

>  <Standardized_SMILES>  (690) 
NC12CC3CC(C1)CC(NC(=O)c1ccc(O)c4[nH]c(C5CC6CCC5C6)nc14)(C3)C2

>  <Name>  (690) 
nan

>  <Pocket>  (690) 
nan

>  <ATP_Site>  (690) 
nan

>  <Peripheral>  (690) 
nan

>  <Num_H_Atoms_ProtBoundConf>  (690) 
nan

>  <Num_Resolved_Atoms>  (690) 
nan

>  <Num_Not_Resolved_Atoms>  (690) 
nan

$$$$
CHEMBL3716413
     RDKit          3D

  0  0  0  0  0  0  0  0  0  0999 V3000
M  V30 BEGIN CTAB
M  V30 COUNTS 36 38 0 0 0
M  V30 BEGIN ATOM
M  V30 1 N 2.102060 -4.967971 2.805759 0
M  V30 2 C 1.965950 -4.589471 1.719840 0
M  V30 3 C 1.779589 -4.114370 0.358437 0
M  V30 4 C 1.757704 -4.969961 -0.727644 0
M  V30 5 C 1.577095 -4.455437 -2.004732 0
M  V30 6 C 1.422957 -3.079841 -2.144277 0
M  V30 7 C 1.442452 -2.214367 -1.070876 0
M  V30 8 C 1.281039 -0.770028 -1.218186 0
M  V30 9 C 1.771634 -0.222442 -2.387357 0
M  V30 10 C 1.629368 1.154514 -2.551627 0
M  V30 11 C 1.025338 1.937257 -1.589701 0
M  V30 12 C 0.535063 1.385555 -0.419771 0
M  V30 13 C -0.113505 2.170344 0.628465 0
M  V30 14 N -0.281679 3.510449 0.521196 0
M  V30 15 N -0.903352 3.942973 1.630909 0
M  V30 16 C -1.102422 2.846726 2.397919 0
M  V30 17 S -1.903266 2.886455 3.993111 0
M  V30 18 C -1.975657 1.190190 4.665726 0
M  V30 19 C -2.899681 0.432706 3.750892 0
M  V30 20 O -3.196559 -0.792434 3.908845 0
M  V30 21 O -3.542668 0.973380 2.622568 0
M  V30 22 N -0.628042 1.726303 1.814733 0
M  V30 23 C 0.679085 0.029802 -0.265853 0
M  V30 24 C 1.624459 -2.736676 0.211802 0
M  V30 25 H 1.883457 -6.018984 -0.543137 0
M  V30 26 H 1.561932 -5.131523 -2.844301 0
M  V30 27 H 1.284953 -2.704895 -3.140745 0
M  V30 28 H 2.249712 -0.802074 -3.161386 0
M  V30 29 H 1.980137 1.683368 -3.432262 0
M  V30 30 H 0.912065 3.015611 -1.714600 0
M  V30 31 H -2.387501 1.189790 5.693512 0
M  V30 32 H -0.984993 0.694766 4.684229 0
M  V30 33 H -3.656922 0.432660 1.761036 0
M  V30 34 H -0.629517 0.747236 2.143770 0
M  V30 35 H 0.312470 -0.451811 0.631403 0
M  V30 36 H 1.640908 -2.054671 1.067286 0
M  V30 END ATOM
M  V30 BEGIN BOND
M  V30 1 3 1 2
M  V30 2 1 2 3
M  V30 3 2 3 4
M  V30 4 1 4 5
M  V30 5 2 5 6
M  V30 6 1 6 7
M  V30 7 1 7 8
M  V30 8 2 8 9
M  V30 9 1 9 10
M  V30 10 2 10 11
M  V30 11 1 11 12
M  V30 12 1 12 13
M  V30 13 2 13 14
M  V30 14 1 14 15
M  V30 15 2 15 16
M  V30 16 1 16 17
M  V30 17 1 17 18
M  V30 18 1 18 19
M  V30 19 2 19 20
M  V30 20 1 19 21
M  V30 21 1 16 22
M  V30 22 2 12 23
M  V30 23 2 7 24
M  V30 24 1 24 3
M  V30 25 1 23 8
M  V30 26 1 22 13
M  V30 27 1 4 25
M  V30 28 1 5 26
M  V30 29 1 6 27
M  V30 30 1 9 28
M  V30 31 1 10 29
M  V30 32 1 11 30
M  V30 33 1 18 31
M  V30 34 1 18 32
M  V30 35 1 21 33
M  V30 36 1 22 34
M  V30 37 1 23 35
M  V30 38 1 24 36
M  V30 END BOND
M  V30 END CTAB
M  END
>  <Dataset>  (691) 
ChEMBL_Kinases

>  <Ligand_Instance>  (691) 
nan

>  <PDB_ID>  (691) 
nan

>  <Standardized_SMILES>  (691) 
N#Cc1cccc(-c2cccc(-c3nnc(SCC(=O)O)[nH]3)c2)c1

>  <Name>  (691) 
nan

>  <Pocket>  (691) 
nan

>  <ATP_Site>  (691) 
nan

>  <Peripheral>  (691) 
nan

>  <Num_H_Atoms_ProtBoundConf>  (691) 
nan

>  <Num_Resolved_Atoms>  (691) 
nan

>  <Num_Not_Resolved_Atoms>  (691) 
nan

$$$$
CHEMBL3716396
     RDKit          3D

  0  0  0  0  0  0  0  0  0  0999 V3000
M  V30 BEGIN CTAB
M  V30 COUNTS 43 46 0 0 0
M  V30 BEGIN ATOM
M  V30 1 O 1.729076 0.962892 3.109974 0
M  V30 2 C 0.627519 0.358824 2.966562 0
M  V30 3 N 0.611935 -1.037816 2.702584 0
M  V30 4 C 1.787110 -1.863117 2.579942 0
M  V30 5 C 2.707661 -1.397227 1.463954 0 CFG=2
M  V30 6 C 2.063163 -1.407281 0.113100 0
M  V30 7 C 3.109986 -1.573329 -0.998220 0
M  V30 8 C 4.403333 -1.036768 -0.434863 0
M  V30 9 N 4.890536 -1.994094 0.531658 0
M  V30 10 C 3.911276 -2.319515 1.524871 0
M  V30 11 C -0.558517 1.174935 3.086209 0
M  V30 12 C -0.790013 2.053852 4.144334 0
M  V30 13 C -1.982056 2.780450 4.131773 0
M  V30 14 N -2.890955 2.657619 3.149568 0
M  V30 15 C -2.733437 1.835828 2.109668 0
M  V30 16 N -3.418955 1.480038 0.999325 0
M  V30 17 C -2.715100 0.574909 0.323190 0
M  V30 18 C -3.202349 -0.019751 -0.954824 0
M  V30 19 C -2.442113 -0.941902 -1.659511 0
M  V30 20 C -2.961340 -1.450975 -2.813779 0
M  V30 21 C -4.286798 -0.946767 -3.174725 0
M  V30 22 Br -5.280517 -1.498293 -4.786102 0
M  V30 23 S -4.614566 0.241702 -1.732531 0
M  V30 24 N -1.593438 0.358556 1.002056 0
M  V30 25 C -1.555485 1.110404 2.110531 0
M  V30 26 H -0.316700 -1.528876 2.590408 0
M  V30 27 H 1.553340 -2.917029 2.349700 0
M  V30 28 H 2.396691 -1.870253 3.511077 0
M  V30 29 H 3.058313 -0.382645 1.751065 0
M  V30 30 H 1.683343 -0.353838 -0.041332 0
M  V30 31 H 1.262142 -2.165790 0.048352 0
M  V30 32 H 2.867916 -0.948410 -1.876620 0
M  V30 33 H 3.197313 -2.638724 -1.318034 0
M  V30 34 H 4.189849 -0.078112 0.075868 0
M  V30 35 H 5.180394 -0.933877 -1.222358 0
M  V30 36 H 5.154105 -2.861599 -0.036802 0
M  V30 37 H 3.634726 -3.386540 1.412347 0
M  V30 38 H 4.368076 -2.202148 2.525460 0
M  V30 39 H -0.042154 2.127281 4.916511 0
M  V30 40 H -2.135272 3.450107 4.952086 0
M  V30 41 H -1.461765 -1.285534 -1.361067 0
M  V30 42 H -2.524822 -2.170381 -3.491860 0
M  V30 43 H -0.906482 -0.336185 0.609249 0
M  V30 END ATOM
M  V30 BEGIN BOND
M  V30 1 2 1 2
M  V30 2 1 2 3
M  V30 3 1 3 4
M  V30 4 1 4 5
M  V30 5 1 5 6
M  V30 6 1 6 7
M  V30 7 1 7 8
M  V30 8 1 8 9
M  V30 9 1 9 10
M  V30 10 1 2 11
M  V30 11 2 11 12
M  V30 12 1 12 13
M  V30 13 2 13 14
M  V30 14 1 14 15
M  V30 15 1 15 16
M  V30 16 2 16 17
M  V30 17 1 17 18
M  V30 18 2 18 19
M  V30 19 1 19 20
M  V30 20 2 20 21
M  V30 21 1 21 22
M  V30 22 1 21 23
M  V30 23 1 17 24
M  V30 24 1 24 25
M  V30 25 1 10 5
M  V30 26 1 25 11
M  V30 27 2 25 15
M  V30 28 1 23 18
M  V30 29 1 3 26
M  V30 30 1 4 27
M  V30 31 1 4 28
M  V30 32 1 5 29 CFG=1
M  V30 33 1 6 30
M  V30 34 1 6 31
M  V30 35 1 7 32
M  V30 36 1 7 33
M  V30 37 1 8 34
M  V30 38 1 8 35
M  V30 39 1 9 36
M  V30 40 1 10 37
M  V30 41 1 10 38
M  V30 42 1 12 39
M  V30 43 1 13 40
M  V30 44 1 19 41
M  V30 45 1 20 42
M  V30 46 1 24 43
M  V30 END BOND
M  V30 END CTAB
M  END
>  <Dataset>  (692) 
ChEMBL_Kinases

>  <Ligand_Instance>  (692) 
nan

>  <PDB_ID>  (692) 
nan

>  <Standardized_SMILES>  (692) 
O=C(NC[C@@H]1CCCNC1)c1ccnc2nc(-c3ccc(Br)s3)[nH]c12

>  <Name>  (692) 
nan

>  <Pocket>  (692) 
nan

>  <ATP_Site>  (692) 
nan

>  <Peripheral>  (692) 
nan

>  <Num_H_Atoms_ProtBoundConf>  (692) 
nan

>  <Num_Resolved_Atoms>  (692) 
nan

>  <Num_Not_Resolved_Atoms>  (692) 
nan

$$$$
CHEMBL3716391
     RDKit          3D

  0  0  0  0  0  0  0  0  0  0999 V3000
M  V30 BEGIN CTAB
M  V30 COUNTS 61 64 0 0 0
M  V30 BEGIN ATOM
M  V30 1 C 1.979944 -1.407205 3.554551 0
M  V30 2 C 0.694789 -0.695003 3.209028 0
M  V30 3 C 0.104324 -0.132097 4.487366 0
M  V30 4 N 0.979234 0.324789 2.249348 0
M  V30 5 C 1.520658 0.106856 0.966434 0
M  V30 6 C 1.837166 -1.147611 0.495770 0
M  V30 7 C 2.362735 -1.304511 -0.767344 0
M  V30 8 C 2.596847 -0.230434 -1.615803 0
M  V30 9 C 2.285222 1.009741 -1.153323 0
M  V30 10 C 2.535740 2.152142 -2.058055 0
M  V30 11 O 3.005556 1.831388 -3.200927 0
M  V30 12 N 2.328077 3.572253 -1.839508 0
M  V30 13 C 2.747886 4.177468 -3.064969 0
M  V30 14 C 2.639857 5.647283 -3.124463 0
M  V30 15 C 1.276312 6.196461 -3.015110 0
M  V30 16 C 0.512577 6.008977 -1.783708 0
M  V30 17 O 0.444845 5.584652 -0.581750 0
M  V30 18 O -0.772584 6.537887 -1.975887 0
M  V30 19 C 1.759724 1.161144 0.110848 0
M  V30 20 C -0.317364 -1.661571 2.640436 0
M  V30 21 O -0.988085 -1.824706 1.570298 0
M  V30 22 N -0.687248 -2.755179 3.507681 0
M  V30 23 C -1.652889 -3.599632 2.849713 0
M  V30 24 N -1.473809 -4.561033 2.156110 0
M  V30 25 C -2.387163 -5.300556 1.574034 0
M  V30 26 C -2.235084 -6.412865 0.769004 0
M  V30 27 C -0.902821 -6.973619 0.422283 0
M  V30 28 F -0.156939 -5.997726 -0.249503 0
M  V30 29 F -0.198272 -7.351255 1.530049 0
M  V30 30 F -1.019600 -8.014208 -0.464895 0
M  V30 31 C -3.344380 -7.043736 0.256990 0
M  V30 32 C -4.656883 -6.679631 0.462094 0
M  V30 33 N -5.912152 -7.032975 0.146084 0
M  V30 34 N -6.803290 -6.225760 0.694220 0
M  V30 35 C -6.165880 -5.284685 1.410873 0
M  V30 36 C -4.826017 -5.570844 1.263964 0
M  V30 37 C -3.697217 -4.924127 1.788429 0
M  V30 38 S -3.517461 -3.488655 2.844974 0
M  V30 39 H 2.241047 -1.177431 4.606597 0
M  V30 40 H 1.878166 -2.507745 3.422758 0
M  V30 41 H 2.813367 -1.032296 2.933063 0
M  V30 42 H 0.324097 0.953354 4.545149 0
M  V30 43 H 0.574266 -0.594636 5.382112 0
M  V30 44 H -0.987439 -0.330269 4.538098 0
M  V30 45 H 0.760699 1.309358 2.540965 0
M  V30 46 H 1.689378 -2.039026 1.086387 0
M  V30 47 H 2.603938 -2.306298 -1.113829 0
M  V30 48 H 3.015525 -0.467502 -2.593400 0
M  V30 49 H 1.964887 3.546800 -0.876633 0
M  V30 50 H 3.820608 3.882855 -3.304397 0
M  V30 51 H 2.194822 3.726652 -3.952609 0
M  V30 52 H 3.053424 5.965886 -4.119471 0
M  V30 53 H 3.349334 6.122131 -2.387634 0
M  V30 54 H 1.257028 7.313963 -3.250571 0
M  V30 55 H 0.683278 5.760455 -3.875175 0
M  V30 56 H -1.506340 6.579762 -1.316014 0
M  V30 57 H 1.508840 2.140941 0.488083 0
M  V30 58 H -0.332530 -2.943703 4.473512 0
M  V30 59 H -3.222664 -7.932667 -0.386245 0
M  V30 60 H -6.078019 -7.874039 -0.475465 0
M  V30 61 H -6.529882 -4.448579 2.004813 0
M  V30 END ATOM
M  V30 BEGIN BOND
M  V30 1 1 1 2
M  V30 2 1 2 3
M  V30 3 1 2 4
M  V30 4 1 4 5
M  V30 5 2 5 6
M  V30 6 1 6 7
M  V30 7 2 7 8
M  V30 8 1 8 9
M  V30 9 1 9 10
M  V30 10 2 10 11
M  V30 11 1 10 12
M  V30 12 1 12 13
M  V30 13 1 13 14
M  V30 14 1 14 15
M  V30 15 1 15 16
M  V30 16 2 16 17
M  V30 17 1 16 18
M  V30 18 2 9 19
M  V30 19 1 2 20
M  V30 20 2 20 21
M  V30 21 1 20 22
M  V30 22 1 22 23
M  V30 23 2 23 24
M  V30 24 1 24 25
M  V30 25 2 25 26
M  V30 26 1 26 27
M  V30 27 1 27 28
M  V30 28 1 27 29
M  V30 29 1 27 30
M  V30 30 1 26 31
M  V30 31 2 31 32
M  V30 32 1 32 33
M  V30 33 1 33 34
M  V30 34 2 34 35
M  V30 35 1 35 36
M  V30 36 2 36 37
M  V30 37 1 37 38
M  V30 38 1 19 5
M  V30 39 1 38 23
M  V30 40 1 37 25
M  V30 41 1 36 32
M  V30 42 1 1 39
M  V30 43 1 1 40
M  V30 44 1 1 41
M  V30 45 1 3 42
M  V30 46 1 3 43
M  V30 47 1 3 44
M  V30 48 1 4 45
M  V30 49 1 6 46
M  V30 50 1 7 47
M  V30 51 1 8 48
M  V30 52 1 12 49
M  V30 53 1 13 50
M  V30 54 1 13 51
M  V30 55 1 14 52
M  V30 56 1 14 53
M  V30 57 1 15 54
M  V30 58 1 15 55
M  V30 59 1 18 56
M  V30 60 1 19 57
M  V30 61 1 22 58
M  V30 62 1 31 59
M  V30 63 1 33 60
M  V30 64 1 35 61
M  V30 END BOND
M  V30 END CTAB
M  END
>  <Dataset>  (693) 
ChEMBL_Kinases

>  <Ligand_Instance>  (693) 
nan

>  <PDB_ID>  (693) 
nan

>  <Standardized_SMILES>  (693) 
CC(C)(Nc1cccc(C(=O)NCCCC(=O)O)c1)C(=O)Nc1nc2c(C(F)(F)F)cc3[nH]ncc3c2s1

>  <Name>  (693) 
nan

>  <Pocket>  (693) 
nan

>  <ATP_Site>  (693) 
nan

>  <Peripheral>  (693) 
nan

>  <Num_H_Atoms_ProtBoundConf>  (693) 
nan

>  <Num_Resolved_Atoms>  (693) 
nan

>  <Num_Not_Resolved_Atoms>  (693) 
nan

$$$$
CHEMBL3716389
     RDKit          3D

  0  0  0  0  0  0  0  0  0  0999 V3000
M  V30 BEGIN CTAB
M  V30 COUNTS 42 44 0 0 0
M  V30 BEGIN ATOM
M  V30 1 C 2.760440 -4.518884 2.028625 0
M  V30 2 C 2.310375 -3.134021 1.576719 0
M  V30 3 O 0.911044 -3.020730 1.681981 0
M  V30 4 C 0.283454 -1.836670 1.321185 0
M  V30 5 C 1.020537 -0.766359 0.858960 0
M  V30 6 C 0.627318 0.552997 0.768305 0
M  V30 7 C 1.486349 1.410368 -0.042745 0
M  V30 8 C 0.867008 2.473780 -0.711172 0
M  V30 9 C 1.507110 3.374638 -1.510491 0
M  V30 10 C 2.869689 3.233999 -1.678368 0
M  V30 11 O 3.492223 4.167450 -2.498571 0
M  V30 12 C 3.507440 2.196878 -1.033212 0
M  V30 13 O 4.885280 2.069040 -1.213690 0
M  V30 14 C 2.825838 1.305669 -0.232699 0
M  V30 15 C -0.478767 1.129680 1.358880 0
M  V30 16 C -1.654861 0.530217 1.764183 0
M  V30 17 O -2.543483 1.253847 2.253749 0
M  V30 18 C -1.961782 -0.823601 1.683313 0
M  V30 19 C -3.237311 -1.337309 1.793826 0
M  V30 20 C -4.491411 -0.543758 2.015840 0
M  V30 21 O -3.143926 -2.659879 1.666826 0
M  V30 22 C -1.888491 -3.012420 1.483005 0
M  V30 23 C -1.304426 -4.366039 1.293376 0
M  V30 24 C -1.087166 -1.890152 1.483476 0
M  V30 25 H 2.201778 -4.801887 2.963485 0
M  V30 26 H 2.588547 -5.296985 1.260961 0
M  V30 27 H 3.824359 -4.475034 2.281310 0
M  V30 28 H 2.668765 -2.986679 0.542151 0
M  V30 29 H 2.846986 -2.407578 2.252450 0
M  V30 30 H 2.002053 -1.040567 0.546710 0
M  V30 31 H -0.218168 2.611169 -0.596631 0
M  V30 32 H 0.952620 4.178071 -1.998099 0
M  V30 33 H 3.048289 4.419237 -3.392287 0
M  V30 34 H 5.450426 2.864402 -1.452583 0
M  V30 35 H 3.317762 0.489166 0.277959 0
M  V30 36 H -0.392830 2.193743 1.516411 0
M  V30 37 H -4.484214 0.320737 1.321559 0
M  V30 38 H -4.575828 -0.219996 3.067313 0
M  V30 39 H -5.347864 -1.204210 1.733726 0
M  V30 40 H -2.099082 -5.069814 0.915062 0
M  V30 41 H -0.552747 -4.367052 0.454573 0
M  V30 42 H -0.928440 -4.788011 2.226345 0
M  V30 END ATOM
M  V30 BEGIN BOND
M  V30 1 1 1 2
M  V30 2 1 2 3
M  V30 3 1 3 4
M  V30 4 2 4 5
M  V30 5 1 5 6
M  V30 6 1 6 7
M  V30 7 2 7 8
M  V30 8 1 8 9
M  V30 9 2 9 10
M  V30 10 1 10 11
M  V30 11 1 10 12
M  V30 12 1 12 13
M  V30 13 2 12 14
M  V30 14 2 6 15
M  V30 15 1 15 16
M  V30 16 2 16 17
M  V30 17 1 16 18
M  V30 18 2 18 19
M  V30 19 1 19 20
M  V30 20 1 19 21
M  V30 21 1 21 22
M  V30 22 1 22 23
M  V30 23 2 22 24
M  V30 24 1 24 4
M  V30 25 1 14 7
M  V30 26 1 24 18
M  V30 27 1 1 25
M  V30 28 1 1 26
M  V30 29 1 1 27
M  V30 30 1 2 28
M  V30 31 1 2 29
M  V30 32 1 5 30
M  V30 33 1 8 31
M  V30 34 1 9 32
M  V30 35 1 11 33
M  V30 36 1 13 34
M  V30 37 1 14 35
M  V30 38 1 15 36
M  V30 39 1 20 37
M  V30 40 1 20 38
M  V30 41 1 20 39
M  V30 42 1 23 40
M  V30 43 1 23 41
M  V30 44 1 23 42
M  V30 END BOND
M  V30 END CTAB
M  END
>  <Dataset>  (694) 
ChEMBL_Kinases

>  <Ligand_Instance>  (694) 
nan

>  <PDB_ID>  (694) 
nan

>  <Standardized_SMILES>  (694) 
CCOc1cc(-c2ccc(O)c(O)c2)cc(=O)c2c(C)oc(C)c12

>  <Name>  (694) 
nan

>  <Pocket>  (694) 
nan

>  <ATP_Site>  (694) 
nan

>  <Peripheral>  (694) 
nan

>  <Num_H_Atoms_ProtBoundConf>  (694) 
nan

>  <Num_Resolved_Atoms>  (694) 
nan

>  <Num_Not_Resolved_Atoms>  (694) 
nan

$$$$
CHEMBL3716387
     RDKit          3D

  0  0  0  0  0  0  0  0  0  0999 V3000
M  V30 BEGIN CTAB
M  V30 COUNTS 35 37 0 0 0
M  V30 BEGIN ATOM
M  V30 1 O 5.104164 -3.424421 3.596578 0
M  V30 2 C 4.570975 -3.085100 2.487704 0
M  V30 3 O 3.542091 -3.205029 3.401435 0
M  V30 4 C 5.390649 -2.868330 1.281098 0
M  V30 5 S 5.962289 -1.159969 1.123047 0
M  V30 6 C 4.578861 -0.066357 0.832809 0
M  V30 7 N 4.511394 1.262756 0.667240 0
M  V30 8 N 3.261645 1.647630 0.477492 0
M  V30 9 C 2.436398 0.568047 0.510790 0
M  V30 10 C 0.986552 0.491858 0.355550 0
M  V30 11 C 0.401626 -0.754803 0.442770 0
M  V30 12 C -0.991536 -0.740301 0.283355 0
M  V30 13 C -1.692870 0.428849 0.060075 0
M  V30 14 C -3.141769 0.323712 -0.093097 0
M  V30 15 C -4.027169 1.335985 0.300404 0
M  V30 16 C -5.390100 1.248073 0.157836 0
M  V30 17 C -5.879643 0.098990 -0.401366 0
M  V30 18 C -5.075716 -0.955051 -0.819816 0
M  V30 19 C -3.706478 -0.803906 -0.648093 0
M  V30 20 C -1.036636 1.639914 -0.014539 0
M  V30 21 C 0.335460 1.685640 0.135130 0
M  V30 22 N 3.277924 -0.461619 0.729984 0
M  V30 23 H 2.789734 -2.498613 3.419684 0
M  V30 24 H 6.236252 -3.572547 1.214667 0
M  V30 25 H 4.728003 -3.098387 0.396828 0
M  V30 26 H 0.944445 -1.667337 0.616483 0
M  V30 27 H -1.443249 -1.744036 0.357824 0
M  V30 28 H -3.486121 2.193538 0.731471 0
M  V30 29 H -5.987454 2.084048 0.494091 0
M  V30 30 H -6.949684 -0.009634 -0.531676 0
M  V30 31 H -5.522913 -1.843814 -1.257512 0
M  V30 32 H -3.077337 -1.638810 -0.980878 0
M  V30 33 H -1.581609 2.548470 -0.188439 0
M  V30 34 H 0.865070 2.621760 0.079026 0
M  V30 35 H 2.960913 -1.452663 0.811334 0
M  V30 END ATOM
M  V30 BEGIN BOND
M  V30 1 2 1 2
M  V30 2 1 2 3
M  V30 3 1 2 4
M  V30 4 1 4 5
M  V30 5 1 5 6
M  V30 6 2 6 7
M  V30 7 1 7 8
M  V30 8 2 8 9
M  V30 9 1 9 10
M  V30 10 2 10 11
M  V30 11 1 11 12
M  V30 12 2 12 13
M  V30 13 1 13 14
M  V30 14 2 14 15
M  V30 15 1 15 16
M  V30 16 2 16 17
M  V30 17 1 17 18
M  V30 18 2 18 19
M  V30 19 1 13 20
M  V30 20 2 20 21
M  V30 21 1 9 22
M  V30 22 1 22 6
M  V30 23 1 21 10
M  V30 24 1 19 14
M  V30 25 1 3 23
M  V30 26 1 4 24
M  V30 27 1 4 25
M  V30 28 1 11 26
M  V30 29 1 12 27
M  V30 30 1 15 28
M  V30 31 1 16 29
M  V30 32 1 17 30
M  V30 33 1 18 31
M  V30 34 1 19 32
M  V30 35 1 20 33
M  V30 36 1 21 34
M  V30 37 1 22 35
M  V30 END BOND
M  V30 END CTAB
M  END
>  <Dataset>  (695) 
ChEMBL_Kinases

>  <Ligand_Instance>  (695) 
nan

>  <PDB_ID>  (695) 
nan

>  <Standardized_SMILES>  (695) 
O=C(O)CSc1nnc(-c2ccc(-c3ccccc3)cc2)[nH]1

>  <Name>  (695) 
nan

>  <Pocket>  (695) 
nan

>  <ATP_Site>  (695) 
nan

>  <Peripheral>  (695) 
nan

>  <Num_H_Atoms_ProtBoundConf>  (695) 
nan

>  <Num_Resolved_Atoms>  (695) 
nan

>  <Num_Not_Resolved_Atoms>  (695) 
nan

$$$$
CHEMBL3716478
     RDKit          3D

  0  0  0  0  0  0  0  0  0  0999 V3000
M  V30 BEGIN CTAB
M  V30 COUNTS 60 63 0 0 0
M  V30 BEGIN ATOM
M  V30 1 C -0.023804 0.332681 4.673184 0
M  V30 2 N 0.568079 -0.996672 4.833728 0
M  V30 3 C 0.231800 -1.690793 6.063387 0
M  V30 4 C 1.425987 -1.602517 3.862526 0
M  V30 5 C 2.693327 -1.912397 4.319238 0
M  V30 6 C 3.658674 -2.504498 3.516198 0
M  V30 7 C 3.321095 -2.789040 2.207999 0
M  V30 8 O 4.163124 -3.380558 1.264950 0
M  V30 9 C 2.051896 -2.474997 1.762601 0
M  V30 10 C 1.080850 -1.887312 2.544797 0
M  V30 11 C -0.274161 -1.533903 2.127353 0
M  V30 12 C -0.765242 -2.204810 0.885136 0
M  V30 13 C -1.983191 -1.486527 0.395996 0
M  V30 14 C -1.861395 -0.982044 -1.042325 0
M  V30 15 C -1.116816 0.325107 -1.032466 0 CFG=2
M  V30 16 N -1.882225 1.437047 -0.660285 0
M  V30 17 C -1.280425 2.709411 -0.595444 0
M  V30 18 C -3.284348 1.383258 -0.791688 0
M  V30 19 C -0.517579 0.607278 -2.385741 0
M  V30 20 O 0.132994 1.817659 -2.582903 0
M  V30 21 C -0.544016 -0.196106 -3.438248 0
M  V30 22 C 0.080920 0.194228 -4.715473 0
M  V30 23 N 0.721767 1.460277 -4.807299 0
M  V30 24 O 0.024850 -0.608529 -5.680930 0
M  V30 25 C -1.208640 -1.489005 -3.308723 0
M  V30 26 O -1.714429 -2.032433 -4.333831 0
M  V30 27 C -1.209690 -2.040971 -1.906003 0 CFG=2
M  V30 28 O -1.956316 -3.195916 -1.845227 0
M  V30 29 C 0.153766 -2.366825 -1.449211 0
M  V30 30 O 1.236359 -2.599284 -2.291012 0
M  V30 31 C 0.283321 -2.425979 -0.113366 0
M  V30 32 C 1.630398 -2.749393 0.390991 0
M  V30 33 O 2.460351 -3.288539 -0.396659 0
M  V30 34 H -1.105870 0.273358 4.498072 0
M  V30 35 H 0.218551 0.887727 5.615392 0
M  V30 36 H 0.466076 0.876717 3.825022 0
M  V30 37 H 0.274784 -2.794579 5.856261 0
M  V30 38 H -0.775459 -1.402286 6.415242 0
M  V30 39 H 1.023415 -1.469097 6.799135 0
M  V30 40 H 3.026086 -1.712246 5.349134 0
M  V30 41 H 4.650387 -2.763607 3.819826 0
M  V30 42 H 4.161860 -4.376183 1.058261 0
M  V30 43 H -0.965168 -1.714065 2.985150 0
M  V30 44 H -0.320878 -0.423894 1.967834 0
M  V30 45 H -1.100529 -3.235417 1.204858 0
M  V30 46 H -2.911461 -2.090152 0.506207 0
M  V30 47 H -2.175448 -0.567466 0.988508 0
M  V30 48 H -2.902596 -0.907371 -1.419414 0
M  V30 49 H -0.253165 0.221518 -0.342688 0
M  V30 50 H -1.726527 3.386883 0.175424 0
M  V30 51 H -0.197809 2.604562 -0.416516 0
M  V30 52 H -1.412085 3.233925 -1.564217 0
M  V30 53 H -3.781891 0.986519 0.117683 0
M  V30 54 H -3.676197 0.952003 -1.739780 0
M  V30 55 H -3.636598 2.456305 -0.836512 0
M  V30 56 H 1.119141 1.918027 -2.306489 0
M  V30 57 H 1.737441 1.267568 -4.608615 0
M  V30 58 H 0.494153 2.456962 -5.001054 0
M  V30 59 H -2.475306 -3.395370 -2.659534 0
M  V30 60 H 1.904489 -1.843201 -2.493571 0
M  V30 END ATOM
M  V30 BEGIN BOND
M  V30 1 1 1 2
M  V30 2 1 2 3
M  V30 3 1 2 4
M  V30 4 2 4 5
M  V30 5 1 5 6
M  V30 6 2 6 7
M  V30 7 1 7 8
M  V30 8 1 7 9
M  V30 9 2 9 10
M  V30 10 1 10 11
M  V30 11 1 11 12
M  V30 12 1 12 13
M  V30 13 1 13 14
M  V30 14 1 14 15
M  V30 15 1 15 16
M  V30 16 1 16 17
M  V30 17 1 16 18
M  V30 18 1 15 19
M  V30 19 1 19 20
M  V30 20 2 19 21
M  V30 21 1 21 22
M  V30 22 1 22 23
M  V30 23 2 22 24
M  V30 24 1 21 25
M  V30 25 2 25 26
M  V30 26 1 25 27
M  V30 27 1 27 28 CFG=3
M  V30 28 1 27 29
M  V30 29 1 29 30
M  V30 30 2 29 31
M  V30 31 1 31 32
M  V30 32 2 32 33
M  V30 33 1 10 4
M  V30 34 1 31 12
M  V30 35 1 32 9
M  V30 36 1 27 14
M  V30 37 1 1 34
M  V30 38 1 1 35
M  V30 39 1 1 36
M  V30 40 1 3 37
M  V30 41 1 3 38
M  V30 42 1 3 39
M  V30 43 1 5 40
M  V30 44 1 6 41
M  V30 45 1 8 42
M  V30 46 1 11 43
M  V30 47 1 11 44
M  V30 48 1 12 45
M  V30 49 1 13 46
M  V30 50 1 13 47
M  V30 51 1 14 48
M  V30 52 1 15 49 CFG=1
M  V30 53 1 17 50
M  V30 54 1 17 51
M  V30 55 1 17 52
M  V30 56 1 18 53
M  V30 57 1 18 54
M  V30 58 1 18 55
M  V30 59 1 20 56
M  V30 60 1 23 57
M  V30 61 1 23 58
M  V30 62 1 28 59
M  V30 63 1 30 60
M  V30 END BOND
M  V30 END CTAB
M  END
>  <Dataset>  (696) 
ChEMBL_Kinases

>  <Ligand_Instance>  (696) 
nan

>  <PDB_ID>  (696) 
nan

>  <Standardized_SMILES>  (696) 
CN(C)c1ccc(O)c2c1CC1CC3[C@H](N(C)C)C(O)=C(C(N)=O)C(=O)[C@@]3(O)C(O)=C1C2=O

>  <Name>  (696) 
nan

>  <Pocket>  (696) 
nan

>  <ATP_Site>  (696) 
nan

>  <Peripheral>  (696) 
nan

>  <Num_H_Atoms_ProtBoundConf>  (696) 
nan

>  <Num_Resolved_Atoms>  (696) 
nan

>  <Num_Not_Resolved_Atoms>  (696) 
nan

$$$$
CHEMBL3715173
     RDKit          3D

  0  0  0  0  0  0  0  0  0  0999 V3000
M  V30 BEGIN CTAB
M  V30 COUNTS 55 59 0 0 0
M  V30 BEGIN ATOM
M  V30 1 C 1.682712 4.053978 2.900489 0
M  V30 2 O 2.156070 2.945426 2.208998 0
M  V30 3 C 3.345924 2.295483 2.354355 0
M  V30 4 C 4.244030 2.749348 3.296821 0
M  V30 5 C 5.460655 2.103165 3.461706 0
M  V30 6 C 5.721864 1.006129 2.652310 0
M  V30 7 C 4.801953 0.571870 1.713968 0
M  V30 8 C 3.591088 1.207332 1.543054 0
M  V30 9 N 2.714428 0.685379 0.552457 0
M  V30 10 C 2.913975 -0.458006 -0.337355 0
M  V30 11 C 1.732289 -1.316053 0.057442 0 CFG=2
M  V30 12 C 1.186546 -2.131026 -1.106902 0
M  V30 13 N -0.230227 -2.010866 -0.909401 0
M  V30 14 C -1.437921 -2.733607 -0.721010 0
M  V30 15 N -2.578643 -2.049245 -0.526988 0
M  V30 16 C -3.768478 -2.627425 -0.344103 0
M  V30 17 C -4.957037 -1.818566 -0.140385 0
M  V30 18 C -6.205013 -2.359488 0.048952 0
M  V30 19 C -7.361422 -1.639694 0.246747 0
M  V30 20 N -7.294051 -0.291744 0.260459 0
M  V30 21 C -6.095741 0.284436 0.079658 0
M  V30 22 C -4.943485 -0.443094 -0.117465 0
M  V30 23 F -3.794813 0.235456 -0.288268 0
M  V30 24 C -3.828459 -3.997941 -0.355001 0
M  V30 25 C -2.691167 -4.744987 -0.549477 0
M  V30 26 O -2.733242 -6.011809 -0.561667 0
M  V30 27 N -1.540114 -4.071936 -0.724852 0
M  V30 28 C -0.349264 -4.872294 -0.936317 0
M  V30 29 C -0.208250 -0.535952 -0.966281 0
M  V30 30 C 0.652987 -0.226853 0.252507 0 CFG=2
M  V30 31 C 1.400296 1.053911 0.083540 0
M  V30 32 H 0.944514 4.580537 2.231447 0
M  V30 33 H 1.170662 3.711245 3.835937 0
M  V30 34 H 2.501847 4.776463 3.133584 0
M  V30 35 H 3.986883 3.609602 3.899642 0
M  V30 36 H 6.129504 2.500282 4.215316 0
M  V30 37 H 6.680872 0.562273 2.839934 0
M  V30 38 H 5.177996 -0.289521 1.180802 0
M  V30 39 H 2.788430 -0.043676 -1.362814 0
M  V30 40 H 3.872334 -0.962374 -0.204788 0
M  V30 41 H 1.936412 -1.881429 0.956121 0
M  V30 42 H 1.620964 -3.122533 -1.042027 0
M  V30 43 H 1.498561 -1.625863 -2.065044 0
M  V30 44 H -6.351044 -3.428233 0.053171 0
M  V30 45 H -8.319567 -2.106435 0.391438 0
M  V30 46 H -6.040326 1.383242 0.090394 0
M  V30 47 H -4.736324 -4.564856 -0.217133 0
M  V30 48 H 0.324019 -4.802839 -0.066437 0
M  V30 49 H -0.628292 -5.968964 -0.990124 0
M  V30 50 H 0.096570 -4.646554 -1.914402 0
M  V30 51 H -1.186475 -0.091115 -0.800512 0
M  V30 52 H 0.295121 -0.176609 -1.867048 0
M  V30 53 H 0.155179 -0.385483 1.202676 0
M  V30 54 H 1.484648 1.243437 -1.025016 0
M  V30 55 H 0.955106 1.937143 0.504142 0
M  V30 END ATOM
M  V30 BEGIN BOND
M  V30 1 1 1 2
M  V30 2 1 2 3
M  V30 3 2 3 4
M  V30 4 1 4 5
M  V30 5 2 5 6
M  V30 6 1 6 7
M  V30 7 2 7 8
M  V30 8 1 8 9
M  V30 9 1 9 10
M  V30 10 1 10 11
M  V30 11 1 11 12
M  V30 12 1 12 13
M  V30 13 1 13 14
M  V30 14 2 14 15
M  V30 15 1 15 16
M  V30 16 1 16 17
M  V30 17 2 17 18
M  V30 18 1 18 19
M  V30 19 2 19 20
M  V30 20 1 20 21
M  V30 21 2 21 22
M  V30 22 1 22 23
M  V30 23 2 16 24
M  V30 24 1 24 25
M  V30 25 2 25 26
M  V30 26 1 25 27
M  V30 27 1 27 28
M  V30 28 1 13 29
M  V30 29 1 29 30
M  V30 30 1 30 31
M  V30 31 1 8 3
M  V30 32 1 31 9
M  V30 33 1 30 11
M  V30 34 1 27 14
M  V30 35 1 22 17
M  V30 36 1 1 32
M  V30 37 1 1 33
M  V30 38 1 1 34
M  V30 39 1 4 35
M  V30 40 1 5 36
M  V30 41 1 6 37
M  V30 42 1 7 38
M  V30 43 1 10 39
M  V30 44 1 10 40
M  V30 45 1 11 41 CFG=1
M  V30 46 1 12 42
M  V30 47 1 12 43
M  V30 48 1 18 44
M  V30 49 1 19 45
M  V30 50 1 21 46
M  V30 51 1 24 47
M  V30 52 1 28 48
M  V30 53 1 28 49
M  V30 54 1 28 50
M  V30 55 1 29 51
M  V30 56 1 29 52
M  V30 57 1 30 53 CFG=1
M  V30 58 1 31 54
M  V30 59 1 31 55
M  V30 END BOND
M  V30 END CTAB
M  END
>  <Dataset>  (697) 
ChEMBL_Kinases

>  <Ligand_Instance>  (697) 
nan

>  <PDB_ID>  (697) 
nan

>  <Standardized_SMILES>  (697) 
COc1ccccc1N1C[C@@H]2CN(c3nc(-c4ccncc4F)cc(=O)n3C)C[C@@H]2C1

>  <Name>  (697) 
nan

>  <Pocket>  (697) 
nan

>  <ATP_Site>  (697) 
nan

>  <Peripheral>  (697) 
nan

>  <Num_H_Atoms_ProtBoundConf>  (697) 
nan

>  <Num_Resolved_Atoms>  (697) 
nan

>  <Num_Not_Resolved_Atoms>  (697) 
nan

$$$$
CHEMBL3716840
     RDKit          3D

  0  0  0  0  0  0  0  0  0  0999 V3000
M  V30 BEGIN CTAB
M  V30 COUNTS 46 49 0 0 0
M  V30 BEGIN ATOM
M  V30 1 C -3.051177 -2.331213 1.318839 0
M  V30 2 O -3.559196 -1.805589 0.128805 0
M  V30 3 C -2.707265 -1.663544 -0.960624 0
M  V30 4 C -1.377609 -2.027617 -0.895809 0
M  V30 5 C -0.493747 -1.909751 -1.946827 0
M  V30 6 N 0.868793 -2.255008 -1.914203 0
M  V30 7 C 1.599030 -2.773247 -0.773168 0
M  V30 8 C 3.060567 -3.037545 -1.075878 0
M  V30 9 C 0.937372 -4.025166 -0.307921 0
M  V30 10 C 1.593264 -1.670665 0.234548 0
M  V30 11 O 0.985608 -0.585170 -0.071912 0
M  V30 12 N 2.194150 -1.674934 1.522774 0
M  V30 13 C 1.898698 -0.354351 2.103821 0
M  V30 14 N 0.970226 -0.027788 2.774073 0
M  V30 15 C 0.713629 1.148597 3.284305 0
M  V30 16 C -0.336557 1.610525 4.070486 0
M  V30 17 C -0.370540 2.905270 4.479094 0
M  V30 18 C 0.568807 3.883933 4.192785 0
M  V30 19 N 0.837694 5.176659 4.412200 0
M  V30 20 N 1.964932 5.544814 3.826037 0
M  V30 21 C 2.526439 4.501421 3.168443 0
M  V30 22 C 1.639907 3.502117 3.417677 0
M  V30 23 C 1.663276 2.167735 3.003797 0
M  V30 24 S 2.898926 1.199674 1.952446 0
M  V30 25 C -1.028492 -1.390232 -3.105784 0
M  V30 26 C -2.342753 -1.005841 -3.241716 0
M  V30 27 C -3.169145 -1.151176 -2.153099 0
M  V30 28 Cl -4.824281 -0.654397 -2.360347 0
M  V30 29 H -2.106569 -1.860447 1.668599 0
M  V30 30 H -3.795634 -2.103849 2.130968 0
M  V30 31 H -2.970393 -3.434306 1.255890 0
M  V30 32 H -1.036848 -2.421092 0.031511 0
M  V30 33 H 1.448393 -2.143193 -2.774075 0
M  V30 34 H 3.740436 -2.739913 -0.246127 0
M  V30 35 H 3.389410 -2.434466 -1.964600 0
M  V30 36 H 3.235782 -4.090964 -1.364400 0
M  V30 37 H 0.088393 -4.282397 -0.941763 0
M  V30 38 H 0.671295 -3.919615 0.782246 0
M  V30 39 H 1.667043 -4.882020 -0.427160 0
M  V30 40 H 2.682621 -2.521643 1.796547 0
M  V30 41 H -1.140671 0.940691 4.364968 0
M  V30 42 H -1.207988 3.264051 5.103322 0
M  V30 43 H 0.179643 5.773680 4.996684 0
M  V30 44 H 3.418853 4.388106 2.583343 0
M  V30 45 H -0.369658 -1.273618 -3.979171 0
M  V30 46 H -2.666367 -0.602984 -4.211725 0
M  V30 END ATOM
M  V30 BEGIN BOND
M  V30 1 1 1 2
M  V30 2 1 2 3
M  V30 3 2 3 4
M  V30 4 1 4 5
M  V30 5 1 5 6
M  V30 6 1 6 7
M  V30 7 1 7 8
M  V30 8 1 7 9
M  V30 9 1 7 10
M  V30 10 2 10 11
M  V30 11 1 10 12
M  V30 12 1 12 13
M  V30 13 2 13 14
M  V30 14 1 14 15
M  V30 15 2 15 16
M  V30 16 1 16 17
M  V30 17 2 17 18
M  V30 18 1 18 19
M  V30 19 1 19 20
M  V30 20 2 20 21
M  V30 21 1 21 22
M  V30 22 2 22 23
M  V30 23 1 23 24
M  V30 24 2 5 25
M  V30 25 1 25 26
M  V30 26 2 26 27
M  V30 27 1 27 28
M  V30 28 1 27 3
M  V30 29 1 24 13
M  V30 30 1 23 15
M  V30 31 1 22 18
M  V30 32 1 1 29
M  V30 33 1 1 30
M  V30 34 1 1 31
M  V30 35 1 4 32
M  V30 36 1 6 33
M  V30 37 1 8 34
M  V30 38 1 8 35
M  V30 39 1 8 36
M  V30 40 1 9 37
M  V30 41 1 9 38
M  V30 42 1 9 39
M  V30 43 1 12 40
M  V30 44 1 16 41
M  V30 45 1 17 42
M  V30 46 1 19 43
M  V30 47 1 21 44
M  V30 48 1 25 45
M  V30 49 1 26 46
M  V30 END BOND
M  V30 END CTAB
M  END
>  <Dataset>  (698) 
ChEMBL_Kinases

>  <Ligand_Instance>  (698) 
nan

>  <PDB_ID>  (698) 
nan

>  <Standardized_SMILES>  (698) 
COc1cc(NC(C)(C)C(=O)Nc2nc3ccc4[nH]ncc4c3s2)ccc1Cl

>  <Name>  (698) 
nan

>  <Pocket>  (698) 
nan

>  <ATP_Site>  (698) 
nan

>  <Peripheral>  (698) 
nan

>  <Num_H_Atoms_ProtBoundConf>  (698) 
nan

>  <Num_Resolved_Atoms>  (698) 
nan

>  <Num_Not_Resolved_Atoms>  (698) 
nan

$$$$
CHEMBL3716839
     RDKit          3D

  0  0  0  0  0  0  0  0  0  0999 V3000
M  V30 BEGIN CTAB
M  V30 COUNTS 41 44 0 0 0
M  V30 BEGIN ATOM
M  V30 1 O 2.039847 -2.787847 3.066547 0
M  V30 2 C 1.995597 -1.884657 2.193492 0
M  V30 3 N 1.274828 -2.190939 0.982775 0
M  V30 4 C 0.553149 -3.329851 0.491622 0
M  V30 5 C 1.231544 -3.795600 -0.792406 0
M  V30 6 C 1.298833 -2.685424 -1.800787 0
M  V30 7 C -0.067673 -2.134039 -2.043542 0
M  V30 8 N -0.829037 -1.865625 -0.864533 0
M  V30 9 C -0.868149 -2.966380 0.078526 0
M  V30 10 C 2.593577 -0.532439 2.246625 0
M  V30 11 C 3.933425 -0.213362 2.378941 0
M  V30 12 C 4.271951 1.121305 2.406450 0
M  V30 13 N 3.360597 2.091127 2.310834 0
M  V30 14 C 2.037662 1.805417 2.180031 0
M  V30 15 N 0.993125 2.649679 2.071831 0
M  V30 16 C -0.088349 1.867507 1.967585 0
M  V30 17 C -1.496739 2.352031 1.824958 0
M  V30 18 C -2.610251 1.667398 1.716430 0
M  V30 19 C -3.818717 2.285886 1.593466 0
M  V30 20 C -3.744077 3.724240 1.595457 0
M  V30 21 S -1.911107 4.034254 1.777192 0
M  V30 22 C 0.263937 0.534719 2.008945 0
M  V30 23 C 1.645363 0.481481 2.147088 0
M  V30 24 H 1.202996 -1.468422 0.210023 0
M  V30 25 H 0.509001 -4.192872 1.153757 0
M  V30 26 H 2.185008 -4.308130 -0.622698 0
M  V30 27 H 0.534112 -4.563576 -1.221711 0
M  V30 28 H 1.626353 -3.164690 -2.759357 0
M  V30 29 H 2.078650 -1.928182 -1.583849 0
M  V30 30 H 0.077653 -1.146630 -2.557902 0
M  V30 31 H -0.601613 -2.816753 -2.767466 0
M  V30 32 H -1.794742 -1.640534 -1.155942 0
M  V30 33 H -1.334261 -3.865646 -0.332449 0
M  V30 34 H -1.444526 -2.598649 0.960723 0
M  V30 35 H 4.586207 -1.072363 2.448254 0
M  V30 36 H 5.328105 1.336239 2.511119 0
M  V30 37 H 1.037187 3.699100 2.071385 0
M  V30 38 H -2.567331 0.575241 1.724711 0
M  V30 39 H -4.786946 1.805824 1.498558 0
M  V30 40 H -4.756765 4.355132 1.492056 0
M  V30 41 H -0.385589 -0.330020 1.948343 0
M  V30 END ATOM
M  V30 BEGIN BOND
M  V30 1 2 1 2
M  V30 2 1 2 3
M  V30 3 1 3 4
M  V30 4 1 4 5
M  V30 5 1 5 6
M  V30 6 1 6 7
M  V30 7 1 7 8
M  V30 8 1 8 9
M  V30 9 1 2 10
M  V30 10 2 10 11
M  V30 11 1 11 12
M  V30 12 2 12 13
M  V30 13 1 13 14
M  V30 14 1 14 15
M  V30 15 1 15 16
M  V30 16 1 16 17
M  V30 17 2 17 18
M  V30 18 1 18 19
M  V30 19 2 19 20
M  V30 20 1 20 21
M  V30 21 2 16 22
M  V30 22 1 22 23
M  V30 23 1 9 4
M  V30 24 1 23 10
M  V30 25 2 23 14
M  V30 26 1 21 17
M  V30 27 1 3 24
M  V30 28 1 4 25
M  V30 29 1 5 26
M  V30 30 1 5 27
M  V30 31 1 6 28
M  V30 32 1 6 29
M  V30 33 1 7 30
M  V30 34 1 7 31
M  V30 35 1 8 32
M  V30 36 1 9 33
M  V30 37 1 9 34
M  V30 38 1 11 35
M  V30 39 1 12 36
M  V30 40 1 15 37
M  V30 41 1 18 38
M  V30 42 1 19 39
M  V30 43 1 20 40
M  V30 44 1 22 41
M  V30 END BOND
M  V30 END CTAB
M  END
>  <Dataset>  (699) 
ChEMBL_Kinases

>  <Ligand_Instance>  (699) 
nan

>  <PDB_ID>  (699) 
nan

>  <Standardized_SMILES>  (699) 
O=C(NC1CCCNC1)c1ccnc2[nH]c(-c3cccs3)cc12

>  <Name>  (699) 
nan

>  <Pocket>  (699) 
nan

>  <ATP_Site>  (699) 
nan

>  <Peripheral>  (699) 
nan

>  <Num_H_Atoms_ProtBoundConf>  (699) 
nan

>  <Num_Resolved_Atoms>  (699) 
nan

>  <Num_Not_Resolved_Atoms>  (699) 
nan

$$$$
CHEMBL3716798
     RDKit          3D

  0  0  0  0  0  0  0  0  0  0999 V3000
M  V30 BEGIN CTAB
M  V30 COUNTS 51 55 0 0 0
M  V30 BEGIN ATOM
M  V30 1 C -0.588244 -2.618169 4.025976 0
M  V30 2 N -1.175431 -2.779534 2.715143 0
M  V30 3 C -1.061411 -1.774375 1.838453 0
M  V30 4 N -0.456741 -0.495972 2.037764 0
M  V30 5 C 0.122260 0.241873 3.124651 0
M  V30 6 C 1.616376 0.408527 2.802714 0
M  V30 7 N 1.935542 -0.119241 1.512331 0
M  V30 8 C 3.329945 -0.213773 1.271557 0
M  V30 9 C 3.913529 1.132267 1.005052 0
M  V30 10 C 2.911526 1.963230 0.299220 0
M  V30 11 C 3.445115 3.183279 -0.073508 0
M  V30 12 C 2.655213 4.108781 -0.752075 0
M  V30 13 C 1.337007 3.828770 -1.062707 0
M  V30 14 C 0.795984 2.596658 -0.686968 0
M  V30 15 C 1.598108 1.700845 -0.017563 0
M  V30 16 C 1.131299 0.356843 0.436054 0
M  V30 17 C -0.315114 0.394023 0.867655 0
M  V30 18 N -1.601607 -1.968189 0.625593 0
M  V30 19 C -2.233146 -3.080018 0.249977 0
M  V30 20 C -2.764439 -3.157827 -1.103783 0
M  V30 21 C -2.623281 -2.114741 -1.992472 0
M  V30 22 C -3.097024 -2.098551 -3.299794 0
M  V30 23 N -3.750341 -3.215450 -3.713032 0
M  V30 24 C -3.889938 -4.232080 -2.851896 0
M  V30 25 C -3.440149 -4.296451 -1.550659 0
M  V30 26 C -2.339643 -4.086171 1.151882 0
M  V30 27 C -1.801429 -3.925906 2.397043 0
M  V30 28 O -1.887290 -4.845225 3.251351 0
M  V30 29 H -0.566297 -3.671746 4.464041 0
M  V30 30 H 0.506258 -2.371414 3.989051 0
M  V30 31 H -1.176362 -2.045371 4.738990 0
M  V30 32 H -0.024773 -0.143148 4.128584 0
M  V30 33 H -0.351329 1.283431 3.101623 0
M  V30 34 H 1.878050 1.464883 2.905147 0
M  V30 35 H 2.182721 -0.214613 3.550509 0
M  V30 36 H 3.538230 -0.867653 0.399134 0
M  V30 37 H 3.788414 -0.711122 2.161364 0
M  V30 38 H 4.307350 1.661102 1.898170 0
M  V30 39 H 4.812710 0.989604 0.336834 0
M  V30 40 H 4.446732 3.565899 0.085184 0
M  V30 41 H 2.941592 5.088555 -1.098903 0
M  V30 42 H 0.633844 4.454943 -1.577839 0
M  V30 43 H -0.217019 2.248827 -0.866258 0
M  V30 44 H 1.259708 -0.339646 -0.431670 0
M  V30 45 H -0.708458 1.386256 1.088923 0
M  V30 46 H -0.922029 -0.067954 0.041092 0
M  V30 47 H -2.102239 -1.209813 -1.680563 0
M  V30 48 H -2.930918 -1.221729 -3.921770 0
M  V30 49 H -4.413253 -5.156745 -3.144518 0
M  V30 50 H -3.579099 -5.139976 -0.896839 0
M  V30 51 H -2.822804 -5.002702 0.946419 0
M  V30 END ATOM
M  V30 BEGIN BOND
M  V30 1 1 1 2
M  V30 2 1 2 3
M  V30 3 1 3 4
M  V30 4 1 4 5
M  V30 5 1 5 6
M  V30 6 1 6 7
M  V30 7 1 7 8
M  V30 8 1 8 9
M  V30 9 1 9 10
M  V30 10 2 10 11
M  V30 11 1 11 12
M  V30 12 2 12 13
M  V30 13 1 13 14
M  V30 14 2 14 15
M  V30 15 1 15 16
M  V30 16 1 16 17
M  V30 17 2 3 18
M  V30 18 1 18 19
M  V30 19 1 19 20
M  V30 20 2 20 21
M  V30 21 1 21 22
M  V30 22 2 22 23
M  V30 23 1 23 24
M  V30 24 2 24 25
M  V30 25 2 19 26
M  V30 26 1 26 27
M  V30 27 2 27 28
M  V30 28 1 27 2
M  V30 29 1 17 4
M  V30 30 1 25 20
M  V30 31 1 16 7
M  V30 32 1 15 10
M  V30 33 1 1 29
M  V30 34 1 1 30
M  V30 35 1 1 31
M  V30 36 1 5 32
M  V30 37 1 5 33
M  V30 38 1 6 34
M  V30 39 1 6 35
M  V30 40 1 8 36
M  V30 41 1 8 37
M  V30 42 1 9 38
M  V30 43 1 9 39
M  V30 44 1 11 40
M  V30 45 1 12 41
M  V30 46 1 13 42
M  V30 47 1 14 43
M  V30 48 1 16 44
M  V30 49 1 17 45
M  V30 50 1 17 46
M  V30 51 1 21 47
M  V30 52 1 22 48
M  V30 53 1 24 49
M  V30 54 1 25 50
M  V30 55 1 26 51
M  V30 END BOND
M  V30 END CTAB
M  END
>  <Dataset>  (700) 
ChEMBL_Kinases

>  <Ligand_Instance>  (700) 
nan

>  <PDB_ID>  (700) 
nan

>  <Standardized_SMILES>  (700) 
Cn1c(N2CCN3CCc4ccccc4C3C2)nc(-c2ccncc2)cc1=O

>  <Name>  (700) 
nan

>  <Pocket>  (700) 
nan

>  <ATP_Site>  (700) 
nan

>  <Peripheral>  (700) 
nan

>  <Num_H_Atoms_ProtBoundConf>  (700) 
nan

>  <Num_Resolved_Atoms>  (700) 
nan

>  <Num_Not_Resolved_Atoms>  (700) 
nan

$$$$
CHEMBL568379
     RDKit          3D

  0  0  0  0  0  0  0  0  0  0999 V3000
M  V30 BEGIN CTAB
M  V30 COUNTS 40 43 0 0 0
M  V30 BEGIN ATOM
M  V30 1 C -1.512387 -3.518209 0.894149 0
M  V30 2 C -0.141580 -3.522068 1.459177 0
M  V30 3 N 0.331343 -4.260116 2.456498 0
M  V30 4 O 1.566526 -4.023218 2.698590 0
M  V30 5 C 2.036436 -3.086023 1.860367 0
M  V30 6 C 3.437693 -2.739862 2.055122 0
M  V30 7 C 0.953090 -2.770338 1.076464 0
M  V30 8 C 1.085011 -1.766774 0.056211 0
M  V30 9 C 1.390671 -2.278168 -1.187484 0
M  V30 10 C 1.560838 -1.421796 -2.290668 0
M  V30 11 C 1.434642 -0.068069 -2.197240 0
M  V30 12 N 1.551267 0.992537 -3.076671 0
M  V30 13 C 1.335126 2.219866 -2.509542 0
M  V30 14 N 1.036774 2.535277 -1.259064 0
M  V30 15 C 0.874311 1.540809 -0.200419 0
M  V30 16 N 0.608330 2.529300 0.670460 0
M  V30 17 C 0.302990 2.240231 2.027483 0
M  V30 18 C -1.107622 1.671261 2.153671 0
M  V30 19 C -2.229470 2.365533 2.280362 0
M  V30 20 C -3.508269 1.961427 2.410822 0
M  V30 21 C -3.621654 0.549581 2.405675 0
M  V30 22 S -1.884378 -0.044643 2.217570 0
M  V30 23 C 1.138128 0.577308 -1.070213 0
M  V30 24 C 0.974144 -0.374158 0.056128 0
M  V30 25 H -2.153299 -2.979966 1.655598 0
M  V30 26 H -1.566421 -2.943149 -0.030540 0
M  V30 27 H -1.896295 -4.555098 0.740509 0
M  V30 28 H 4.056498 -3.572983 1.673870 0
M  V30 29 H 3.729251 -2.691724 3.147129 0
M  V30 30 H 3.805894 -1.854145 1.499726 0
M  V30 31 H 1.552652 -3.289927 -1.566813 0
M  V30 32 H 1.796656 -1.681997 -3.306403 0
M  V30 33 H 1.481141 2.918157 -3.407202 0
M  V30 34 H 0.519368 3.530670 0.752022 0
M  V30 35 H 1.003462 1.495424 2.489297 0
M  V30 36 H 0.381914 3.116123 2.685252 0
M  V30 37 H -2.176188 3.472561 2.292302 0
M  V30 38 H -4.467587 2.404092 2.506700 0
M  V30 39 H -4.229708 -0.309547 2.464781 0
M  V30 40 H 0.754179 -0.216625 1.122150 0
M  V30 END ATOM
M  V30 BEGIN BOND
M  V30 1 1 1 2
M  V30 2 2 2 3
M  V30 3 1 3 4
M  V30 4 1 4 5
M  V30 5 1 5 6
M  V30 6 2 5 7
M  V30 7 1 7 8
M  V30 8 2 8 9
M  V30 9 1 9 10
M  V30 10 2 10 11
M  V30 11 1 11 12
M  V30 12 2 12 13
M  V30 13 1 13 14
M  V30 14 2 14 15
M  V30 15 1 15 16
M  V30 16 1 16 17
M  V30 17 1 17 18
M  V30 18 2 18 19
M  V30 19 1 19 20
M  V30 20 2 20 21
M  V30 21 1 21 22
M  V30 22 1 15 23
M  V30 23 2 23 24
M  V30 24 1 7 2
M  V30 25 1 24 8
M  V30 26 1 23 11
M  V30 27 1 22 18
M  V30 28 1 1 25
M  V30 29 1 1 26
M  V30 30 1 1 27
M  V30 31 1 6 28
M  V30 32 1 6 29
M  V30 33 1 6 30
M  V30 34 1 9 31
M  V30 35 1 10 32
M  V30 36 1 13 33
M  V30 37 1 16 34
M  V30 38 1 17 35
M  V30 39 1 17 36
M  V30 40 1 19 37
M  V30 41 1 20 38
M  V30 42 1 21 39
M  V30 43 1 24 40
M  V30 END BOND
M  V30 END CTAB
M  END
>  <Dataset>  (701) 
ChEMBL_Kinases

>  <Ligand_Instance>  (701) 
nan

>  <PDB_ID>  (701) 
nan

>  <Standardized_SMILES>  (701) 
Cc1noc(C)c1-c1ccc2ncnc(NCc3cccs3)c2c1

>  <Name>  (701) 
nan

>  <Pocket>  (701) 
nan

>  <ATP_Site>  (701) 
nan

>  <Peripheral>  (701) 
nan

>  <Num_H_Atoms_ProtBoundConf>  (701) 
nan

>  <Num_Resolved_Atoms>  (701) 
nan

>  <Num_Not_Resolved_Atoms>  (701) 
nan

$$$$
CHEMBL568407
     RDKit          3D

  0  0  0  0  0  0  0  0  0  0999 V3000
M  V30 BEGIN CTAB
M  V30 COUNTS 49 52 0 0 0
M  V30 BEGIN ATOM
M  V30 1 C 1.130617 -3.079419 3.409735 0
M  V30 2 O 1.556316 -2.194048 2.409183 0
M  V30 3 C 2.748284 -2.225140 1.737845 0
M  V30 4 C 3.682118 -3.199335 2.017996 0
M  V30 5 C 4.894373 -3.263156 1.362564 0
M  V30 6 C 5.183174 -2.322441 0.395152 0
M  V30 7 C 4.227557 -1.361571 0.139063 0
M  V30 8 C 3.010905 -1.273994 0.776902 0
M  V30 9 C 2.010642 -0.258667 0.500743 0
M  V30 10 C 2.021094 0.723292 -0.338735 0
M  V30 11 C 1.149083 1.800459 -0.742421 0
M  V30 12 C 1.580229 2.692606 -1.723047 0
M  V30 13 N 0.801682 3.710030 -2.107032 0
M  V30 14 C -0.414860 3.934373 -1.587659 0
M  V30 15 C -0.875477 3.071947 -0.615056 0
M  V30 16 C -2.185117 3.379033 -0.108757 0
M  V30 17 N -3.236404 3.614887 0.315287 0
M  V30 18 C -0.093196 2.018496 -0.204372 0
M  V30 19 N -0.718906 1.233096 0.760710 0
M  V30 20 C -1.736410 0.252724 0.907339 0
M  V30 21 C -2.681903 0.739716 1.819488 0
M  V30 22 C -3.812969 -0.015913 2.152434 0
M  V30 23 C -3.945904 -1.246246 1.544795 0
M  V30 24 N -4.894285 -2.220090 1.631436 0
M  V30 25 C -4.588425 -3.270300 0.830494 0
M  V30 26 C -3.386136 -2.991887 0.178901 0
M  V30 27 C -3.033806 -1.745447 0.647951 0
M  V30 28 C -1.944930 -0.978193 0.349659 0
M  V30 29 C -0.947395 -1.445569 -0.606426 0
M  V30 30 H 1.927466 -3.487392 4.042142 0
M  V30 31 H 0.451422 -2.482878 4.084184 0
M  V30 32 H 0.572955 -3.951505 2.988213 0
M  V30 33 H 3.463673 -3.937937 2.772691 0
M  V30 34 H 5.620718 -4.033756 1.591381 0
M  V30 35 H 6.121310 -2.363107 -0.119489 0
M  V30 36 H 4.493038 -0.649861 -0.620334 0
M  V30 37 H 1.083285 -0.270538 1.053533 0
M  V30 38 H 2.989937 0.671763 -0.863126 0
M  V30 39 H 2.560050 2.587202 -2.203106 0
M  V30 40 H -0.917063 4.790831 -1.998861 0
M  V30 41 H -0.185810 1.586086 1.612598 0
M  V30 42 H -2.687779 1.683851 2.358396 0
M  V30 43 H -4.578282 0.290130 2.840796 0
M  V30 44 H -5.749542 -2.171842 2.234507 0
M  V30 45 H -5.173410 -4.171251 0.713829 0
M  V30 46 H -2.837324 -3.584698 -0.526422 0
M  V30 47 H -0.444914 -0.586098 -1.087445 0
M  V30 48 H -0.175465 -2.042512 -0.082598 0
M  V30 49 H -1.441315 -2.063180 -1.399460 0
M  V30 END ATOM
M  V30 BEGIN BOND
M  V30 1 1 1 2
M  V30 2 1 2 3
M  V30 3 2 3 4
M  V30 4 1 4 5
M  V30 5 2 5 6
M  V30 6 1 6 7
M  V30 7 2 7 8
M  V30 8 1 8 9
M  V30 9 2 9 10
M  V30 10 1 10 11
M  V30 11 2 11 12
M  V30 12 1 12 13
M  V30 13 2 13 14
M  V30 14 1 14 15
M  V30 15 1 15 16
M  V30 16 3 16 17
M  V30 17 2 15 18
M  V30 18 1 18 19
M  V30 19 1 19 20
M  V30 20 2 20 21
M  V30 21 1 21 22
M  V30 22 2 22 23
M  V30 23 1 23 24
M  V30 24 1 24 25
M  V30 25 2 25 26
M  V30 26 1 26 27
M  V30 27 2 27 28
M  V30 28 1 28 29
M  V30 29 1 8 3
M  V30 30 1 18 11
M  V30 31 1 28 20
M  V30 32 1 27 23
M  V30 33 1 1 30
M  V30 34 1 1 31
M  V30 35 1 1 32
M  V30 36 1 4 33
M  V30 37 1 5 34
M  V30 38 1 6 35
M  V30 39 1 7 36
M  V30 40 1 9 37
M  V30 41 1 10 38
M  V30 42 1 12 39
M  V30 43 1 14 40
M  V30 44 1 19 41
M  V30 45 1 21 42
M  V30 46 1 22 43
M  V30 47 1 24 44
M  V30 48 1 25 45
M  V30 49 1 26 46
M  V30 50 1 29 47
M  V30 51 1 29 48
M  V30 52 1 29 49
M  V30 END BOND
M  V30 END CTAB
M  END
>  <Dataset>  (702) 
ChEMBL_Kinases

>  <Ligand_Instance>  (702) 
nan

>  <PDB_ID>  (702) 
nan

>  <Standardized_SMILES>  (702) 
COc1ccccc1/C=C/c1cncc(C#N)c1Nc1ccc2[nH]ccc2c1C

>  <Name>  (702) 
nan

>  <Pocket>  (702) 
nan

>  <ATP_Site>  (702) 
nan

>  <Peripheral>  (702) 
nan

>  <Num_H_Atoms_ProtBoundConf>  (702) 
nan

>  <Num_Resolved_Atoms>  (702) 
nan

>  <Num_Not_Resolved_Atoms>  (702) 
nan

$$$$
CHEMBL3716783
     RDKit          3D

  0  0  0  0  0  0  0  0  0  0999 V3000
M  V30 BEGIN CTAB
M  V30 COUNTS 59 62 0 0 0
M  V30 BEGIN ATOM
M  V30 1 C -1.205485 -0.990942 4.144760 0
M  V30 2 C 0.077463 -0.420256 3.642552 0
M  V30 3 C 0.965007 0.021536 4.816010 0
M  V30 4 N -0.058311 0.712762 2.774129 0
M  V30 5 C -0.777460 0.622051 1.547876 0
M  V30 6 C -1.376736 -0.546026 1.132928 0
M  V30 7 C -2.078416 -0.659242 -0.049111 0
M  V30 8 C -2.167181 0.470978 -0.833911 0
M  V30 9 C -1.602532 1.681749 -0.504234 0
M  V30 10 C -1.666107 2.892633 -1.288706 0
M  V30 11 O -1.106004 3.949254 -0.895921 0
M  V30 12 N -2.339592 3.005233 -2.529836 0
M  V30 13 C -2.410547 4.198606 -3.317010 0
M  V30 14 C -3.078671 5.348422 -2.572609 0
M  V30 15 C -4.458485 4.952224 -2.208188 0
M  V30 16 N -5.471905 5.664949 -1.513704 0
M  V30 17 O -5.135817 3.897453 -2.395147 0
M  V30 18 C -0.922343 1.694529 0.695467 0
M  V30 19 C 0.915535 -1.417183 2.884269 0
M  V30 20 O 1.415017 -1.299005 1.721401 0
M  V30 21 N 1.241982 -2.674588 3.456253 0
M  V30 22 C 2.048260 -3.417375 2.511720 0
M  V30 23 N 1.683572 -4.177706 1.643600 0
M  V30 24 C 2.470251 -4.826206 0.812070 0
M  V30 25 C 2.129175 -5.707806 -0.201707 0
M  V30 26 C 0.703976 -6.059977 -0.499891 0
M  V30 27 F 0.075111 -6.642068 0.582900 0
M  V30 28 F 0.626988 -6.908248 -1.573917 0
M  V30 29 F -0.021463 -4.907084 -0.795281 0
M  V30 30 C 3.099734 -6.281379 -0.960167 0
M  V30 31 C 4.458371 -6.083266 -0.838701 0
M  V30 32 N 5.624120 -6.463512 -1.384931 0
M  V30 33 N 6.648961 -5.872291 -0.771178 0
M  V30 34 C 6.183903 -5.070354 0.215264 0
M  V30 35 C 4.814066 -5.208511 0.165681 0
M  V30 36 C 3.823529 -4.616617 0.947471 0
M  V30 37 S 3.887699 -3.452691 2.317427 0
M  V30 38 H -1.242760 -0.835528 5.254686 0
M  V30 39 H -1.261605 -2.097508 4.030075 0
M  V30 40 H -2.120482 -0.474054 3.763442 0
M  V30 41 H 1.695846 -0.788624 5.088536 0
M  V30 42 H 0.334437 0.223880 5.693143 0
M  V30 43 H 1.600779 0.886654 4.520769 0
M  V30 44 H 0.363505 1.661664 2.997442 0
M  V30 45 H -1.325061 -1.446496 1.724215 0
M  V30 46 H -2.543430 -1.598566 -0.352819 0
M  V30 47 H -2.711563 0.402317 -1.761586 0
M  V30 48 H -2.810795 2.107981 -2.856022 0
M  V30 49 H -1.427008 4.513792 -3.724713 0
M  V30 50 H -3.057785 4.001039 -4.193721 0
M  V30 51 H -3.101224 6.247233 -3.235859 0
M  V30 52 H -2.485241 5.648754 -1.690746 0
M  V30 53 H -5.738773 5.694598 -0.508205 0
M  V30 54 H -6.127450 6.306879 -2.005560 0
M  V30 55 H -0.455983 2.626766 1.005429 0
M  V30 56 H 0.919062 -2.951263 4.407190 0
M  V30 57 H 2.811821 -6.981931 -1.764316 0
M  V30 58 H 5.638737 -7.140591 -2.186443 0
M  V30 59 H 6.698175 -4.431979 0.926984 0
M  V30 END ATOM
M  V30 BEGIN BOND
M  V30 1 1 1 2
M  V30 2 1 2 3
M  V30 3 1 2 4
M  V30 4 1 4 5
M  V30 5 2 5 6
M  V30 6 1 6 7
M  V30 7 2 7 8
M  V30 8 1 8 9
M  V30 9 1 9 10
M  V30 10 2 10 11
M  V30 11 1 10 12
M  V30 12 1 12 13
M  V30 13 1 13 14
M  V30 14 1 14 15
M  V30 15 1 15 16
M  V30 16 2 15 17
M  V30 17 2 9 18
M  V30 18 1 2 19
M  V30 19 2 19 20
M  V30 20 1 19 21
M  V30 21 1 21 22
M  V30 22 2 22 23
M  V30 23 1 23 24
M  V30 24 2 24 25
M  V30 25 1 25 26
M  V30 26 1 26 27
M  V30 27 1 26 28
M  V30 28 1 26 29
M  V30 29 1 25 30
M  V30 30 2 30 31
M  V30 31 1 31 32
M  V30 32 1 32 33
M  V30 33 2 33 34
M  V30 34 1 34 35
M  V30 35 2 35 36
M  V30 36 1 36 37
M  V30 37 1 18 5
M  V30 38 1 37 22
M  V30 39 1 36 24
M  V30 40 1 35 31
M  V30 41 1 1 38
M  V30 42 1 1 39
M  V30 43 1 1 40
M  V30 44 1 3 41
M  V30 45 1 3 42
M  V30 46 1 3 43
M  V30 47 1 4 44
M  V30 48 1 6 45
M  V30 49 1 7 46
M  V30 50 1 8 47
M  V30 51 1 12 48
M  V30 52 1 13 49
M  V30 53 1 13 50
M  V30 54 1 14 51
M  V30 55 1 14 52
M  V30 56 1 16 53
M  V30 57 1 16 54
M  V30 58 1 18 55
M  V30 59 1 21 56
M  V30 60 1 30 57
M  V30 61 1 32 58
M  V30 62 1 34 59
M  V30 END BOND
M  V30 END CTAB
M  END
>  <Dataset>  (703) 
ChEMBL_Kinases

>  <Ligand_Instance>  (703) 
nan

>  <PDB_ID>  (703) 
nan

>  <Standardized_SMILES>  (703) 
CC(C)(Nc1cccc(C(=O)NCCC(N)=O)c1)C(=O)Nc1nc2c(C(F)(F)F)cc3[nH]ncc3c2s1

>  <Name>  (703) 
nan

>  <Pocket>  (703) 
nan

>  <ATP_Site>  (703) 
nan

>  <Peripheral>  (703) 
nan

>  <Num_H_Atoms_ProtBoundConf>  (703) 
nan

>  <Num_Resolved_Atoms>  (703) 
nan

>  <Num_Not_Resolved_Atoms>  (703) 
nan

$$$$
CHEMBL3715181
     RDKit          3D

  0  0  0  0  0  0  0  0  0  0999 V3000
M  V30 BEGIN CTAB
M  V30 COUNTS 39 42 0 0 0
M  V30 BEGIN ATOM
M  V30 1 O 0.384126 -4.360414 5.235330 0
M  V30 2 C 0.983924 -3.874065 4.226265 0
M  V30 3 O 2.306157 -4.293224 4.136033 0
M  V30 4 C 0.400406 -2.972653 3.240796 0
M  V30 5 C 1.135994 -2.497230 2.176439 0
M  V30 6 C 0.527749 -1.658997 1.294308 0
M  V30 7 C -0.780550 -1.222674 1.353051 0
M  V30 8 C -1.429865 -0.307962 0.391617 0 CFG=2
M  V30 9 N -1.091881 -0.614497 -0.991653 0
M  V30 10 C 0.032948 -0.090252 -1.683345 0
M  V30 11 C 0.513521 -0.675247 -2.837186 0
M  V30 12 C 1.609177 -0.082233 -3.422887 0
M  V30 13 C 2.189178 1.045171 -2.869542 0
M  V30 14 I 3.864673 1.858864 -3.864048 0
M  V30 15 C 1.693680 1.628296 -1.701141 0
M  V30 16 C 0.594352 1.032925 -1.113885 0
M  V30 17 C 0.095578 1.662771 0.107087 0 CFG=2
M  V30 18 C 0.989111 1.444325 1.303309 0
M  V30 19 C 0.255351 1.378640 2.409849 0
M  V30 20 C -1.159182 1.542676 2.065826 0
M  V30 21 C -1.212987 1.138180 0.616492 0 CFG=2
M  V30 22 C -1.460791 -1.747220 2.458670 0
M  V30 23 C -0.918321 -2.600584 3.396658 0
M  V30 24 H 2.627436 -5.185813 4.476403 0
M  V30 25 H 2.175146 -2.801551 2.069549 0
M  V30 26 H 1.143230 -1.315848 0.475302 0
M  V30 27 H -2.542911 -0.492899 0.535875 0
M  V30 28 H -1.728184 -1.273421 -1.517042 0
M  V30 29 H -0.020783 -1.554482 -3.177822 0
M  V30 30 H 1.972540 -0.554255 -4.326840 0
M  V30 31 H 2.192936 2.501245 -1.328320 0
M  V30 32 H 0.036943 2.786423 0.000665 0
M  V30 33 H 2.073773 1.343857 1.351515 0
M  V30 34 H 0.520938 1.233699 3.447206 0
M  V30 35 H -1.399214 2.642718 2.097777 0
M  V30 36 H -1.884149 1.042208 2.711440 0
M  V30 37 H -2.077393 1.678747 0.175735 0
M  V30 38 H -2.501817 -1.471102 2.606883 0
M  V30 39 H -1.523873 -2.954924 4.219745 0
M  V30 END ATOM
M  V30 BEGIN BOND
M  V30 1 2 1 2
M  V30 2 1 2 3
M  V30 3 1 2 4
M  V30 4 2 4 5
M  V30 5 1 5 6
M  V30 6 2 6 7
M  V30 7 1 7 8
M  V30 8 1 8 9
M  V30 9 1 9 10
M  V30 10 2 10 11
M  V30 11 1 11 12
M  V30 12 2 12 13
M  V30 13 1 13 14
M  V30 14 1 13 15
M  V30 15 2 15 16
M  V30 16 1 16 17
M  V30 17 1 17 18
M  V30 18 2 18 19
M  V30 19 1 19 20
M  V30 20 1 20 21
M  V30 21 1 7 22
M  V30 22 2 22 23
M  V30 23 1 23 4
M  V30 24 1 21 8
M  V30 25 1 16 10
M  V30 26 1 21 17
M  V30 27 1 3 24
M  V30 28 1 5 25
M  V30 29 1 6 26
M  V30 30 1 8 27 CFG=3
M  V30 31 1 9 28
M  V30 32 1 11 29
M  V30 33 1 12 30
M  V30 34 1 15 31
M  V30 35 1 17 32 CFG=3
M  V30 36 1 18 33
M  V30 37 1 19 34
M  V30 38 1 20 35
M  V30 39 1 20 36
M  V30 40 1 21 37 CFG=3
M  V30 41 1 22 38
M  V30 42 1 23 39
M  V30 END BOND
M  V30 END CTAB
M  END
>  <Dataset>  (704) 
ChEMBL_Kinases

>  <Ligand_Instance>  (704) 
nan

>  <PDB_ID>  (704) 
nan

>  <Standardized_SMILES>  (704) 
O=C(O)c1ccc([C@@H]2Nc3ccc(I)cc3[C@@H]3C=CC[C@@H]32)cc1

>  <Name>  (704) 
nan

>  <Pocket>  (704) 
nan

>  <ATP_Site>  (704) 
nan

>  <Peripheral>  (704) 
nan

>  <Num_H_Atoms_ProtBoundConf>  (704) 
nan

>  <Num_Resolved_Atoms>  (704) 
nan

>  <Num_Not_Resolved_Atoms>  (704) 
nan

$$$$
CHEMBL568457
     RDKit          3D

  0  0  0  0  0  0  0  0  0  0999 V3000
M  V30 BEGIN CTAB
M  V30 COUNTS 69 73 0 0 0
M  V30 BEGIN ATOM
M  V30 1 C 3.062572 1.149208 5.646901 0
M  V30 2 C 3.746148 0.204220 4.736971 0
M  V30 3 C 4.097646 0.643634 3.478453 0
M  V30 4 N 3.828687 1.965370 3.029827 0
M  V30 5 C 4.267613 2.269703 1.694679 0
M  V30 6 C 5.541230 2.778748 1.560082 0
M  V30 7 C 6.356013 2.981860 2.722631 0
M  V30 8 N 7.029424 3.134548 3.660090 0
M  V30 9 C 6.048178 3.099201 0.308210 0
M  V30 10 N 5.224344 2.880633 -0.729379 0
M  V30 11 C 3.982192 2.384390 -0.599921 0
M  V30 12 C 3.432488 2.050319 0.622010 0
M  V30 13 C 2.094852 1.516158 0.771732 0
M  V30 14 C 1.224215 1.270816 -0.190655 0
M  V30 15 C -0.121022 0.732811 -0.026048 0
M  V30 16 C -0.669333 0.407466 1.190211 0
M  V30 17 C -1.967368 -0.105191 1.284404 0
M  V30 18 C -2.754673 -0.305498 0.141370 0
M  V30 19 O -3.977594 -0.805957 0.431432 0
M  V30 20 C -5.040151 -1.157382 -0.383101 0
M  V30 21 C -4.802770 -2.251737 -1.366121 0
M  V30 22 N -5.965545 -2.512379 -2.146442 0
M  V30 23 C -6.369548 -1.525148 -3.076345 0
M  V30 24 C -5.733805 -1.679089 -4.441167 0
M  V30 25 N -5.937133 -3.004974 -4.953158 0
M  V30 26 C -5.139093 -3.153069 -6.152675 0
M  V30 27 C -5.535721 -4.042174 -4.031137 0
M  V30 28 C -6.053136 -3.865647 -2.641487 0
M  V30 29 C -2.141024 0.041747 -1.035984 0
M  V30 30 C -0.870598 0.546759 -1.162109 0
M  V30 31 C 4.732485 -0.279347 2.674610 0
M  V30 32 C 5.032295 -1.574343 3.030656 0
M  V30 33 C 4.669342 -2.006312 4.311936 0
M  V30 34 N 4.829734 -3.188607 4.922459 0
M  V30 35 C 4.302469 -3.106770 6.176790 0
M  V30 36 C 3.812019 -1.806058 6.293904 0
M  V30 37 C 4.033915 -1.087376 5.120444 0
M  V30 38 H 2.101209 1.537061 5.225448 0
M  V30 39 H 2.813824 0.685724 6.621298 0
M  V30 40 H 3.708994 2.019668 5.901672 0
M  V30 41 H 3.338908 2.612775 3.690036 0
M  V30 42 H 7.045976 3.498820 0.198793 0
M  V30 43 H 3.431376 2.260726 -1.520248 0
M  V30 44 H 1.770424 1.291964 1.787360 0
M  V30 45 H 1.600686 1.511865 -1.174088 0
M  V30 46 H -0.087831 0.549727 2.093433 0
M  V30 47 H -2.302255 -0.329353 2.305120 0
M  V30 48 H -5.523983 -0.243768 -0.843360 0
M  V30 49 H -5.856016 -1.523738 0.315139 0
M  V30 50 H -3.879777 -2.137113 -1.952043 0
M  V30 51 H -4.644540 -3.189169 -0.736841 0
M  V30 52 H -6.205870 -0.521324 -2.703021 0
M  V30 53 H -7.480787 -1.621793 -3.256254 0
M  V30 54 H -6.237162 -0.965800 -5.125799 0
M  V30 55 H -4.651723 -1.436123 -4.416812 0
M  V30 56 H -5.688130 -3.613346 -6.982016 0
M  V30 57 H -4.740164 -2.171407 -6.517649 0
M  V30 58 H -4.230761 -3.786604 -5.989173 0
M  V30 59 H -4.439897 -4.200240 -4.104883 0
M  V30 60 H -5.971974 -5.001679 -4.423556 0
M  V30 61 H -7.137886 -4.170133 -2.668068 0
M  V30 62 H -5.535037 -4.546588 -1.968712 0
M  V30 63 H -2.745815 -0.100806 -1.916239 0
M  V30 64 H -0.521556 0.773169 -2.150282 0
M  V30 65 H 5.037260 0.001576 1.667972 0
M  V30 66 H 5.532620 -2.267134 2.367411 0
M  V30 67 H 5.269380 -4.070699 4.574475 0
M  V30 68 H 4.254486 -3.864203 6.947223 0
M  V30 69 H 3.315506 -1.388363 7.183916 0
M  V30 END ATOM
M  V30 BEGIN BOND
M  V30 1 1 1 2
M  V30 2 2 2 3
M  V30 3 1 3 4
M  V30 4 1 4 5
M  V30 5 2 5 6
M  V30 6 1 6 7
M  V30 7 3 7 8
M  V30 8 1 6 9
M  V30 9 2 9 10
M  V30 10 1 10 11
M  V30 11 2 11 12
M  V30 12 1 12 13
M  V30 13 2 13 14
M  V30 14 1 14 15
M  V30 15 2 15 16
M  V30 16 1 16 17
M  V30 17 2 17 18
M  V30 18 1 18 19
M  V30 19 1 19 20
M  V30 20 1 20 21
M  V30 21 1 21 22
M  V30 22 1 22 23
M  V30 23 1 23 24
M  V30 24 1 24 25
M  V30 25 1 25 26
M  V30 26 1 25 27
M  V30 27 1 27 28
M  V30 28 1 18 29
M  V30 29 2 29 30
M  V30 30 1 3 31
M  V30 31 2 31 32
M  V30 32 1 32 33
M  V30 33 1 33 34
M  V30 34 1 34 35
M  V30 35 2 35 36
M  V30 36 1 36 37
M  V30 37 1 37 2
M  V30 38 1 12 5
M  V30 39 1 30 15
M  V30 40 2 37 33
M  V30 41 1 28 22
M  V30 42 1 1 38
M  V30 43 1 1 39
M  V30 44 1 1 40
M  V30 45 1 4 41
M  V30 46 1 9 42
M  V30 47 1 11 43
M  V30 48 1 13 44
M  V30 49 1 14 45
M  V30 50 1 16 46
M  V30 51 1 17 47
M  V30 52 1 20 48
M  V30 53 1 20 49
M  V30 54 1 21 50
M  V30 55 1 21 51
M  V30 56 1 23 52
M  V30 57 1 23 53
M  V30 58 1 24 54
M  V30 59 1 24 55
M  V30 60 1 26 56
M  V30 61 1 26 57
M  V30 62 1 26 58
M  V30 63 1 27 59
M  V30 64 1 27 60
M  V30 65 1 28 61
M  V30 66 1 28 62
M  V30 67 1 29 63
M  V30 68 1 30 64
M  V30 69 1 31 65
M  V30 70 1 32 66
M  V30 71 1 34 67
M  V30 72 1 35 68
M  V30 73 1 36 69
M  V30 END BOND
M  V30 END CTAB
M  END
>  <Dataset>  (705) 
ChEMBL_Kinases

>  <Ligand_Instance>  (705) 
nan

>  <PDB_ID>  (705) 
nan

>  <Standardized_SMILES>  (705) 
Cc1c(Nc2c(C#N)cncc2/C=C/c2ccc(OCCN3CCN(C)CC3)cc2)ccc2[nH]ccc12

>  <Name>  (705) 
nan

>  <Pocket>  (705) 
nan

>  <ATP_Site>  (705) 
nan

>  <Peripheral>  (705) 
nan

>  <Num_H_Atoms_ProtBoundConf>  (705) 
nan

>  <Num_Resolved_Atoms>  (705) 
nan

>  <Num_Not_Resolved_Atoms>  (705) 
nan

$$$$
CHEMBL3715220
     RDKit          3D

  0  0  0  0  0  0  0  0  0  0999 V3000
M  V30 BEGIN CTAB
M  V30 COUNTS 33 35 0 0 0
M  V30 BEGIN ATOM
M  V30 1 O 2.344529 -1.022617 4.189574 0
M  V30 2 C 2.267441 -2.287330 4.030153 0
M  V30 3 O 1.217578 -2.860968 4.727797 0
M  V30 4 C 3.177445 -3.112671 3.197404 0
M  V30 5 S 4.455822 -2.096090 2.408178 0
M  V30 6 C 3.667244 -1.003070 1.231017 0
M  V30 7 N 4.390106 -0.123322 0.490656 0
M  V30 8 N 3.521300 0.528881 -0.272316 0
M  V30 9 C 2.270777 0.077702 -0.026952 0
M  V30 10 C 1.057254 0.573092 -0.694259 0
M  V30 11 C 1.117353 1.572377 -1.649079 0
M  V30 12 C -0.066269 1.981771 -2.229159 0
M  V30 13 C -1.275339 1.415281 -1.871558 0
M  V30 14 C -1.296914 0.421093 -0.915457 0
M  V30 15 C -2.609029 -0.128525 -0.592729 0
M  V30 16 C -2.828036 -1.124122 0.333596 0
M  V30 17 N -4.030680 -1.639147 0.639052 0
M  V30 18 C -5.123268 -1.147351 -0.009863 0
M  V30 19 C -4.943858 -0.140919 -0.952736 0
M  V30 20 N -3.702040 0.336896 -1.216238 0
M  V30 21 C -0.149377 -0.008905 -0.321155 0
M  V30 22 N 2.373185 -0.879048 0.913810 0
M  V30 23 H 0.280058 -2.445329 4.777622 0
M  V30 24 H 3.690107 -3.877743 3.823847 0
M  V30 25 H 2.553227 -3.633582 2.419166 0
M  V30 26 H 2.101961 1.957764 -1.866479 0
M  V30 27 H 0.054845 2.777386 -2.978395 0
M  V30 28 H -2.110451 1.837974 -2.410507 0
M  V30 29 H -1.984510 -1.537385 0.867547 0
M  V30 30 H -6.135510 -1.484131 0.154630 0
M  V30 31 H -5.787066 0.296149 -1.510013 0
M  V30 32 H -0.152474 -0.775654 0.419246 0
M  V30 33 H 1.595571 -1.430529 1.328708 0
M  V30 END ATOM
M  V30 BEGIN BOND
M  V30 1 2 1 2
M  V30 2 1 2 3
M  V30 3 1 2 4
M  V30 4 1 4 5
M  V30 5 1 5 6
M  V30 6 2 6 7
M  V30 7 1 7 8
M  V30 8 2 8 9
M  V30 9 1 9 10
M  V30 10 2 10 11
M  V30 11 1 11 12
M  V30 12 2 12 13
M  V30 13 1 13 14
M  V30 14 1 14 15
M  V30 15 2 15 16
M  V30 16 1 16 17
M  V30 17 2 17 18
M  V30 18 1 18 19
M  V30 19 2 19 20
M  V30 20 2 14 21
M  V30 21 1 9 22
M  V30 22 1 22 6
M  V30 23 1 21 10
M  V30 24 1 20 15
M  V30 25 1 3 23
M  V30 26 1 4 24
M  V30 27 1 4 25
M  V30 28 1 11 26
M  V30 29 1 12 27
M  V30 30 1 13 28
M  V30 31 1 16 29
M  V30 32 1 18 30
M  V30 33 1 19 31
M  V30 34 1 21 32
M  V30 35 1 22 33
M  V30 END BOND
M  V30 END CTAB
M  END
>  <Dataset>  (706) 
ChEMBL_Kinases

>  <Ligand_Instance>  (706) 
nan

>  <PDB_ID>  (706) 
nan

>  <Standardized_SMILES>  (706) 
O=C(O)CSc1nnc(-c2cccc(-c3cnccn3)c2)[nH]1

>  <Name>  (706) 
nan

>  <Pocket>  (706) 
nan

>  <ATP_Site>  (706) 
nan

>  <Peripheral>  (706) 
nan

>  <Num_H_Atoms_ProtBoundConf>  (706) 
nan

>  <Num_Resolved_Atoms>  (706) 
nan

>  <Num_Not_Resolved_Atoms>  (706) 
nan

$$$$
CHEMBL3716771
     RDKit          3D

  0  0  0  0  0  0  0  0  0  0999 V3000
M  V30 BEGIN CTAB
M  V30 COUNTS 40 43 0 0 0
M  V30 BEGIN ATOM
M  V30 1 O 3.639987 0.192896 1.898412 0
M  V30 2 C 2.674954 0.259769 1.062682 0
M  V30 3 N 2.070144 -1.018883 0.941430 0
M  V30 4 C 2.121513 -2.359113 1.400280 0 CFG=2
M  V30 5 C 2.343194 -3.307985 0.221392 0
M  V30 6 C 1.179990 -4.209901 -0.034348 0
M  V30 7 C -0.135685 -3.473712 0.030396 0
M  V30 8 N -0.306529 -2.758519 1.266730 0
M  V30 9 C 0.854457 -2.809594 2.097700 0
M  V30 10 C 2.241164 1.440640 0.327908 0
M  V30 11 C 3.241977 2.144552 -0.370936 0
M  V30 12 C 2.756100 3.230285 -1.059979 0
M  V30 13 N 1.460898 3.602707 -1.077769 0
M  V30 14 C 0.521598 2.920955 -0.404659 0
M  V30 15 N -0.831540 3.024917 -0.231357 0
M  V30 16 C -1.214382 2.011858 0.565803 0
M  V30 17 C -2.620590 1.759957 0.971565 0
M  V30 18 C -3.011119 0.810987 1.828405 0
M  V30 19 C -4.344055 0.628594 2.069256 0
M  V30 20 C -5.233349 1.534827 1.329602 0
M  V30 21 S -3.983084 2.592883 0.327712 0
M  V30 22 N -0.192543 1.244370 0.930263 0
M  V30 23 C 0.882327 1.790307 0.339537 0
M  V30 24 H 1.253257 -1.052021 0.256481 0
M  V30 25 H 2.936321 -2.455027 2.131299 0
M  V30 26 H 3.272508 -3.903527 0.361021 0
M  V30 27 H 2.513630 -2.706868 -0.720654 0
M  V30 28 H 1.274828 -4.559453 -1.102258 0
M  V30 29 H 1.179492 -5.138222 0.593387 0
M  V30 30 H -0.146852 -2.748430 -0.801909 0
M  V30 31 H -0.957458 -4.210676 -0.151544 0
M  V30 32 H -0.778237 -1.858434 1.216245 0
M  V30 33 H 1.017035 -3.899676 2.353307 0
M  V30 34 H 0.673400 -2.294419 3.055416 0
M  V30 35 H 4.267445 1.818735 -0.333229 0
M  V30 36 H 3.479503 3.830915 -1.632066 0
M  V30 37 H -2.427609 0.124524 2.469698 0
M  V30 38 H -4.938547 -0.029282 2.681272 0
M  V30 39 H -6.407478 1.579844 1.367311 0
M  V30 40 H -0.123183 0.400774 1.532027 0
M  V30 END ATOM
M  V30 BEGIN BOND
M  V30 1 2 1 2
M  V30 2 1 2 3
M  V30 3 1 3 4
M  V30 4 1 4 5
M  V30 5 1 5 6
M  V30 6 1 6 7
M  V30 7 1 7 8
M  V30 8 1 8 9
M  V30 9 1 2 10
M  V30 10 2 10 11
M  V30 11 1 11 12
M  V30 12 2 12 13
M  V30 13 1 13 14
M  V30 14 1 14 15
M  V30 15 2 15 16
M  V30 16 1 16 17
M  V30 17 2 17 18
M  V30 18 1 18 19
M  V30 19 2 19 20
M  V30 20 1 20 21
M  V30 21 1 16 22
M  V30 22 1 22 23
M  V30 23 1 9 4
M  V30 24 1 23 10
M  V30 25 2 23 14
M  V30 26 1 21 17
M  V30 27 1 3 24
M  V30 28 1 4 25 CFG=1
M  V30 29 1 5 26
M  V30 30 1 5 27
M  V30 31 1 6 28
M  V30 32 1 6 29
M  V30 33 1 7 30
M  V30 34 1 7 31
M  V30 35 1 8 32
M  V30 36 1 9 33
M  V30 37 1 9 34
M  V30 38 1 11 35
M  V30 39 1 12 36
M  V30 40 1 18 37
M  V30 41 1 19 38
M  V30 42 1 20 39
M  V30 43 1 22 40
M  V30 END BOND
M  V30 END CTAB
M  END
>  <Dataset>  (707) 
ChEMBL_Kinases

>  <Ligand_Instance>  (707) 
nan

>  <PDB_ID>  (707) 
nan

>  <Standardized_SMILES>  (707) 
O=C(N[C@@H]1CCCNC1)c1ccnc2nc(-c3cccs3)[nH]c12

>  <Name>  (707) 
nan

>  <Pocket>  (707) 
nan

>  <ATP_Site>  (707) 
nan

>  <Peripheral>  (707) 
nan

>  <Num_H_Atoms_ProtBoundConf>  (707) 
nan

>  <Num_Resolved_Atoms>  (707) 
nan

>  <Num_Not_Resolved_Atoms>  (707) 
nan

$$$$
CHEMBL3715230
     RDKit          3D

  0  0  0  0  0  0  0  0  0  0999 V3000
M  V30 BEGIN CTAB
M  V30 COUNTS 26 27 0 0 0
M  V30 BEGIN ATOM
M  V30 1 O 1.304098 -5.612841 4.259658 0
M  V30 2 C 0.871398 -5.262222 3.117776 0
M  V30 3 O 0.205534 -6.445131 2.828516 0
M  V30 4 C 1.146510 -3.942466 2.529070 0
M  V30 5 S 0.371277 -3.775364 0.876157 0
M  V30 6 C 0.745582 -2.138455 0.210495 0
M  V30 7 N 1.793734 -1.724034 -0.557090 0
M  V30 8 N 1.656722 -0.444289 -0.807590 0
M  V30 9 C 0.533575 0.022667 -0.224696 0
M  V30 10 C 0.110483 1.414635 -0.324983 0
M  V30 11 C 0.844635 2.361177 -1.035239 0
M  V30 12 C 0.459471 3.681098 -1.140454 0
M  V30 13 Br 1.548536 4.886523 -2.141785 0
M  V30 14 C -0.695542 4.124615 -0.531433 0
M  V30 15 C -1.448293 3.220728 0.179287 0
M  V30 16 C -1.034239 1.908399 0.264354 0
M  V30 17 O -1.844086 1.080939 0.990849 0
M  V30 18 N 0.001902 -1.029441 0.386087 0
M  V30 19 H -0.700512 -6.665485 3.249494 0
M  V30 20 H 0.746241 -3.113153 3.179097 0
M  V30 21 H 2.237925 -3.748141 2.444040 0
M  V30 22 H 1.750732 2.033488 -1.518354 0
M  V30 23 H -0.929802 5.156317 -0.655638 0
M  V30 24 H -2.352929 3.589766 0.650598 0
M  V30 25 H -2.682775 0.709115 0.560709 0
M  V30 26 H -0.864220 -1.025376 0.929219 0
M  V30 END ATOM
M  V30 BEGIN BOND
M  V30 1 2 1 2
M  V30 2 1 2 3
M  V30 3 1 2 4
M  V30 4 1 4 5
M  V30 5 1 5 6
M  V30 6 2 6 7
M  V30 7 1 7 8
M  V30 8 2 8 9
M  V30 9 1 9 10
M  V30 10 2 10 11
M  V30 11 1 11 12
M  V30 12 1 12 13
M  V30 13 2 12 14
M  V30 14 1 14 15
M  V30 15 2 15 16
M  V30 16 1 16 17
M  V30 17 1 9 18
M  V30 18 1 18 6
M  V30 19 1 16 10
M  V30 20 1 3 19
M  V30 21 1 4 20
M  V30 22 1 4 21
M  V30 23 1 11 22
M  V30 24 1 14 23
M  V30 25 1 15 24
M  V30 26 1 17 25
M  V30 27 1 18 26
M  V30 END BOND
M  V30 END CTAB
M  END
>  <Dataset>  (708) 
ChEMBL_Kinases

>  <Ligand_Instance>  (708) 
nan

>  <PDB_ID>  (708) 
nan

>  <Standardized_SMILES>  (708) 
O=C(O)CSc1nnc(-c2cc(Br)ccc2O)[nH]1

>  <Name>  (708) 
nan

>  <Pocket>  (708) 
nan

>  <ATP_Site>  (708) 
nan

>  <Peripheral>  (708) 
nan

>  <Num_H_Atoms_ProtBoundConf>  (708) 
nan

>  <Num_Resolved_Atoms>  (708) 
nan

>  <Num_Not_Resolved_Atoms>  (708) 
nan

$$$$
CHEMBL3715228
     RDKit          3D

  0  0  0  0  0  0  0  0  0  0999 V3000
M  V30 BEGIN CTAB
M  V30 COUNTS 42 45 0 0 0
M  V30 BEGIN ATOM
M  V30 1 O 3.419926 -2.129132 0.554421 0
M  V30 2 C 2.455525 -1.329191 0.546891 0
M  V30 3 N 1.198664 -1.915249 0.230589 0
M  V30 4 C 0.824220 -3.289193 -0.094438 0
M  V30 5 C -0.159578 -3.742206 0.963482 0
M  V30 6 C -0.465321 -5.230069 0.817432 0
M  V30 7 N -0.648701 -5.531079 -0.566266 0
M  V30 8 C -1.017575 -4.392654 -1.365986 0
M  V30 9 C 0.096023 -3.354372 -1.416546 0
M  V30 10 C 2.587245 0.085555 0.832451 0
M  V30 11 C 3.847074 0.636840 0.713026 0
M  V30 12 C 4.050365 1.990553 0.960206 0
M  V30 13 C 3.020306 2.832505 1.330346 0
M  V30 14 O 3.173653 4.191348 1.587784 0
M  V30 15 C 1.770475 2.279060 1.447134 0
M  V30 16 N 0.571075 2.784446 1.775361 0
M  V30 17 C -0.363831 1.813861 1.746441 0
M  V30 18 C -1.833100 1.922862 2.038566 0
M  V30 19 C -2.439524 3.186908 2.442560 0
M  V30 20 C -2.588718 2.827283 1.003379 0
M  V30 21 N 0.278838 0.688891 1.392425 0
M  V30 22 C 1.582664 0.954567 1.203608 0
M  V30 23 H 0.314622 -1.363821 0.192918 0
M  V30 24 H 1.743507 -3.901439 -0.060414 0
M  V30 25 H 0.214959 -3.573769 1.969666 0
M  V30 26 H -1.133305 -3.201257 0.750865 0
M  V30 27 H -1.410277 -5.450011 1.386987 0
M  V30 28 H 0.336181 -5.836171 1.278568 0
M  V30 29 H 0.167087 -5.993742 -1.004460 0
M  V30 30 H -1.944364 -3.894318 -1.006512 0
M  V30 31 H -1.121913 -4.759477 -2.423489 0
M  V30 32 H -0.332992 -2.318773 -1.583108 0
M  V30 33 H 0.848475 -3.575548 -2.197808 0
M  V30 34 H 4.774098 0.132774 0.432966 0
M  V30 35 H 5.027205 2.484481 0.879328 0
M  V30 36 H 3.661551 4.449329 2.459046 0
M  V30 37 H 0.381965 3.786446 2.020755 0
M  V30 38 H -2.347879 0.944096 2.188957 0
M  V30 39 H -3.376393 3.150631 3.044665 0
M  V30 40 H -1.783922 4.063840 2.668468 0
M  V30 41 H -1.955525 3.369334 0.271520 0
M  V30 42 H -3.557893 2.413315 0.619928 0
M  V30 END ATOM
M  V30 BEGIN BOND
M  V30 1 2 1 2
M  V30 2 1 2 3
M  V30 3 1 3 4
M  V30 4 1 4 5
M  V30 5 1 5 6
M  V30 6 1 6 7
M  V30 7 1 7 8
M  V30 8 1 8 9
M  V30 9 1 2 10
M  V30 10 2 10 11
M  V30 11 1 11 12
M  V30 12 2 12 13
M  V30 13 1 13 14
M  V30 14 1 13 15
M  V30 15 1 15 16
M  V30 16 1 16 17
M  V30 17 1 17 18
M  V30 18 1 18 19
M  V30 19 1 19 20
M  V30 20 2 17 21
M  V30 21 1 21 22
M  V30 22 1 9 4
M  V30 23 1 22 10
M  V30 24 2 22 15
M  V30 25 1 20 18
M  V30 26 1 3 23
M  V30 27 1 4 24
M  V30 28 1 5 25
M  V30 29 1 5 26
M  V30 30 1 6 27
M  V30 31 1 6 28
M  V30 32 1 7 29
M  V30 33 1 8 30
M  V30 34 1 8 31
M  V30 35 1 9 32
M  V30 36 1 9 33
M  V30 37 1 11 34
M  V30 38 1 12 35
M  V30 39 1 14 36
M  V30 40 1 16 37
M  V30 41 1 18 38
M  V30 42 1 19 39
M  V30 43 1 19 40
M  V30 44 1 20 41
M  V30 45 1 20 42
M  V30 END BOND
M  V30 END CTAB
M  END
>  <Dataset>  (709) 
ChEMBL_Kinases

>  <Ligand_Instance>  (709) 
nan

>  <PDB_ID>  (709) 
nan

>  <Standardized_SMILES>  (709) 
O=C(NC1CCNCC1)c1ccc(O)c2[nH]c(C3CC3)nc12

>  <Name>  (709) 
nan

>  <Pocket>  (709) 
nan

>  <ATP_Site>  (709) 
nan

>  <Peripheral>  (709) 
nan

>  <Num_H_Atoms_ProtBoundConf>  (709) 
nan

>  <Num_Resolved_Atoms>  (709) 
nan

>  <Num_Not_Resolved_Atoms>  (709) 
nan

$$$$
CHEMBL371523
     RDKit          3D

  0  0  0  0  0  0  0  0  0  0999 V3000
M  V30 BEGIN CTAB
M  V30 COUNTS 29 30 0 0 0
M  V30 BEGIN ATOM
M  V30 1 O 1.585861 -1.087052 2.105693 0
M  V30 2 C 0.337011 -0.836854 2.021126 0
M  V30 3 C -0.407610 -1.539957 0.954064 0
M  V30 4 C 0.464580 -2.433886 0.161576 0
M  V30 5 O 0.713318 -3.595975 0.643150 0
M  V30 6 C 1.034283 -2.036911 -1.123202 0
M  V30 7 C 0.822729 -0.802505 -1.713862 0
M  V30 8 C 1.370287 -0.448457 -2.929082 0
M  V30 9 C 2.170459 -1.335985 -3.618617 0
M  V30 10 C 2.375562 -2.569149 -3.018085 0
M  V30 11 C 1.835020 -2.937101 -1.804267 0
M  V30 12 C -0.375723 0.081192 2.897671 0
M  V30 13 C -1.726868 0.349682 2.805808 0
M  V30 14 C -2.243523 1.244656 3.711203 0
M  V30 15 C -1.514486 1.878237 4.684965 0
M  V30 16 C -0.157469 1.600875 4.768072 0
M  V30 17 C 0.376703 0.707930 3.870334 0
M  V30 18 H -1.193133 -2.144425 1.487108 0
M  V30 19 H -0.947847 -0.800627 0.323281 0
M  V30 20 H 0.200449 -0.082362 -1.200811 0
M  V30 21 H 1.163552 0.544931 -3.340721 0
M  V30 22 H 2.618998 -1.101112 -4.572145 0
M  V30 23 H 3.004410 -3.272635 -3.556102 0
M  V30 24 H 2.069622 -3.940639 -1.431133 0
M  V30 25 H -2.289953 -0.154741 2.035163 0
M  V30 26 H -3.315870 1.444653 3.623419 0
M  V30 27 H -2.034262 2.572943 5.351696 0
M  V30 28 H 0.347564 2.132180 5.552438 0
M  V30 29 H 1.439232 0.510695 3.959955 0
M  V30 END ATOM
M  V30 BEGIN BOND
M  V30 1 2 1 2
M  V30 2 1 2 3
M  V30 3 1 3 4
M  V30 4 2 4 5
M  V30 5 1 4 6
M  V30 6 2 6 7
M  V30 7 1 7 8
M  V30 8 2 8 9
M  V30 9 1 9 10
M  V30 10 2 10 11
M  V30 11 1 2 12
M  V30 12 2 12 13
M  V30 13 1 13 14
M  V30 14 2 14 15
M  V30 15 1 15 16
M  V30 16 2 16 17
M  V30 17 1 11 6
M  V30 18 1 17 12
M  V30 19 1 3 18
M  V30 20 1 3 19
M  V30 21 1 7 20
M  V30 22 1 8 21
M  V30 23 1 9 22
M  V30 24 1 10 23
M  V30 25 1 11 24
M  V30 26 1 13 25
M  V30 27 1 14 26
M  V30 28 1 15 27
M  V30 29 1 16 28
M  V30 30 1 17 29
M  V30 END BOND
M  V30 END CTAB
M  END
>  <Dataset>  (710) 
ChEMBL_Kinases

>  <Ligand_Instance>  (710) 
nan

>  <PDB_ID>  (710) 
nan

>  <Standardized_SMILES>  (710) 
O=C(CC(=O)c1ccccc1)c1ccccc1

>  <Name>  (710) 
DIBENZOYLMETHANE

>  <Pocket>  (710) 
nan

>  <ATP_Site>  (710) 
nan

>  <Peripheral>  (710) 
nan

>  <Num_H_Atoms_ProtBoundConf>  (710) 
nan

>  <Num_Resolved_Atoms>  (710) 
nan

>  <Num_Not_Resolved_Atoms>  (710) 
nan

$$$$
CHEMBL3716741
     RDKit          3D

  0  0  0  0  0  0  0  0  0  0999 V3000
M  V30 BEGIN CTAB
M  V30 COUNTS 62 65 0 0 0
M  V30 BEGIN ATOM
M  V30 1 C 3.158596 -4.177458 6.925182 0
M  V30 2 C 3.782066 -2.788947 6.977829 0
M  V30 3 C 3.186413 -1.942170 5.909655 0
M  V30 4 C 3.779293 -1.913868 4.648816 0
M  V30 5 C 3.283685 -1.150414 3.603339 0
M  V30 6 C 2.164113 -0.409496 3.865607 0
M  V30 7 C 1.523349 0.444958 2.866622 0
M  V30 8 C 0.841965 1.614553 3.141246 0
M  V30 9 C 0.270445 2.345144 2.091260 0
M  V30 10 C 0.376176 1.915998 0.782933 0
M  V30 11 C -0.243318 2.725779 -0.260248 0
M  V30 12 O -0.835740 3.768072 0.119281 0
M  V30 13 N -0.166949 2.338726 -1.605806 0
M  V30 14 C -0.690490 2.960259 -2.805097 0
M  V30 15 C 0.434461 3.384257 -3.735602 0
M  V30 16 C -1.690020 2.104448 -3.491818 0
M  V30 17 O -2.360906 2.290119 -4.555436 0
M  V30 18 N -1.985010 0.845757 -2.896773 0
M  V30 19 C -2.836918 -0.293763 -3.157738 0
M  V30 20 C -3.762543 -0.567253 -1.990886 0
M  V30 21 C -3.102784 -1.529742 -0.996749 0
M  V30 22 C -3.073760 -2.846930 -1.727129 0
M  V30 23 C -3.579408 -4.048477 -1.284075 0
M  V30 24 C -3.466832 -5.157560 -2.083433 0
M  V30 25 C -2.851485 -5.086015 -3.330468 0
M  V30 26 C -2.346479 -3.865533 -3.762561 0
M  V30 27 C -2.459544 -2.749044 -2.958469 0
M  V30 28 C -1.912720 -1.471612 -3.448099 0
M  V30 29 C 1.065698 0.742216 0.555281 0
M  V30 30 C 1.642407 -0.004598 1.564794 0
M  V30 31 C 1.543557 -0.406672 5.098810 0
M  V30 32 C 2.052387 -1.174863 6.130374 0
M  V30 33 H 2.813200 -4.493246 7.930851 0
M  V30 34 H 3.950654 -4.902813 6.578007 0
M  V30 35 H 2.301950 -4.223503 6.230398 0
M  V30 36 H 4.869840 -2.854110 6.950294 0
M  V30 37 H 3.454171 -2.319234 7.943396 0
M  V30 38 H 4.669846 -2.507909 4.452286 0
M  V30 39 H 3.733437 -1.124240 2.634264 0
M  V30 40 H 0.777159 1.921609 4.167036 0
M  V30 41 H -0.252722 3.259900 2.387966 0
M  V30 42 H 0.316894 1.483550 -1.946194 0
M  V30 43 H -1.208544 3.887304 -2.477717 0
M  V30 44 H 0.062365 4.101740 -4.484049 0
M  V30 45 H 1.158109 3.946909 -3.100590 0
M  V30 46 H 0.894806 2.501157 -4.204498 0
M  V30 47 H -1.495721 0.558054 -1.998606 0
M  V30 48 H -3.435291 -0.140711 -4.093523 0
M  V30 49 H -4.670887 -1.094407 -2.343559 0
M  V30 50 H -4.070297 0.348598 -1.484908 0
M  V30 51 H -2.070847 -1.224796 -0.775013 0
M  V30 52 H -3.743920 -1.545369 -0.109725 0
M  V30 53 H -4.038982 -4.005667 -0.303235 0
M  V30 54 H -3.872902 -6.068390 -1.700333 0
M  V30 55 H -2.767069 -5.974054 -3.958235 0
M  V30 56 H -1.872729 -3.808578 -4.722126 0
M  V30 57 H -0.957366 -1.314689 -2.873317 0
M  V30 58 H -1.707915 -1.517084 -4.533432 0
M  V30 59 H 1.161729 0.385882 -0.459859 0
M  V30 60 H 2.165610 -0.914064 1.293060 0
M  V30 61 H 0.653353 0.161712 5.363556 0
M  V30 62 H 1.641186 -1.241663 7.130869 0
M  V30 END ATOM
M  V30 BEGIN BOND
M  V30 1 1 1 2
M  V30 2 1 2 3
M  V30 3 2 3 4
M  V30 4 1 4 5
M  V30 5 2 5 6
M  V30 6 1 6 7
M  V30 7 2 7 8
M  V30 8 1 8 9
M  V30 9 2 9 10
M  V30 10 1 10 11
M  V30 11 2 11 12
M  V30 12 1 11 13
M  V30 13 1 13 14
M  V30 14 1 14 15
M  V30 15 1 14 16
M  V30 16 2 16 17
M  V30 17 1 16 18
M  V30 18 1 18 19
M  V30 19 1 19 20
M  V30 20 1 20 21
M  V30 21 1 21 22
M  V30 22 2 22 23
M  V30 23 1 23 24
M  V30 24 2 24 25
M  V30 25 1 25 26
M  V30 26 2 26 27
M  V30 27 1 27 28
M  V30 28 1 10 29
M  V30 29 2 29 30
M  V30 30 1 6 31
M  V30 31 2 31 32
M  V30 32 1 32 3
M  V30 33 1 30 7
M  V30 34 1 28 19
M  V30 35 1 27 22
M  V30 36 1 1 33
M  V30 37 1 1 34
M  V30 38 1 1 35
M  V30 39 1 2 36
M  V30 40 1 2 37
M  V30 41 1 4 38
M  V30 42 1 5 39
M  V30 43 1 8 40
M  V30 44 1 9 41
M  V30 45 1 13 42
M  V30 46 1 14 43
M  V30 47 1 15 44
M  V30 48 1 15 45
M  V30 49 1 15 46
M  V30 50 1 18 47
M  V30 51 1 19 48
M  V30 52 1 20 49
M  V30 53 1 20 50
M  V30 54 1 21 51
M  V30 55 1 21 52
M  V30 56 1 23 53
M  V30 57 1 24 54
M  V30 58 1 25 55
M  V30 59 1 26 56
M  V30 60 1 28 57
M  V30 61 1 28 58
M  V30 62 1 29 59
M  V30 63 1 30 60
M  V30 64 1 31 61
M  V30 65 1 32 62
M  V30 END BOND
M  V30 END CTAB
M  END
>  <Dataset>  (711) 
ChEMBL_Kinases

>  <Ligand_Instance>  (711) 
nan

>  <PDB_ID>  (711) 
nan

>  <Standardized_SMILES>  (711) 
CCc1ccc(-c2ccc(C(=O)NC(C)C(=O)NC3CCc4ccccc4C3)cc2)cc1

>  <Name>  (711) 
nan

>  <Pocket>  (711) 
nan

>  <ATP_Site>  (711) 
nan

>  <Peripheral>  (711) 
nan

>  <Num_H_Atoms_ProtBoundConf>  (711) 
nan

>  <Num_Resolved_Atoms>  (711) 
nan

>  <Num_Not_Resolved_Atoms>  (711) 
nan

$$$$
CHEMBL3716736
     RDKit          3D

  0  0  0  0  0  0  0  0  0  0999 V3000
M  V30 BEGIN CTAB
M  V30 COUNTS 30 31 0 0 0
M  V30 BEGIN ATOM
M  V30 1 C -2.440885 -3.183919 3.730212 0
M  V30 2 C -1.354096 -2.597046 2.939396 0
M  V30 3 C -0.018439 -2.827234 3.263047 0
M  V30 4 C 1.079080 -2.328755 2.591017 0
M  V30 5 C 0.825514 -1.526741 1.495901 0
M  V30 6 C 1.929961 -0.962325 0.725181 0
M  V30 7 N 3.234820 -1.158662 0.955636 0
M  V30 8 N 3.967405 -0.498843 0.056838 0
M  V30 9 C 3.122463 0.138200 -0.772944 0
M  V30 10 S 3.553033 1.173315 -2.160984 0
M  V30 11 C 2.006931 1.797516 -2.891368 0
M  V30 12 C 1.342982 2.718105 -1.929644 0
M  V30 13 O 0.246253 3.251049 -2.270842 0
M  V30 14 O 1.030295 3.483758 -0.828582 0
M  V30 15 N 1.878038 -0.146169 -0.363032 0
M  V30 16 C -0.471574 -1.239069 1.094995 0
M  V30 17 C -1.505160 -1.782532 1.827948 0
M  V30 18 N -2.843800 -1.493773 1.416076 0 CHG=1 VAL=4
M  V30 19 O -3.926393 -1.355731 1.992487 0
M  V30 20 O -3.358577 -1.264885 0.155693 0 CHG=-1 VAL=1
M  V30 21 H -2.800008 -2.533430 4.572993 0
M  V30 22 H -2.147465 -4.176384 4.103111 0
M  V30 23 H -3.350565 -3.346820 3.111439 0
M  V30 24 H 0.197331 -3.452305 4.117278 0
M  V30 25 H 2.078212 -2.566153 2.923610 0
M  V30 26 H 1.326066 0.926343 -2.996582 0
M  V30 27 H 2.126364 2.239256 -3.878685 0
M  V30 28 H 1.202309 3.140104 0.125112 0
M  V30 29 H 0.950729 0.166084 -0.757376 0
M  V30 30 H -0.677947 -0.610092 0.234975 0
M  V30 END ATOM
M  V30 BEGIN BOND
M  V30 1 1 1 2
M  V30 2 2 2 3
M  V30 3 1 3 4
M  V30 4 2 4 5
M  V30 5 1 5 6
M  V30 6 2 6 7
M  V30 7 1 7 8
M  V30 8 2 8 9
M  V30 9 1 9 10
M  V30 10 1 10 11
M  V30 11 1 11 12
M  V30 12 2 12 13
M  V30 13 1 12 14
M  V30 14 1 9 15
M  V30 15 1 5 16
M  V30 16 2 16 17
M  V30 17 1 17 18
M  V30 18 2 18 19
M  V30 19 1 18 20
M  V30 20 1 17 2
M  V30 21 1 15 6
M  V30 22 1 1 21
M  V30 23 1 1 22
M  V30 24 1 1 23
M  V30 25 1 3 24
M  V30 26 1 4 25
M  V30 27 1 11 26
M  V30 28 1 11 27
M  V30 29 1 14 28
M  V30 30 1 15 29
M  V30 31 1 16 30
M  V30 END BOND
M  V30 END CTAB
M  END
>  <Dataset>  (712) 
ChEMBL_Kinases

>  <Ligand_Instance>  (712) 
nan

>  <PDB_ID>  (712) 
nan

>  <Standardized_SMILES>  (712) 
Cc1ccc(-c2nnc(SCC(=O)O)[nH]2)cc1[N+](=O)[O-]

>  <Name>  (712) 
nan

>  <Pocket>  (712) 
nan

>  <ATP_Site>  (712) 
nan

>  <Peripheral>  (712) 
nan

>  <Num_H_Atoms_ProtBoundConf>  (712) 
nan

>  <Num_Resolved_Atoms>  (712) 
nan

>  <Num_Not_Resolved_Atoms>  (712) 
nan

$$$$
CHEMBL3716727
     RDKit          3D

  0  0  0  0  0  0  0  0  0  0999 V3000
M  V30 BEGIN CTAB
M  V30 COUNTS 43 46 0 0 0
M  V30 BEGIN ATOM
M  V30 1 O -0.029839 -0.948379 3.757384 0
M  V30 2 C -0.075673 -0.213163 2.743510 0
M  V30 3 N 0.886546 0.060019 1.749348 0
M  V30 4 C 2.145657 -0.599697 1.893227 0
M  V30 5 C 3.123537 -0.254242 0.800132 0
M  V30 6 C 3.451930 1.197389 0.728431 0
M  V30 7 C 4.475684 1.419013 -0.356109 0
M  V30 8 C 5.675683 0.560036 -0.164275 0
M  V30 9 C 5.284706 -0.871613 -0.032422 0
M  V30 10 N 4.291222 -1.090943 1.000842 0
M  V30 11 C -1.423252 0.331726 2.820869 0
M  V30 12 C -1.829821 1.376943 3.660127 0
M  V30 13 C -3.138916 1.788219 3.626275 0
M  V30 14 N -4.113394 1.270964 2.838445 0
M  V30 15 C -3.759402 0.249146 2.004293 0
M  V30 16 N -4.440591 -0.501264 1.094737 0
M  V30 17 C -3.601117 -1.386903 0.540883 0
M  V30 18 C -3.864928 -2.409756 -0.488051 0
M  V30 19 C -3.056841 -3.285938 -1.041114 0
M  V30 20 C -3.563860 -4.137994 -1.982515 0
M  V30 21 C -4.995052 -3.991628 -2.294880 0
M  V30 22 S -5.493785 -2.575032 -1.148177 0
M  V30 23 N -2.404224 -1.164510 1.125300 0
M  V30 24 C -2.462586 -0.160526 2.035767 0
M  V30 25 H 0.601213 0.713388 1.000698 0
M  V30 26 H 2.589807 -0.416347 2.899621 0
M  V30 27 H 1.948095 -1.703053 1.874955 0
M  V30 28 H 2.674637 -0.545163 -0.187523 0
M  V30 29 H 2.539838 1.742398 0.397849 0
M  V30 30 H 3.851775 1.609628 1.677267 0
M  V30 31 H 4.790896 2.503967 -0.278238 0
M  V30 32 H 4.019427 1.327702 -1.364557 0
M  V30 33 H 6.264945 0.952792 0.679708 0
M  V30 34 H 6.313852 0.652981 -1.070510 0
M  V30 35 H 4.915526 -1.252386 -0.992731 0
M  V30 36 H 6.180195 -1.462094 0.253868 0
M  V30 37 H 4.679944 -0.925887 1.956011 0
M  V30 38 H -1.078862 1.811701 4.301177 0
M  V30 39 H -3.479833 2.601402 4.272589 0
M  V30 40 H -2.021393 -3.308890 -0.741954 0
M  V30 41 H -2.942476 -4.892886 -2.479793 0
M  V30 42 H -5.391425 -4.738916 -3.106352 0
M  V30 43 H -1.562877 -1.711587 0.884677 0
M  V30 END ATOM
M  V30 BEGIN BOND
M  V30 1 2 1 2
M  V30 2 1 2 3
M  V30 3 1 3 4
M  V30 4 1 4 5
M  V30 5 1 5 6
M  V30 6 1 6 7
M  V30 7 1 7 8
M  V30 8 1 8 9
M  V30 9 1 9 10
M  V30 10 1 2 11
M  V30 11 2 11 12
M  V30 12 1 12 13
M  V30 13 2 13 14
M  V30 14 1 14 15
M  V30 15 1 15 16
M  V30 16 2 16 17
M  V30 17 1 17 18
M  V30 18 2 18 19
M  V30 19 1 19 20
M  V30 20 2 20 21
M  V30 21 1 21 22
M  V30 22 1 17 23
M  V30 23 1 23 24
M  V30 24 1 10 5
M  V30 25 1 24 11
M  V30 26 2 24 15
M  V30 27 1 22 18
M  V30 28 1 3 25
M  V30 29 1 4 26
M  V30 30 1 4 27
M  V30 31 1 5 28
M  V30 32 1 6 29
M  V30 33 1 6 30
M  V30 34 1 7 31
M  V30 35 1 7 32
M  V30 36 1 8 33
M  V30 37 1 8 34
M  V30 38 1 9 35
M  V30 39 1 9 36
M  V30 40 1 10 37
M  V30 41 1 12 38
M  V30 42 1 13 39
M  V30 43 1 19 40
M  V30 44 1 20 41
M  V30 45 1 21 42
M  V30 46 1 23 43
M  V30 END BOND
M  V30 END CTAB
M  END
>  <Dataset>  (713) 
ChEMBL_Kinases

>  <Ligand_Instance>  (713) 
nan

>  <PDB_ID>  (713) 
nan

>  <Standardized_SMILES>  (713) 
O=C(NCC1CCCCN1)c1ccnc2nc(-c3cccs3)[nH]c12

>  <Name>  (713) 
nan

>  <Pocket>  (713) 
nan

>  <ATP_Site>  (713) 
nan

>  <Peripheral>  (713) 
nan

>  <Num_H_Atoms_ProtBoundConf>  (713) 
nan

>  <Num_Resolved_Atoms>  (713) 
nan

>  <Num_Not_Resolved_Atoms>  (713) 
nan

$$$$
CHEMBL3716639
     RDKit          3D

  0  0  0  0  0  0  0  0  0  0999 V3000
M  V30 BEGIN CTAB
M  V30 COUNTS 40 43 0 0 0
M  V30 BEGIN ATOM
M  V30 1 O 3.026143 -2.006358 2.194219 0
M  V30 2 C 2.530937 -1.161562 1.402256 0
M  V30 3 N 1.469226 -1.627736 0.555778 0
M  V30 4 C 0.847244 -2.941596 0.449006 0
M  V30 5 C 1.165121 -3.505550 -0.922404 0
M  V30 6 C 0.656069 -2.581867 -1.993821 0
M  V30 7 C -0.761835 -2.196661 -1.725107 0
M  V30 8 N -1.377092 -2.875220 -0.630133 0
M  V30 9 C -0.638798 -2.906594 0.587887 0
M  V30 10 C 2.808147 0.263878 1.135833 0
M  V30 11 C 3.984324 0.821352 0.683708 0
M  V30 12 C 4.036563 2.186508 0.498025 0
M  V30 13 N 2.978028 2.982837 0.744559 0
M  V30 14 C 1.812141 2.477132 1.186936 0
M  V30 15 N 0.615766 3.028380 1.508666 0
M  V30 16 C -0.208829 2.069322 1.895846 0
M  V30 17 C -1.574250 2.263227 2.316805 0
M  V30 18 C -2.437534 1.262293 2.721775 0
M  V30 19 C -3.712920 1.585990 3.097372 0
M  V30 20 C -4.033086 2.987798 3.028505 0
M  V30 21 S -2.416910 3.741916 2.408695 0
M  V30 22 N 0.468820 0.920703 1.816944 0
M  V30 23 C 1.735101 1.113582 1.380501 0
M  V30 24 H 0.938061 -1.073220 -0.162239 0
M  V30 25 H 1.323906 -3.656289 1.174568 0
M  V30 26 H 2.236250 -3.731825 -1.033115 0
M  V30 27 H 0.597776 -4.466099 -1.002328 0
M  V30 28 H 0.783493 -3.142068 -2.962756 0
M  V30 29 H 1.292145 -1.672214 -2.083109 0
M  V30 30 H -0.927454 -1.086220 -1.672088 0
M  V30 31 H -1.351792 -2.492477 -2.641893 0
M  V30 32 H -1.937747 -3.698959 -0.861975 0
M  V30 33 H -0.937585 -2.055855 1.253562 0
M  V30 34 H -0.927213 -3.844643 1.134672 0
M  V30 35 H 4.772834 0.111589 0.514472 0
M  V30 36 H 5.001659 2.566586 0.136591 0
M  V30 37 H -2.122477 0.216001 2.748387 0
M  V30 38 H -4.474277 0.899991 3.430216 0
M  V30 39 H -5.072495 3.381336 3.318571 0
M  V30 40 H 0.036021 -0.005850 2.072439 0
M  V30 END ATOM
M  V30 BEGIN BOND
M  V30 1 2 1 2
M  V30 2 1 2 3
M  V30 3 1 3 4
M  V30 4 1 4 5
M  V30 5 1 5 6
M  V30 6 1 6 7
M  V30 7 1 7 8
M  V30 8 1 8 9
M  V30 9 1 2 10
M  V30 10 2 10 11
M  V30 11 1 11 12
M  V30 12 2 12 13
M  V30 13 1 13 14
M  V30 14 1 14 15
M  V30 15 2 15 16
M  V30 16 1 16 17
M  V30 17 2 17 18
M  V30 18 1 18 19
M  V30 19 2 19 20
M  V30 20 1 20 21
M  V30 21 1 16 22
M  V30 22 1 22 23
M  V30 23 1 9 4
M  V30 24 1 23 10
M  V30 25 2 23 14
M  V30 26 1 21 17
M  V30 27 1 3 24
M  V30 28 1 4 25
M  V30 29 1 5 26
M  V30 30 1 5 27
M  V30 31 1 6 28
M  V30 32 1 6 29
M  V30 33 1 7 30
M  V30 34 1 7 31
M  V30 35 1 8 32
M  V30 36 1 9 33
M  V30 37 1 9 34
M  V30 38 1 11 35
M  V30 39 1 12 36
M  V30 40 1 18 37
M  V30 41 1 19 38
M  V30 42 1 20 39
M  V30 43 1 22 40
M  V30 END BOND
M  V30 END CTAB
M  END
>  <Dataset>  (714) 
ChEMBL_Kinases

>  <Ligand_Instance>  (714) 
nan

>  <PDB_ID>  (714) 
nan

>  <Standardized_SMILES>  (714) 
O=C(NC1CCCNC1)c1ccnc2nc(-c3cccs3)[nH]c12

>  <Name>  (714) 
nan

>  <Pocket>  (714) 
nan

>  <ATP_Site>  (714) 
nan

>  <Peripheral>  (714) 
nan

>  <Num_H_Atoms_ProtBoundConf>  (714) 
nan

>  <Num_Resolved_Atoms>  (714) 
nan

>  <Num_Not_Resolved_Atoms>  (714) 
nan

$$$$
CHEMBL3716635
     RDKit          3D

  0  0  0  0  0  0  0  0  0  0999 V3000
M  V30 BEGIN CTAB
M  V30 COUNTS 43 46 0 0 0
M  V30 BEGIN ATOM
M  V30 1 N -0.821656 -5.898043 1.323310 0
M  V30 2 C -0.898959 -4.429585 1.301394 0 CFG=1
M  V30 3 C -0.005748 -3.921228 2.363072 0
M  V30 4 C 0.772283 -2.702415 2.039584 0
M  V30 5 C 1.208764 -2.527286 0.631413 0 CFG=2
M  V30 6 N 0.502350 -1.398456 0.043336 0
M  V30 7 C 1.269687 -0.302284 -0.490169 0
M  V30 8 O 2.522256 -0.252117 -0.482552 0
M  V30 9 C 0.558660 0.850708 -1.087181 0
M  V30 10 C 0.032056 0.917377 -2.358791 0
M  V30 11 C -0.603248 2.072415 -2.745548 0
M  V30 12 N -0.720689 3.139056 -1.907700 0
M  V30 13 C -0.219317 3.104073 -0.668379 0
M  V30 14 N -0.188604 3.983669 0.349406 0
M  V30 15 C 0.450454 3.439082 1.401651 0
M  V30 16 C 0.775397 3.958751 2.772212 0
M  V30 17 C 2.084497 3.430124 3.396931 0
M  V30 18 C 0.782127 2.958553 3.882519 0
M  V30 19 N 0.812977 2.208298 1.017371 0
M  V30 20 C 0.425717 1.945408 -0.258699 0
M  V30 21 C 0.926762 -3.775323 -0.166242 0
M  V30 22 C -0.555127 -4.023524 -0.106674 0
M  V30 23 H -1.188687 -6.235162 0.420529 0
M  V30 24 H 0.208041 -6.155723 1.331931 0
M  V30 25 H -1.984999 -4.212142 1.479407 0
M  V30 26 H -0.662409 -3.668617 3.247535 0
M  V30 27 H 0.669549 -4.714933 2.770388 0
M  V30 28 H 1.685338 -2.693918 2.707302 0
M  V30 29 H 0.221499 -1.774231 2.376212 0
M  V30 30 H 2.303463 -2.280173 0.601927 0
M  V30 31 H -0.533592 -1.270501 -0.043532 0
M  V30 32 H 0.167632 0.034092 -2.966036 0
M  V30 33 H -1.010099 2.092888 -3.764527 0
M  V30 34 H -0.579246 4.948861 0.376928 0
M  V30 35 H 0.497478 5.000037 2.960492 0
M  V30 36 H 2.640315 2.697730 2.740481 0
M  V30 37 H 2.724954 4.139529 3.945201 0
M  V30 38 H 0.433584 1.943804 3.646540 0
M  V30 39 H 0.484882 3.281496 4.908153 0
M  V30 40 H 1.460576 -4.643491 0.334335 0
M  V30 41 H 1.272760 -3.688764 -1.220355 0
M  V30 42 H -1.132423 -3.128562 -0.370705 0
M  V30 43 H -0.814288 -4.828855 -0.843677 0
M  V30 END ATOM
M  V30 BEGIN BOND
M  V30 1 1 1 2
M  V30 2 1 2 3
M  V30 3 1 3 4
M  V30 4 1 4 5
M  V30 5 1 5 6
M  V30 6 1 6 7
M  V30 7 2 7 8
M  V30 8 1 7 9
M  V30 9 2 9 10
M  V30 10 1 10 11
M  V30 11 2 11 12
M  V30 12 1 12 13
M  V30 13 1 13 14
M  V30 14 1 14 15
M  V30 15 1 15 16
M  V30 16 1 16 17
M  V30 17 1 17 18
M  V30 18 2 15 19
M  V30 19 1 19 20
M  V30 20 1 5 21
M  V30 21 1 21 22
M  V30 22 1 22 2
M  V30 23 1 20 9
M  V30 24 2 20 13
M  V30 25 1 18 16
M  V30 26 1 1 23
M  V30 27 1 1 24
M  V30 28 1 2 25 CFG=1
M  V30 29 1 3 26
M  V30 30 1 3 27
M  V30 31 1 4 28
M  V30 32 1 4 29
M  V30 33 1 5 30 CFG=1
M  V30 34 1 6 31
M  V30 35 1 10 32
M  V30 36 1 11 33
M  V30 37 1 14 34
M  V30 38 1 16 35
M  V30 39 1 17 36
M  V30 40 1 17 37
M  V30 41 1 18 38
M  V30 42 1 18 39
M  V30 43 1 21 40
M  V30 44 1 21 41
M  V30 45 1 22 42
M  V30 46 1 22 43
M  V30 END BOND
M  V30 END CTAB
M  END
>  <Dataset>  (715) 
ChEMBL_Kinases

>  <Ligand_Instance>  (715) 
nan

>  <PDB_ID>  (715) 
nan

>  <Standardized_SMILES>  (715) 
N[C@H]1CC[C@H](NC(=O)c2ccnc3[nH]c(C4CC4)nc23)CC1

>  <Name>  (715) 
nan

>  <Pocket>  (715) 
nan

>  <ATP_Site>  (715) 
nan

>  <Peripheral>  (715) 
nan

>  <Num_H_Atoms_ProtBoundConf>  (715) 
nan

>  <Num_Resolved_Atoms>  (715) 
nan

>  <Num_Not_Resolved_Atoms>  (715) 
nan

$$$$
CHEMBL568614
     RDKit          3D

  0  0  0  0  0  0  0  0  0  0999 V3000
M  V30 BEGIN CTAB
M  V30 COUNTS 46 50 0 0 0
M  V30 BEGIN ATOM
M  V30 1 C 3.155535 -5.141122 0.828719 0
M  V30 2 C 2.517817 -5.682161 -0.288036 0
M  V30 3 N 2.309914 -4.947059 -1.391691 0
M  V30 4 C 2.692342 -3.660924 -1.502301 0
M  V30 5 C 3.331544 -3.078961 -0.414958 0
M  V30 6 C 3.718392 -1.661916 -0.614207 0
M  V30 7 N 2.631768 -0.819483 -0.172708 0
M  V30 8 C 2.838461 0.597109 -0.306704 0
M  V30 9 N 3.972789 1.108411 -0.813510 0
M  V30 10 C 4.210262 2.421902 -0.958205 0
M  V30 11 N 3.279545 3.338865 -0.585294 0
M  V30 12 C 2.099385 2.902957 -0.061281 0
M  V30 13 C 1.134660 3.810247 0.327766 0
M  V30 14 C -0.080492 3.385692 0.867861 0
M  V30 15 C -0.297632 2.015902 1.005606 0
M  V30 16 C -1.560853 1.493937 1.573202 0
M  V30 17 C -2.296365 2.152662 2.537755 0
M  V30 18 C -3.463207 1.557717 2.989533 0
M  V30 19 C -3.904879 0.335229 2.504609 0
M  V30 20 C -3.161791 -0.323033 1.534652 0
M  V30 21 C -1.982147 0.258377 1.064811 0
M  V30 22 O -3.592765 -1.538654 1.046315 0
M  V30 23 C -4.703435 -2.265288 1.537028 0
M  V30 24 C -5.279767 -1.684202 2.799235 0
M  V30 25 O -5.063275 -0.295986 2.926742 0
M  V30 26 C 0.717036 1.173053 0.592927 0
M  V30 27 C 1.910562 1.551140 0.063693 0
M  V30 28 C 3.557534 -3.820482 0.738083 0
M  V30 29 H 3.342861 -5.707615 1.744684 0
M  V30 30 H 2.198228 -6.729773 -0.217153 0
M  V30 31 H 2.475763 -3.144406 -2.449452 0
M  V30 32 H 4.580602 -1.486206 0.089944 0
M  V30 33 H 4.077723 -1.446974 -1.627811 0
M  V30 34 H 1.789846 -1.251220 0.203582 0
M  V30 35 H 5.156400 2.713440 -1.376304 0
M  V30 36 H 1.310935 4.871592 0.217540 0
M  V30 37 H -0.846591 4.088415 1.177392 0
M  V30 38 H -1.938949 3.096187 2.899817 0
M  V30 39 H -4.054952 2.041261 3.735258 0
M  V30 40 H -1.463604 -0.315054 0.312121 0
M  V30 41 H -5.443238 -2.460259 0.740859 0
M  V30 42 H -4.283170 -3.277746 1.809032 0
M  V30 43 H -4.869307 -2.161250 3.713394 0
M  V30 44 H -6.370480 -1.876939 2.799540 0
M  V30 45 H 0.475358 0.129867 0.732549 0
M  V30 46 H 4.059933 -3.313717 1.553265 0
M  V30 END ATOM
M  V30 BEGIN BOND
M  V30 1 2 1 2
M  V30 2 1 2 3
M  V30 3 2 3 4
M  V30 4 1 4 5
M  V30 5 1 5 6
M  V30 6 1 6 7
M  V30 7 1 7 8
M  V30 8 2 8 9
M  V30 9 1 9 10
M  V30 10 2 10 11
M  V30 11 1 11 12
M  V30 12 2 12 13
M  V30 13 1 13 14
M  V30 14 2 14 15
M  V30 15 1 15 16
M  V30 16 2 16 17
M  V30 17 1 17 18
M  V30 18 2 18 19
M  V30 19 1 19 20
M  V30 20 2 20 21
M  V30 21 1 20 22
M  V30 22 1 22 23
M  V30 23 1 23 24
M  V30 24 1 24 25
M  V30 25 1 15 26
M  V30 26 2 26 27
M  V30 27 2 5 28
M  V30 28 1 28 1
M  V30 29 1 27 8
M  V30 30 1 27 12
M  V30 31 1 21 16
M  V30 32 1 25 19
M  V30 33 1 1 29
M  V30 34 1 2 30
M  V30 35 1 4 31
M  V30 36 1 6 32
M  V30 37 1 6 33
M  V30 38 1 7 34
M  V30 39 1 10 35
M  V30 40 1 13 36
M  V30 41 1 14 37
M  V30 42 1 17 38
M  V30 43 1 18 39
M  V30 44 1 21 40
M  V30 45 1 23 41
M  V30 46 1 23 42
M  V30 47 1 24 43
M  V30 48 1 24 44
M  V30 49 1 26 45
M  V30 50 1 28 46
M  V30 END BOND
M  V30 END CTAB
M  END
>  <Dataset>  (716) 
ChEMBL_Kinases

>  <Ligand_Instance>  (716) 
nan

>  <PDB_ID>  (716) 
nan

>  <Standardized_SMILES>  (716) 
c1cncc(CNc2ncnc3ccc(-c4ccc5c(c4)OCCO5)cc23)c1

>  <Name>  (716) 
nan

>  <Pocket>  (716) 
nan

>  <ATP_Site>  (716) 
nan

>  <Peripheral>  (716) 
nan

>  <Num_H_Atoms_ProtBoundConf>  (716) 
nan

>  <Num_Resolved_Atoms>  (716) 
nan

>  <Num_Not_Resolved_Atoms>  (716) 
nan

$$$$
CHEMBL3716599
     RDKit          3D

  0  0  0  0  0  0  0  0  0  0999 V3000
M  V30 BEGIN CTAB
M  V30 COUNTS 53 57 0 0 0
M  V30 BEGIN ATOM
M  V30 1 C 1.845754 -1.446833 3.773944 0
M  V30 2 C 2.359120 -1.847735 2.411614 0
M  V30 3 C 3.162272 -3.139231 2.679045 0
M  V30 4 N 3.238108 -0.802383 1.963572 0
M  V30 5 C 2.962229 0.550552 1.782780 0
M  V30 6 C 3.923741 1.466809 1.339027 0
M  V30 7 C 3.686244 2.793993 1.155729 0
M  V30 8 C 2.451499 3.305243 1.407328 0
M  V30 9 Cl 2.158605 5.008814 1.168858 0
M  V30 10 C 1.433066 2.495608 1.846906 0
M  V30 11 N 0.159778 3.020844 2.106711 0
M  V30 12 C -0.513170 3.353095 3.201149 0
M  V30 13 C -1.758767 3.828329 2.779619 0
M  V30 14 N -1.801729 3.768273 1.426299 0
M  V30 15 C -0.615512 3.269079 1.011402 0
M  V30 16 O -0.459235 3.135785 -0.225834 0
M  V30 17 C 1.748235 1.169098 2.008106 0
M  V30 18 C 1.232522 -2.166838 1.550720 0
M  V30 19 O 0.344021 -3.026116 1.837888 0
M  V30 20 N 1.104191 -1.488621 0.313314 0
M  V30 21 C -0.148042 -2.006516 -0.379604 0
M  V30 22 N -1.037211 -2.718577 -0.322358 0
M  V30 23 C -1.999613 -2.898118 -1.203497 0
M  V30 24 C -3.080182 -3.786905 -1.096535 0
M  V30 25 C -3.346619 -4.715723 0.061995 0
M  V30 26 F -4.472375 -5.433131 -0.159310 0
M  V30 27 F -2.223790 -5.544379 0.110879 0
M  V30 28 F -3.380269 -4.041398 1.252582 0
M  V30 29 C -3.962807 -3.800328 -2.145917 0
M  V30 30 C -3.948288 -3.066595 -3.298843 0
M  V30 31 N -4.648082 -2.890688 -4.428461 0
M  V30 32 N -4.048320 -1.970241 -5.169251 0
M  V30 33 C -2.934334 -1.504109 -4.561397 0
M  V30 34 C -2.855895 -2.191873 -3.369022 0
M  V30 35 C -1.924656 -2.128507 -2.340336 0
M  V30 36 S -0.477600 -1.199272 -2.067229 0
M  V30 37 H 2.044982 -2.215312 4.563582 0
M  V30 38 H 0.742030 -1.378695 3.729373 0
M  V30 39 H 2.211233 -0.446097 4.086913 0
M  V30 40 H 3.879771 -3.342136 1.876275 0
M  V30 41 H 3.634515 -3.075783 3.686291 0
M  V30 42 H 2.395417 -3.941886 2.753831 0
M  V30 43 H 4.237489 -1.092993 1.736164 0
M  V30 44 H 4.939350 1.101612 1.121639 0
M  V30 45 H 4.496018 3.439765 0.805751 0
M  V30 46 H -0.063208 3.228621 4.180018 0
M  V30 47 H -2.486988 4.162000 3.510988 0
M  V30 48 H -2.671360 4.089688 0.950252 0
M  V30 49 H 0.912810 0.556694 2.354293 0
M  V30 50 H 1.717886 -0.763903 -0.107053 0
M  V30 51 H -4.820552 -4.491648 -2.083642 0
M  V30 52 H -5.517634 -3.432700 -4.618704 0
M  V30 53 H -2.238585 -0.762617 -4.900242 0
M  V30 END ATOM
M  V30 BEGIN BOND
M  V30 1 1 1 2
M  V30 2 1 2 3
M  V30 3 1 2 4
M  V30 4 1 4 5
M  V30 5 2 5 6
M  V30 6 1 6 7
M  V30 7 2 7 8
M  V30 8 1 8 9
M  V30 9 1 8 10
M  V30 10 1 10 11
M  V30 11 1 11 12
M  V30 12 2 12 13
M  V30 13 1 13 14
M  V30 14 1 14 15
M  V30 15 2 15 16
M  V30 16 2 10 17
M  V30 17 1 2 18
M  V30 18 2 18 19
M  V30 19 1 18 20
M  V30 20 1 20 21
M  V30 21 2 21 22
M  V30 22 1 22 23
M  V30 23 2 23 24
M  V30 24 1 24 25
M  V30 25 1 25 26
M  V30 26 1 25 27
M  V30 27 1 25 28
M  V30 28 1 24 29
M  V30 29 2 29 30
M  V30 30 1 30 31
M  V30 31 1 31 32
M  V30 32 2 32 33
M  V30 33 1 33 34
M  V30 34 2 34 35
M  V30 35 1 35 36
M  V30 36 1 17 5
M  V30 37 1 36 21
M  V30 38 1 15 11
M  V30 39 1 35 23
M  V30 40 1 34 30
M  V30 41 1 1 37
M  V30 42 1 1 38
M  V30 43 1 1 39
M  V30 44 1 3 40
M  V30 45 1 3 41
M  V30 46 1 3 42
M  V30 47 1 4 43
M  V30 48 1 6 44
M  V30 49 1 7 45
M  V30 50 1 12 46
M  V30 51 1 13 47
M  V30 52 1 14 48
M  V30 53 1 17 49
M  V30 54 1 20 50
M  V30 55 1 29 51
M  V30 56 1 31 52
M  V30 57 1 33 53
M  V30 END BOND
M  V30 END CTAB
M  END
>  <Dataset>  (717) 
ChEMBL_Kinases

>  <Ligand_Instance>  (717) 
nan

>  <PDB_ID>  (717) 
nan

>  <Standardized_SMILES>  (717) 
CC(C)(Nc1ccc(Cl)c(-n2cc[nH]c2=O)c1)C(=O)Nc1nc2c(C(F)(F)F)cc3[nH]ncc3c2s1

>  <Name>  (717) 
nan

>  <Pocket>  (717) 
nan

>  <ATP_Site>  (717) 
nan

>  <Peripheral>  (717) 
nan

>  <Num_H_Atoms_ProtBoundConf>  (717) 
nan

>  <Num_Resolved_Atoms>  (717) 
nan

>  <Num_Not_Resolved_Atoms>  (717) 
nan

$$$$
CHEMBL3716598
     RDKit          3D

  0  0  0  0  0  0  0  0  0  0999 V3000
M  V30 BEGIN CTAB
M  V30 COUNTS 44 48 0 0 0
M  V30 BEGIN ATOM
M  V30 1 N -0.341843 -4.009190 -0.629955 0
M  V30 2 C 0.428856 -3.239157 0.346235 0
M  V30 3 C 1.910749 -3.485486 0.186352 0
M  V30 4 C 2.621274 -2.582485 1.152515 0
M  V30 5 C 2.269417 -3.047853 2.549214 0
M  V30 6 C 0.780419 -2.892574 2.716604 0
M  V30 7 C -0.004233 -3.689356 1.705425 0
M  V30 8 C 0.429435 -1.456061 2.509527 0
M  V30 9 C 0.781726 -0.942434 1.124214 0
M  V30 10 N 0.412981 0.438715 1.080555 0
M  V30 11 C 0.591407 1.274523 -0.069297 0
M  V30 12 O 1.113207 0.690169 -1.074074 0
M  V30 13 C 0.194414 2.700355 -0.068761 0
M  V30 14 C 1.079013 3.735115 0.153606 0
M  V30 15 C 0.547684 5.025617 0.121570 0
M  V30 16 N -0.768616 5.226563 -0.116886 0
M  V30 17 C -1.598113 4.206272 -0.328065 0
M  V30 18 N -2.934173 4.199813 -0.581299 0
M  V30 19 C -3.324492 2.902902 -0.724041 0
M  V30 20 N -2.233916 2.133161 -0.558497 0
M  V30 21 C -1.160554 2.886986 -0.315294 0
M  V30 22 C 2.290490 -1.135442 0.961867 0
M  V30 23 C 0.125905 -1.798774 0.085730 0
M  V30 24 H -0.442043 -5.001848 -0.340095 0
M  V30 25 H -1.238309 -3.513262 -0.758277 0
M  V30 26 H 2.151399 -4.533314 0.479556 0
M  V30 27 H 2.228891 -3.368335 -0.865593 0
M  V30 28 H 3.722331 -2.709307 1.029532 0
M  V30 29 H 2.617691 -4.085687 2.680607 0
M  V30 30 H 2.746292 -2.335602 3.255383 0
M  V30 31 H 0.500227 -3.153807 3.742183 0
M  V30 32 H -1.067871 -3.414724 1.844461 0
M  V30 33 H 0.147942 -4.768019 1.821414 0
M  V30 34 H 0.985018 -0.789884 3.220763 0
M  V30 35 H -0.650274 -1.246154 2.712974 0
M  V30 36 H -0.024513 0.959009 1.899367 0
M  V30 37 H 2.108360 3.489389 0.335295 0
M  V30 38 H 1.263744 5.833250 0.299989 0
M  V30 39 H -3.628989 4.999696 -0.670333 0
M  V30 40 H -4.296960 2.451805 -0.932025 0
M  V30 41 H 2.649515 -0.785266 -0.008310 0
M  V30 42 H 2.836645 -0.576459 1.751982 0
M  V30 43 H -0.983256 -1.687489 0.074297 0
M  V30 44 H 0.561008 -1.576191 -0.922825 0
M  V30 END ATOM
M  V30 BEGIN BOND
M  V30 1 1 1 2
M  V30 2 1 2 3
M  V30 3 1 3 4
M  V30 4 1 4 5
M  V30 5 1 5 6
M  V30 6 1 6 7
M  V30 7 1 6 8
M  V30 8 1 8 9
M  V30 9 1 9 10
M  V30 10 1 10 11
M  V30 11 2 11 12
M  V30 12 1 11 13
M  V30 13 1 13 14
M  V30 14 2 14 15
M  V30 15 1 15 16
M  V30 16 2 16 17
M  V30 17 1 17 18
M  V30 18 1 18 19
M  V30 19 2 19 20
M  V30 20 1 20 21
M  V30 21 1 9 22
M  V30 22 1 9 23
M  V30 23 1 7 2
M  V30 24 2 21 13
M  V30 25 1 23 2
M  V30 26 1 22 4
M  V30 27 1 21 17
M  V30 28 1 1 24
M  V30 29 1 1 25
M  V30 30 1 3 26
M  V30 31 1 3 27
M  V30 32 1 4 28
M  V30 33 1 5 29
M  V30 34 1 5 30
M  V30 35 1 6 31
M  V30 36 1 7 32
M  V30 37 1 7 33
M  V30 38 1 8 34
M  V30 39 1 8 35
M  V30 40 1 10 36
M  V30 41 1 14 37
M  V30 42 1 15 38
M  V30 43 1 18 39
M  V30 44 1 19 40
M  V30 45 1 22 41
M  V30 46 1 22 42
M  V30 47 1 23 43
M  V30 48 1 23 44
M  V30 END BOND
M  V30 END CTAB
M  END
>  <Dataset>  (718) 
ChEMBL_Kinases

>  <Ligand_Instance>  (718) 
nan

>  <PDB_ID>  (718) 
nan

>  <Standardized_SMILES>  (718) 
NC12CC3CC(C1)CC(NC(=O)c1ccnc4[nH]cnc14)(C3)C2

>  <Name>  (718) 
nan

>  <Pocket>  (718) 
nan

>  <ATP_Site>  (718) 
nan

>  <Peripheral>  (718) 
nan

>  <Num_H_Atoms_ProtBoundConf>  (718) 
nan

>  <Num_Resolved_Atoms>  (718) 
nan

>  <Num_Not_Resolved_Atoms>  (718) 
nan

$$$$
CHEMBL568636
     RDKit          3D

  0  0  0  0  0  0  0  0  0  0999 V3000
M  V30 BEGIN CTAB
M  V30 COUNTS 47 51 0 0 0
M  V30 BEGIN ATOM
M  V30 1 C 3.834500 -3.163401 5.886690 0
M  V30 2 C 4.041657 -2.903653 4.437898 0
M  V30 3 C 4.367371 -3.989285 3.578836 0
M  V30 4 S 4.513546 -3.112687 1.909882 0
M  V30 5 C 4.144876 -1.484460 2.506398 0
M  V30 6 C 4.091084 -0.271799 1.718598 0
M  V30 7 N 2.806579 0.017580 1.154696 0
M  V30 8 C 2.643878 1.184959 0.362999 0
M  V30 9 N 3.683717 2.007562 0.146222 0
M  V30 10 C 3.593677 3.123732 -0.591405 0
M  V30 11 N 2.428074 3.479344 -1.162344 0
M  V30 12 C 1.321771 2.713925 -1.001634 0
M  V30 13 C 0.118328 3.061414 -1.578501 0
M  V30 14 C -0.987964 2.262944 -1.396647 0
M  V30 15 C -0.865690 1.124953 -0.635603 0
M  V30 16 C -2.042790 0.260032 -0.432260 0
M  V30 17 C -2.097471 -0.421987 0.770005 0
M  V30 18 C -3.151462 -1.263678 1.077215 0
M  V30 19 C -4.165318 -1.404984 0.130689 0
M  V30 20 C -4.098477 -0.712330 -1.076825 0
M  V30 21 C -3.043040 0.125249 -1.374686 0
M  V30 22 O -5.116423 -0.863044 -2.010784 0
M  V30 23 C -6.337180 -1.410576 -1.530315 0
M  V30 24 C -6.006940 -2.668287 -0.743789 0
M  V30 25 O -5.248482 -2.237206 0.385489 0
M  V30 26 C 0.351605 0.804774 -0.072051 0
M  V30 27 C 1.470789 1.584305 -0.238005 0
M  V30 28 C 3.927608 -1.654116 3.919990 0
M  V30 29 H 4.676521 -3.840602 6.216916 0
M  V30 30 H 2.871929 -3.646313 6.094372 0
M  V30 31 H 3.944662 -2.264999 6.497765 0
M  V30 32 H 4.482079 -5.042046 3.907335 0
M  V30 33 H 4.380914 0.575243 2.404250 0
M  V30 34 H 4.868450 -0.242412 0.907714 0
M  V30 35 H 2.072421 -0.681507 1.383041 0
M  V30 36 H 4.522929 3.670997 -0.665511 0
M  V30 37 H 0.124110 3.979375 -2.161536 0
M  V30 38 H -1.917480 2.568011 -1.865580 0
M  V30 39 H -1.362233 -0.376403 1.562185 0
M  V30 40 H -3.250554 -1.821489 1.995628 0
M  V30 41 H -2.949378 0.680754 -2.295266 0
M  V30 42 H -6.818460 -0.712908 -0.792420 0
M  V30 43 H -7.043120 -1.628041 -2.338679 0
M  V30 44 H -5.332002 -3.264691 -1.400307 0
M  V30 45 H -6.911777 -3.221319 -0.450557 0
M  V30 46 H 0.366565 -0.102256 0.510128 0
M  V30 47 H 3.686687 -0.762947 4.471358 0
M  V30 END ATOM
M  V30 BEGIN BOND
M  V30 1 1 1 2
M  V30 2 2 2 3
M  V30 3 1 3 4
M  V30 4 1 4 5
M  V30 5 1 5 6
M  V30 6 1 6 7
M  V30 7 1 7 8
M  V30 8 2 8 9
M  V30 9 1 9 10
M  V30 10 2 10 11
M  V30 11 1 11 12
M  V30 12 2 12 13
M  V30 13 1 13 14
M  V30 14 2 14 15
M  V30 15 1 15 16
M  V30 16 2 16 17
M  V30 17 1 17 18
M  V30 18 2 18 19
M  V30 19 1 19 20
M  V30 20 2 20 21
M  V30 21 1 20 22
M  V30 22 1 22 23
M  V30 23 1 23 24
M  V30 24 1 24 25
M  V30 25 1 15 26
M  V30 26 2 26 27
M  V30 27 2 5 28
M  V30 28 1 28 2
M  V30 29 1 27 8
M  V30 30 1 27 12
M  V30 31 1 21 16
M  V30 32 1 25 19
M  V30 33 1 1 29
M  V30 34 1 1 30
M  V30 35 1 1 31
M  V30 36 1 3 32
M  V30 37 1 6 33
M  V30 38 1 6 34
M  V30 39 1 7 35
M  V30 40 1 10 36
M  V30 41 1 13 37
M  V30 42 1 14 38
M  V30 43 1 17 39
M  V30 44 1 18 40
M  V30 45 1 21 41
M  V30 46 1 23 42
M  V30 47 1 23 43
M  V30 48 1 24 44
M  V30 49 1 24 45
M  V30 50 1 26 46
M  V30 51 1 28 47
M  V30 END BOND
M  V30 END CTAB
M  END
>  <Dataset>  (719) 
ChEMBL_Kinases

>  <Ligand_Instance>  (719) 
nan

>  <PDB_ID>  (719) 
nan

>  <Standardized_SMILES>  (719) 
Cc1csc(CNc2ncnc3ccc(-c4ccc5c(c4)OCCO5)cc23)c1

>  <Name>  (719) 
nan

>  <Pocket>  (719) 
nan

>  <ATP_Site>  (719) 
nan

>  <Peripheral>  (719) 
nan

>  <Num_H_Atoms_ProtBoundConf>  (719) 
nan

>  <Num_Resolved_Atoms>  (719) 
nan

>  <Num_Not_Resolved_Atoms>  (719) 
nan

$$$$
CHEMBL3716753
     RDKit          3D

  0  0  0  0  0  0  0  0  0  0999 V3000
M  V30 BEGIN CTAB
M  V30 COUNTS 55 58 0 0 0
M  V30 BEGIN ATOM
M  V30 1 C 4.652817 -5.517217 6.196388 0
M  V30 2 C 5.643694 -4.477123 5.700779 0
M  V30 3 C 4.853989 -3.588975 4.777222 0
M  V30 4 C 4.196171 -2.466453 5.239852 0
M  V30 5 C 3.465515 -1.640872 4.392282 0
M  V30 6 C 3.394373 -1.949006 3.054033 0
M  V30 7 C 2.655539 -1.142245 2.099282 0
M  V30 8 C 2.490457 0.222851 2.188019 0
M  V30 9 C 1.772759 0.922454 1.239569 0
M  V30 10 C 1.185606 0.297449 0.158060 0
M  V30 11 C 0.409606 0.953635 -0.891665 0
M  V30 12 O -0.074645 0.243439 -1.832925 0
M  V30 13 N 0.172870 2.356279 -0.904452 0
M  V30 14 C -0.586748 3.012963 -1.916053 0
M  V30 15 C -1.997991 2.567211 -1.998159 0
M  V30 16 O -2.564005 3.209006 -2.952616 0
M  V30 17 N -2.800931 1.635928 -1.282005 0
M  V30 18 C -4.157687 1.503547 -1.699428 0
M  V30 19 C -5.107200 2.314759 -1.119489 0
M  V30 20 C -6.417232 2.226138 -1.484883 0
M  V30 21 C -6.867845 1.331882 -2.443982 0
M  V30 22 C -5.900227 0.534474 -3.006717 0
M  V30 23 C -6.271830 -0.390582 -3.978561 0
M  V30 24 C -5.350382 -1.225638 -4.587279 0
M  V30 25 C -4.016516 -1.124327 -4.204553 0
M  V30 26 C -3.616923 -0.220839 -3.247617 0
M  V30 27 C -4.565768 0.595587 -2.662718 0
M  V30 28 C 1.376407 -1.069052 0.109042 0
M  V30 29 C 2.084913 -1.807956 1.033347 0
M  V30 30 C 4.065021 -3.080848 2.623316 0
M  V30 31 C 4.803706 -3.929788 3.434102 0
M  V30 32 H 4.085153 -5.876099 5.309133 0
M  V30 33 H 5.151589 -6.365789 6.705104 0
M  V30 34 H 3.927191 -5.020757 6.876253 0
M  V30 35 H 6.133805 -3.930022 6.509338 0
M  V30 36 H 6.406987 -5.033873 5.090671 0
M  V30 37 H 4.270679 -2.246765 6.308891 0
M  V30 38 H 2.955478 -0.762426 4.777623 0
M  V30 39 H 2.943087 0.743176 3.031842 0
M  V30 40 H 1.656594 1.983808 1.327757 0
M  V30 41 H 0.590127 2.904024 -0.119711 0
M  V30 42 H -0.096546 2.954669 -2.912339 0
M  V30 43 H -0.633604 4.109526 -1.688730 0
M  V30 44 H -2.245201 1.191627 -0.538440 0
M  V30 45 H -4.857505 3.052701 -0.354172 0
M  V30 46 H -7.170294 2.871594 -1.022817 0
M  V30 47 H -7.891645 1.213964 -2.776124 0
M  V30 48 H -7.286582 -0.508799 -4.309861 0
M  V30 49 H -5.567124 -1.957117 -5.339233 0
M  V30 50 H -3.218173 -1.746464 -4.634203 0
M  V30 51 H -2.587897 -0.138768 -2.948739 0
M  V30 52 H 0.934037 -1.612915 -0.724043 0
M  V30 53 H 2.170495 -2.894394 0.890897 0
M  V30 54 H 4.041131 -3.368901 1.576709 0
M  V30 55 H 5.305787 -4.799616 3.039250 0
M  V30 END ATOM
M  V30 BEGIN BOND
M  V30 1 1 1 2
M  V30 2 1 2 3
M  V30 3 2 3 4
M  V30 4 1 4 5
M  V30 5 2 5 6
M  V30 6 1 6 7
M  V30 7 2 7 8
M  V30 8 1 8 9
M  V30 9 2 9 10
M  V30 10 1 10 11
M  V30 11 2 11 12
M  V30 12 1 11 13
M  V30 13 1 13 14
M  V30 14 1 14 15
M  V30 15 2 15 16
M  V30 16 1 15 17
M  V30 17 1 17 18
M  V30 18 2 18 19
M  V30 19 1 19 20
M  V30 20 2 20 21
M  V30 21 1 21 22
M  V30 22 2 22 23
M  V30 23 1 23 24
M  V30 24 2 24 25
M  V30 25 1 25 26
M  V30 26 2 26 27
M  V30 27 1 10 28
M  V30 28 2 28 29
M  V30 29 1 6 30
M  V30 30 2 30 31
M  V30 31 1 31 3
M  V30 32 1 29 7
M  V30 33 1 27 18
M  V30 34 1 27 22
M  V30 35 1 1 32
M  V30 36 1 1 33
M  V30 37 1 1 34
M  V30 38 1 2 35
M  V30 39 1 2 36
M  V30 40 1 4 37
M  V30 41 1 5 38
M  V30 42 1 8 39
M  V30 43 1 9 40
M  V30 44 1 13 41
M  V30 45 1 14 42
M  V30 46 1 14 43
M  V30 47 1 17 44
M  V30 48 1 19 45
M  V30 49 1 20 46
M  V30 50 1 21 47
M  V30 51 1 23 48
M  V30 52 1 24 49
M  V30 53 1 25 50
M  V30 54 1 26 51
M  V30 55 1 28 52
M  V30 56 1 29 53
M  V30 57 1 30 54
M  V30 58 1 31 55
M  V30 END BOND
M  V30 END CTAB
M  END
>  <Dataset>  (720) 
ChEMBL_Kinases

>  <Ligand_Instance>  (720) 
nan

>  <PDB_ID>  (720) 
nan

>  <Standardized_SMILES>  (720) 
CCc1ccc(-c2ccc(C(=O)NCC(=O)Nc3cccc4ccccc34)cc2)cc1

>  <Name>  (720) 
nan

>  <Pocket>  (720) 
nan

>  <ATP_Site>  (720) 
nan

>  <Peripheral>  (720) 
nan

>  <Num_H_Atoms_ProtBoundConf>  (720) 
nan

>  <Num_Resolved_Atoms>  (720) 
nan

>  <Num_Not_Resolved_Atoms>  (720) 
nan

$$$$
CHEMBL552375
     RDKit          3D

  0  0  0  0  0  0  0  0  0  0999 V3000
M  V30 BEGIN CTAB
M  V30 COUNTS 39 42 0 0 0
M  V30 BEGIN ATOM
M  V30 1 N 1.367973 -1.367702 1.645068 0
M  V30 2 C 0.384999 -0.881604 0.734818 0
M  V30 3 C 0.497023 0.277762 0.006990 0
M  V30 4 C 1.724450 1.033725 0.213613 0
M  V30 5 O 2.578717 0.608420 1.024476 0
M  V30 6 C 2.211215 2.277078 -0.365801 0
M  V30 7 C 2.161188 2.564076 -1.712361 0
M  V30 8 C 2.615737 3.730687 -2.289971 0
M  V30 9 C 3.160360 4.686309 -1.481759 0
M  V30 10 F 3.610383 5.837566 -2.040775 0
M  V30 11 C 3.238130 4.457230 -0.126239 0
M  V30 12 C 2.770016 3.275866 0.400768 0
M  V30 13 F 2.876753 3.111716 1.751202 0
M  V30 14 C -0.518277 0.651106 -0.844995 0
M  V30 15 C -1.643630 -0.138800 -0.965471 0
M  V30 16 N -1.804084 -1.280361 -0.278333 0 CHG=1 VAL=4
M  V30 17 O -2.907943 -2.092680 -0.370845 0 CHG=-1 VAL=1
M  V30 18 C -0.787306 -1.612814 0.546618 0
M  V30 19 C -0.942552 -2.867151 1.314057 0
M  V30 20 C -0.488889 -4.077834 0.781070 0
M  V30 21 C -0.623979 -5.270574 1.484377 0
M  V30 22 C -1.215874 -5.262042 2.730607 0
M  V30 23 C -1.677610 -4.066484 3.285939 0
M  V30 24 C -1.527217 -2.888503 2.555506 0
M  V30 25 O -2.053579 -1.832963 3.296322 0
M  V30 26 C -2.779429 -2.422180 4.362537 0
M  V30 27 O -2.298565 -3.745869 4.484074 0
M  V30 28 H 2.316382 -1.748252 1.539532 0
M  V30 29 H 1.264215 -1.419414 2.694850 0
M  V30 30 H 1.742016 1.842627 -2.399046 0
M  V30 31 H 2.549497 3.902439 -3.365414 0
M  V30 32 H 3.675354 5.225444 0.518766 0
M  V30 33 H -0.414273 1.567050 -1.408896 0
M  V30 34 H -2.439355 0.148455 -1.629610 0
M  V30 35 H -0.020683 -4.103400 -0.198124 0
M  V30 36 H -0.277240 -6.214520 1.083524 0
M  V30 37 H -1.321645 -6.203639 3.283993 0
M  V30 38 H -3.872160 -2.424182 4.169539 0
M  V30 39 H -2.543154 -1.917393 5.315510 0
M  V30 END ATOM
M  V30 BEGIN BOND
M  V30 1 1 1 2
M  V30 2 2 2 3
M  V30 3 1 3 4
M  V30 4 2 4 5
M  V30 5 1 4 6
M  V30 6 2 6 7
M  V30 7 1 7 8
M  V30 8 2 8 9
M  V30 9 1 9 10
M  V30 10 1 9 11
M  V30 11 2 11 12
M  V30 12 1 12 13
M  V30 13 1 3 14
M  V30 14 2 14 15
M  V30 15 1 15 16
M  V30 16 1 16 17
M  V30 17 2 16 18
M  V30 18 1 18 19
M  V30 19 2 19 20
M  V30 20 1 20 21
M  V30 21 2 21 22
M  V30 22 1 22 23
M  V30 23 2 23 24
M  V30 24 1 24 25
M  V30 25 1 25 26
M  V30 26 1 26 27
M  V30 27 1 18 2
M  V30 28 1 24 19
M  V30 29 1 12 6
M  V30 30 1 27 23
M  V30 31 1 1 28
M  V30 32 1 1 29
M  V30 33 1 7 30
M  V30 34 1 8 31
M  V30 35 1 11 32
M  V30 36 1 14 33
M  V30 37 1 15 34
M  V30 38 1 20 35
M  V30 39 1 21 36
M  V30 40 1 22 37
M  V30 41 1 26 38
M  V30 42 1 26 39
M  V30 END BOND
M  V30 END CTAB
M  END
>  <Dataset>  (721) 
ChEMBL_Kinases

>  <Ligand_Instance>  (721) 
nan

>  <PDB_ID>  (721) 
nan

>  <Standardized_SMILES>  (721) 
Nc1c(C(=O)c2ccc(F)cc2F)cc[n+]([O-])c1-c1cccc2c1OCO2

>  <Name>  (721) 
nan

>  <Pocket>  (721) 
nan

>  <ATP_Site>  (721) 
nan

>  <Peripheral>  (721) 
nan

>  <Num_H_Atoms_ProtBoundConf>  (721) 
nan

>  <Num_Resolved_Atoms>  (721) 
nan

>  <Num_Not_Resolved_Atoms>  (721) 
nan

$$$$
CHEMBL370899
     RDKit          3D

  0  0  0  0  0  0  0  0  0  0999 V3000
M  V30 BEGIN CTAB
M  V30 COUNTS 47 50 0 0 0
M  V30 BEGIN ATOM
M  V30 1 N 4.114901 0.123696 4.429557 0
M  V30 2 C 3.420468 0.415996 3.538054 0
M  V30 3 C 2.556303 0.768792 2.444082 0
M  V30 4 C 2.995681 0.599726 1.214372 0
M  V30 5 N 2.343218 0.869726 -0.023477 0
M  V30 6 C 3.096518 0.602786 -1.175803 0
M  V30 7 C 2.693334 0.796943 -2.500876 0
M  V30 8 C 3.593323 0.485170 -3.497330 0
M  V30 9 C 4.855465 -0.000558 -3.314900 0
M  V30 10 C 5.234087 -0.184896 -2.008327 0
M  V30 11 C 4.371146 0.112166 -0.996631 0
M  V30 12 S 4.613243 -0.046633 0.784291 0
M  V30 13 C 1.227114 1.302475 2.703750 0
M  V30 14 C 1.024157 2.198362 3.734160 0
M  V30 15 C -0.231851 2.699109 3.975154 0
M  V30 16 N -1.250182 2.304959 3.194970 0
M  V30 17 C -1.102064 1.432952 2.176935 0
M  V30 18 N -2.174739 1.011895 1.329445 0
M  V30 19 C -1.907217 -0.023468 0.326777 0
M  V30 20 C -1.544905 -1.330011 0.984788 0
M  V30 21 N -2.588082 -1.826897 1.844190 0
M  V30 22 C -2.185557 -3.049930 2.449835 0
M  V30 23 C -2.412449 -4.261912 1.602463 0
M  V30 24 O -3.729969 -4.298245 1.197936 0
M  V30 25 C -4.100881 -3.170948 0.458893 0
M  V30 26 C -3.883311 -1.901438 1.249955 0
M  V30 27 N 0.140600 0.977041 1.989357 0
M  V30 28 H 1.368641 1.239793 0.001680 0
M  V30 29 H 1.711562 1.174579 -2.796340 0
M  V30 30 H 3.266048 0.636573 -4.538511 0
M  V30 31 H 5.542751 -0.242681 -4.105916 0
M  V30 32 H 6.207057 -0.570085 -1.789880 0
M  V30 33 H 1.898188 2.471015 4.313799 0
M  V30 34 H -0.401289 3.409918 4.794961 0
M  V30 35 H -3.116578 1.453035 1.447978 0
M  V30 36 H -2.687837 -0.099739 -0.421445 0
M  V30 37 H -0.971581 0.319620 -0.185340 0
M  V30 38 H -1.340909 -2.054312 0.190323 0
M  V30 39 H -0.637734 -1.195779 1.569539 0
M  V30 40 H -1.094864 -2.994287 2.679993 0
M  V30 41 H -2.772995 -3.201793 3.393337 0
M  V30 42 H -1.707556 -4.359110 0.752348 0
M  V30 43 H -2.270906 -5.159396 2.256420 0
M  V30 44 H -5.187444 -3.252548 0.267345 0
M  V30 45 H -3.599985 -3.142395 -0.533359 0
M  V30 46 H -4.637945 -1.927148 2.089735 0
M  V30 47 H -4.144889 -1.056390 0.623310 0
M  V30 END ATOM
M  V30 BEGIN BOND
M  V30 1 3 1 2
M  V30 2 1 2 3
M  V30 3 2 3 4
M  V30 4 1 4 5
M  V30 5 1 5 6
M  V30 6 2 6 7
M  V30 7 1 7 8
M  V30 8 2 8 9
M  V30 9 1 9 10
M  V30 10 2 10 11
M  V30 11 1 11 12
M  V30 12 1 3 13
M  V30 13 2 13 14
M  V30 14 1 14 15
M  V30 15 2 15 16
M  V30 16 1 16 17
M  V30 17 1 17 18
M  V30 18 1 18 19
M  V30 19 1 19 20
M  V30 20 1 20 21
M  V30 21 1 21 22
M  V30 22 1 22 23
M  V30 23 1 23 24
M  V30 24 1 24 25
M  V30 25 1 25 26
M  V30 26 2 17 27
M  V30 27 1 12 4
M  V30 28 1 27 13
M  V30 29 1 11 6
M  V30 30 1 26 21
M  V30 31 1 5 28
M  V30 32 1 7 29
M  V30 33 1 8 30
M  V30 34 1 9 31
M  V30 35 1 10 32
M  V30 36 1 14 33
M  V30 37 1 15 34
M  V30 38 1 18 35
M  V30 39 1 19 36
M  V30 40 1 19 37
M  V30 41 1 20 38
M  V30 42 1 20 39
M  V30 43 1 22 40
M  V30 44 1 22 41
M  V30 45 1 23 42
M  V30 46 1 23 43
M  V30 47 1 25 44
M  V30 48 1 25 45
M  V30 49 1 26 46
M  V30 50 1 26 47
M  V30 END BOND
M  V30 END CTAB
M  END
>  <Dataset>  (722) 
ChEMBL_Kinases

>  <Ligand_Instance>  (722) 
nan

>  <PDB_ID>  (722) 
nan

>  <Standardized_SMILES>  (722) 
N#C/C(=C1/Nc2ccccc2S1)c1ccnc(NCCN2CCOCC2)n1

>  <Name>  (722) 
nan

>  <Pocket>  (722) 
nan

>  <ATP_Site>  (722) 
nan

>  <Peripheral>  (722) 
nan

>  <Num_H_Atoms_ProtBoundConf>  (722) 
nan

>  <Num_Resolved_Atoms>  (722) 
nan

>  <Num_Not_Resolved_Atoms>  (722) 
nan

$$$$
CHEMBL3728567
     RDKit          3D

  0  0  0  0  0  0  0  0  0  0999 V3000
M  V30 BEGIN CTAB
M  V30 COUNTS 56 59 0 0 0
M  V30 BEGIN ATOM
M  V30 1 C 2.824241 -2.548126 4.678229 0
M  V30 2 C 4.044929 -1.651939 4.587861 0
M  V30 3 C 5.040318 -2.336773 3.691100 0
M  V30 4 C 4.649640 -1.636729 5.982405 0
M  V30 5 O 3.759811 -0.336376 4.246182 0
M  V30 6 C 3.153282 0.155498 3.122365 0
M  V30 7 O 3.115211 -1.069711 2.839596 0
M  V30 8 N 2.518394 0.215020 1.868411 0
M  V30 9 C 2.161084 -0.883536 0.987375 0
M  V30 10 C 1.761099 -0.357257 -0.379262 0
M  V30 11 C 0.525404 0.435778 -0.240463 0
M  V30 12 C 0.871244 1.357919 0.682727 0
M  V30 13 S -0.570309 2.378446 0.934696 0
M  V30 14 C -1.570669 1.477547 -0.247102 0
M  V30 15 N -2.864370 1.643784 -0.652442 0
M  V30 16 C -3.425985 0.850255 -1.558495 0
M  V30 17 C -4.803312 1.056007 -1.965443 0
M  V30 18 C -5.433188 0.269565 -2.898950 0
M  V30 19 C -6.761822 0.609539 -3.171822 0
M  V30 20 N -7.390199 1.632130 -2.569729 0
M  V30 21 C -6.786793 2.397592 -1.665273 0
M  V30 22 C -5.495818 2.106998 -1.366266 0
M  V30 23 N -2.617807 -0.092539 -2.012956 0
M  V30 24 C -1.346137 -0.328027 -1.675309 0
M  V30 25 N -0.729787 -1.425105 -2.360592 0
M  V30 26 C -1.463509 -2.196473 -3.310867 0
M  V30 27 C -2.653920 -2.910600 -2.710916 0
M  V30 28 N -2.144252 -3.796164 -1.679306 0
M  V30 29 C -0.735234 0.478264 -0.737077 0
M  V30 30 C 2.184000 1.547542 1.392057 0
M  V30 31 H 2.758957 -3.202340 3.765755 0
M  V30 32 H 1.884952 -1.989005 4.743621 0
M  V30 33 H 2.882060 -3.267239 5.521893 0
M  V30 34 H 5.828543 -1.633016 3.355818 0
M  V30 35 H 5.571406 -3.101413 4.302517 0
M  V30 36 H 4.558061 -2.901755 2.872986 0
M  V30 37 H 4.443343 -2.604501 6.506881 0
M  V30 38 H 5.741812 -1.494954 5.881005 0
M  V30 39 H 4.164872 -0.839216 6.605835 0
M  V30 40 H 3.020745 -1.566738 0.873708 0
M  V30 41 H 1.334474 -1.421282 1.479893 0
M  V30 42 H 1.735957 -1.240664 -1.012080 0
M  V30 43 H 2.616160 0.266136 -0.751106 0
M  V30 44 H -4.869381 -0.520320 -3.331120 0
M  V30 45 H -7.256840 -0.026528 -3.920410 0
M  V30 46 H -7.389553 3.190201 -1.247393 0
M  V30 47 H -4.991849 2.729021 -0.625666 0
M  V30 48 H 0.207741 -1.851097 -2.347225 0
M  V30 49 H -0.837788 -2.912433 -3.855247 0
M  V30 50 H -1.897554 -1.531628 -4.093807 0
M  V30 51 H -3.080854 -3.592351 -3.487358 0
M  V30 52 H -3.474298 -2.266093 -2.401893 0
M  V30 53 H -1.179252 -3.484028 -1.368194 0
M  V30 54 H -2.008879 -4.785224 -2.015385 0
M  V30 55 H 2.109971 2.275950 2.193177 0
M  V30 56 H 2.935152 1.922125 0.665907 0
M  V30 END ATOM
M  V30 BEGIN BOND
M  V30 1 1 1 2
M  V30 2 1 2 3
M  V30 3 1 2 4
M  V30 4 1 2 5
M  V30 5 1 5 6
M  V30 6 2 6 7
M  V30 7 1 6 8
M  V30 8 1 8 9
M  V30 9 1 9 10
M  V30 10 1 10 11
M  V30 11 2 11 12
M  V30 12 1 12 13
M  V30 13 1 13 14
M  V30 14 2 14 15
M  V30 15 1 15 16
M  V30 16 1 16 17
M  V30 17 2 17 18
M  V30 18 1 18 19
M  V30 19 2 19 20
M  V30 20 1 20 21
M  V30 21 2 21 22
M  V30 22 2 16 23
M  V30 23 1 23 24
M  V30 24 1 24 25
M  V30 25 1 25 26
M  V30 26 1 26 27
M  V30 27 1 27 28
M  V30 28 2 24 29
M  V30 29 1 12 30
M  V30 30 1 30 8
M  V30 31 1 29 11
M  V30 32 1 29 14
M  V30 33 1 22 17
M  V30 34 1 1 31
M  V30 35 1 1 32
M  V30 36 1 1 33
M  V30 37 1 3 34
M  V30 38 1 3 35
M  V30 39 1 3 36
M  V30 40 1 4 37
M  V30 41 1 4 38
M  V30 42 1 4 39
M  V30 43 1 9 40
M  V30 44 1 9 41
M  V30 45 1 10 42
M  V30 46 1 10 43
M  V30 47 1 18 44
M  V30 48 1 19 45
M  V30 49 1 21 46
M  V30 50 1 22 47
M  V30 51 1 25 48
M  V30 52 1 26 49
M  V30 53 1 26 50
M  V30 54 1 27 51
M  V30 55 1 27 52
M  V30 56 1 28 53
M  V30 57 1 28 54
M  V30 58 1 30 55
M  V30 59 1 30 56
M  V30 END BOND
M  V30 END CTAB
M  END
>  <Dataset>  (723) 
ChEMBL_Kinases

>  <Ligand_Instance>  (723) 
nan

>  <PDB_ID>  (723) 
nan

>  <Standardized_SMILES>  (723) 
CC(C)(C)OC(=O)N1CCc2c(sc3nc(-c4ccncc4)nc(NCCN)c23)C1

>  <Name>  (723) 
nan

>  <Pocket>  (723) 
nan

>  <ATP_Site>  (723) 
nan

>  <Peripheral>  (723) 
nan

>  <Num_H_Atoms_ProtBoundConf>  (723) 
nan

>  <Num_Resolved_Atoms>  (723) 
nan

>  <Num_Not_Resolved_Atoms>  (723) 
nan

$$$$
CHEMBL370960
     RDKit          3D

  0  0  0  0  0  0  0  0  0  0999 V3000
M  V30 BEGIN CTAB
M  V30 COUNTS 45 47 0 0 0
M  V30 BEGIN ATOM
M  V30 1 C -0.004766 -4.251249 2.079591 0
M  V30 2 N 0.600446 -3.135250 1.355914 0
M  V30 3 C 1.149910 -3.632770 0.143348 0
M  V30 4 C 1.806121 -2.643784 -0.740195 0
M  V30 5 C 2.983843 -1.917298 -0.212055 0
M  V30 6 N 2.819228 -1.111636 0.953533 0
M  V30 7 C 2.601498 -1.250544 2.372930 0
M  V30 8 C 2.829821 0.326701 0.723640 0
M  V30 9 N 3.889051 1.005646 0.238799 0
M  V30 10 C 3.820743 2.347029 0.050456 0
M  V30 11 C 2.689368 3.036416 0.345745 0
M  V30 12 C 1.597427 2.369504 0.841536 0
M  V30 13 C 0.277365 2.859902 1.248688 0
M  V30 14 C 0.262704 4.131631 1.926700 0
M  V30 15 N 0.252987 5.146428 2.484067 0
M  V30 16 C -0.811081 2.189817 1.013719 0
M  V30 17 N -1.055397 0.939482 0.374627 0
M  V30 18 C -2.377964 0.506276 0.380363 0
M  V30 19 C -2.853487 -0.698023 -0.159294 0
M  V30 20 C -4.184063 -1.006974 -0.056904 0
M  V30 21 C -5.114642 -0.207553 0.549428 0
M  V30 22 C -4.630600 0.970751 1.073320 0
M  V30 23 C -3.304751 1.345143 1.006364 0
M  V30 24 S -2.426294 2.805589 1.565562 0
M  V30 25 N 1.694684 1.016367 1.019198 0
M  V30 26 H -1.074667 -4.384136 1.773463 0
M  V30 27 H 0.504174 -5.179376 1.736814 0
M  V30 28 H 0.079405 -4.101340 3.160646 0
M  V30 29 H -0.185633 -2.472409 1.144867 0
M  V30 30 H 0.318037 -4.156571 -0.418431 0
M  V30 31 H 1.867286 -4.468891 0.400494 0
M  V30 32 H 1.038791 -1.958770 -1.192196 0
M  V30 33 H 2.180609 -3.236218 -1.640250 0
M  V30 34 H 3.794283 -2.672116 0.013133 0
M  V30 35 H 3.367873 -1.256152 -1.042910 0
M  V30 36 H 2.824567 -2.286531 2.676575 0
M  V30 37 H 3.325246 -0.596667 2.954958 0
M  V30 38 H 1.595081 -0.923783 2.700217 0
M  V30 39 H 4.664953 2.892870 -0.335954 0
M  V30 40 H 2.508664 4.083372 0.244234 0
M  V30 41 H -0.241392 0.448197 -0.053692 0
M  V30 42 H -2.230218 -1.418669 -0.661597 0
M  V30 43 H -4.550495 -1.949713 -0.477509 0
M  V30 44 H -6.146243 -0.519873 0.592651 0
M  V30 45 H -5.323640 1.642175 1.565555 0
M  V30 END ATOM
M  V30 BEGIN BOND
M  V30 1 1 1 2
M  V30 2 1 2 3
M  V30 3 1 3 4
M  V30 4 1 4 5
M  V30 5 1 5 6
M  V30 6 1 6 7
M  V30 7 1 6 8
M  V30 8 2 8 9
M  V30 9 1 9 10
M  V30 10 2 10 11
M  V30 11 1 11 12
M  V30 12 1 12 13
M  V30 13 1 13 14
M  V30 14 3 14 15
M  V30 15 2 13 16
M  V30 16 1 16 17
M  V30 17 1 17 18
M  V30 18 2 18 19
M  V30 19 1 19 20
M  V30 20 2 20 21
M  V30 21 1 21 22
M  V30 22 2 22 23
M  V30 23 1 23 24
M  V30 24 2 12 25
M  V30 25 1 25 8
M  V30 26 1 24 16
M  V30 27 1 23 18
M  V30 28 1 1 26
M  V30 29 1 1 27
M  V30 30 1 1 28
M  V30 31 1 2 29
M  V30 32 1 3 30
M  V30 33 1 3 31
M  V30 34 1 4 32
M  V30 35 1 4 33
M  V30 36 1 5 34
M  V30 37 1 5 35
M  V30 38 1 7 36
M  V30 39 1 7 37
M  V30 40 1 7 38
M  V30 41 1 10 39
M  V30 42 1 11 40
M  V30 43 1 17 41
M  V30 44 1 19 42
M  V30 45 1 20 43
M  V30 46 1 21 44
M  V30 47 1 22 45
M  V30 END BOND
M  V30 END CTAB
M  END
>  <Dataset>  (724) 
ChEMBL_Kinases

>  <Ligand_Instance>  (724) 
nan

>  <PDB_ID>  (724) 
nan

>  <Standardized_SMILES>  (724) 
CNCCCN(C)c1nccc(/C(C#N)=C2\Nc3ccccc3S2)n1

>  <Name>  (724) 
nan

>  <Pocket>  (724) 
nan

>  <ATP_Site>  (724) 
nan

>  <Peripheral>  (724) 
nan

>  <Num_H_Atoms_ProtBoundConf>  (724) 
nan

>  <Num_Resolved_Atoms>  (724) 
nan

>  <Num_Not_Resolved_Atoms>  (724) 
nan

$$$$
CHEMBL371011
     RDKit          3D

  0  0  0  0  0  0  0  0  0  0999 V3000
M  V30 BEGIN CTAB
M  V30 COUNTS 64 67 0 0 0
M  V30 BEGIN ATOM
M  V30 1 C 4.328655 0.886597 7.328495 0
M  V30 2 O 4.689194 2.269526 7.173589 0
M  V30 3 C 4.168723 2.879134 6.038658 0
M  V30 4 C 3.368112 2.243869 5.118342 0
M  V30 5 C 2.842399 2.843029 3.978943 0
M  V30 6 C 2.005881 2.006473 3.123857 0
M  V30 7 C 0.965789 2.565437 2.394624 0
M  V30 8 C 0.135931 1.806389 1.568565 0
M  V30 9 C 0.429626 0.451413 1.531757 0
M  V30 10 C 1.441725 -0.172268 2.224974 0
M  V30 11 C 2.219076 0.647509 3.021210 0
M  V30 12 N 1.449906 -1.579879 1.947440 0
M  V30 13 C 0.390059 -1.855713 1.033424 0
M  V30 14 O 0.131559 -2.994639 0.597500 0
M  V30 15 C -0.253751 -0.580540 0.768510 0
M  V30 16 C -1.295264 -0.571572 -0.012061 0
M  V30 17 C -2.003077 -1.560140 -0.791755 0
M  V30 18 N -3.226005 -1.986963 -0.423154 0
M  V30 19 C -3.748829 -2.852600 -1.329377 0
M  V30 20 C -5.084187 -3.500266 -1.160744 0
M  V30 21 C -2.820178 -3.010802 -2.364158 0
M  V30 22 C -2.924859 -3.812944 -3.584635 0
M  V30 23 N -3.639126 -3.281685 -4.673454 0
M  V30 24 C -3.699520 -4.200420 -5.787637 0
M  V30 25 C -4.966605 -2.882846 -4.323353 0
M  V30 26 C -1.747189 -2.188577 -1.988336 0
M  V30 27 C -0.547945 -2.081736 -2.827401 0
M  V30 28 C 0.019709 -0.684839 -2.886585 0
M  V30 29 C 0.556471 -3.052231 -2.522088 0
M  V30 30 C 3.166700 4.169491 3.788993 0
M  V30 31 C 3.968360 4.812607 4.706638 0
M  V30 32 C 4.483854 4.208756 5.832619 0
M  V30 33 O 5.283566 4.962498 6.690065 0
M  V30 34 H 4.719355 0.448353 8.252345 0
M  V30 35 H 4.653922 0.315586 6.407030 0
M  V30 36 H 3.226060 0.771772 7.370469 0
M  V30 37 H 3.148703 1.186141 5.329330 0
M  V30 38 H 0.745069 3.620047 2.429305 0
M  V30 39 H -0.656338 2.250582 1.018401 0
M  V30 40 H 3.021592 0.151502 3.571415 0
M  V30 41 H 2.110589 -2.283547 2.342523 0
M  V30 42 H -1.794254 0.406984 -0.142475 0
M  V30 43 H -3.749974 -1.705687 0.460196 0
M  V30 44 H -5.881686 -2.846180 -1.551742 0
M  V30 45 H -5.240601 -3.628270 -0.057353 0
M  V30 46 H -5.052475 -4.508269 -1.648483 0
M  V30 47 H -1.853404 -4.039771 -3.890410 0
M  V30 48 H -3.290048 -4.835960 -3.266698 0
M  V30 49 H -4.544555 -3.993042 -6.489031 0
M  V30 50 H -2.770354 -4.214764 -6.381282 0
M  V30 51 H -3.909610 -5.253240 -5.437289 0
M  V30 52 H -5.482826 -2.439767 -5.241596 0
M  V30 53 H -5.604781 -3.687730 -3.941629 0
M  V30 54 H -4.880076 -2.047258 -3.589449 0
M  V30 55 H -0.811258 -2.300824 -3.915011 0
M  V30 56 H 0.626970 -0.603801 -3.836626 0
M  V30 57 H 0.798967 -0.531830 -2.087935 0
M  V30 58 H -0.726628 0.114170 -2.929913 0
M  V30 59 H 1.400254 -2.642782 -1.963466 0
M  V30 60 H 0.998020 -3.531559 -3.434032 0
M  V30 61 H 0.080183 -3.911222 -1.960470 0
M  V30 62 H 2.736639 4.588592 2.893304 0
M  V30 63 H 4.162682 5.856543 4.458600 0
M  V30 64 H 4.941565 5.807787 7.172222 0
M  V30 END ATOM
M  V30 BEGIN BOND
M  V30 1 1 1 2
M  V30 2 1 2 3
M  V30 3 2 3 4
M  V30 4 1 4 5
M  V30 5 1 5 6
M  V30 6 2 6 7
M  V30 7 1 7 8
M  V30 8 2 8 9
M  V30 9 1 9 10
M  V30 10 2 10 11
M  V30 11 1 10 12
M  V30 12 1 12 13
M  V30 13 2 13 14
M  V30 14 1 13 15
M  V30 15 2 15 16
M  V30 16 1 16 17
M  V30 17 1 17 18
M  V30 18 1 18 19
M  V30 19 1 19 20
M  V30 20 2 19 21
M  V30 21 1 21 22
M  V30 22 1 22 23
M  V30 23 1 23 24
M  V30 24 1 23 25
M  V30 25 1 21 26
M  V30 26 1 26 27
M  V30 27 1 27 28
M  V30 28 1 27 29
M  V30 29 2 5 30
M  V30 30 1 30 31
M  V30 31 2 31 32
M  V30 32 1 32 33
M  V30 33 1 32 3
M  V30 34 1 11 6
M  V30 35 2 26 17
M  V30 36 1 15 9
M  V30 37 1 1 34
M  V30 38 1 1 35
M  V30 39 1 1 36
M  V30 40 1 4 37
M  V30 41 1 7 38
M  V30 42 1 8 39
M  V30 43 1 11 40
M  V30 44 1 12 41
M  V30 45 1 16 42
M  V30 46 1 18 43
M  V30 47 1 20 44
M  V30 48 1 20 45
M  V30 49 1 20 46
M  V30 50 1 22 47
M  V30 51 1 22 48
M  V30 52 1 24 49
M  V30 53 1 24 50
M  V30 54 1 24 51
M  V30 55 1 25 52
M  V30 56 1 25 53
M  V30 57 1 25 54
M  V30 58 1 27 55
M  V30 59 1 28 56
M  V30 60 1 28 57
M  V30 61 1 28 58
M  V30 62 1 29 59
M  V30 63 1 29 60
M  V30 64 1 29 61
M  V30 65 1 30 62
M  V30 66 1 31 63
M  V30 67 1 33 64
M  V30 END BOND
M  V30 END CTAB
M  END
>  <Dataset>  (725) 
ChEMBL_Kinases

>  <Ligand_Instance>  (725) 
nan

>  <PDB_ID>  (725) 
nan

>  <Standardized_SMILES>  (725) 
COc1cc(-c2ccc3c(c2)NC(=O)/C3=C\c2[nH]c(C)c(CN(C)C)c2C(C)C)ccc1O

>  <Name>  (725) 
nan

>  <Pocket>  (725) 
nan

>  <ATP_Site>  (725) 
nan

>  <Peripheral>  (725) 
nan

>  <Num_H_Atoms_ProtBoundConf>  (725) 
nan

>  <Num_Resolved_Atoms>  (725) 
nan

>  <Num_Not_Resolved_Atoms>  (725) 
nan

$$$$
CHEMBL3728561
     RDKit          3D

  0  0  0  0  0  0  0  0  0  0999 V3000
M  V30 BEGIN CTAB
M  V30 COUNTS 43 46 0 0 0
M  V30 BEGIN ATOM
M  V30 1 N 3.609741 -4.428872 3.120108 0
M  V30 2 C 2.604526 -3.703875 2.434201 0
M  V30 3 O 1.737440 -3.631280 3.355873 0
M  V30 4 C 2.651519 -3.209457 1.021903 0
M  V30 5 N 1.409149 -2.532333 0.771968 0
M  V30 6 C 0.330511 -3.516739 0.768119 0
M  V30 7 C -0.773980 -2.652377 0.138837 0
M  V30 8 C -0.054083 -2.150625 -1.074292 0 CFG=1
M  V30 9 N -0.608852 -1.006807 -1.705856 0
M  V30 10 C -0.685468 0.163706 -0.938722 0
M  V30 11 N -0.271479 0.275202 0.329700 0
M  V30 12 C -0.415297 1.452853 0.918524 0
M  V30 13 C 0.019282 1.649431 2.322336 0
M  V30 14 C 0.569487 0.560486 2.962579 0
M  V30 15 C 0.964147 0.771825 4.266823 0
M  V30 16 N 0.856707 1.933006 4.949597 0
M  V30 17 C 0.318320 2.990211 4.315342 0
M  V30 18 C -0.095818 2.841760 3.008904 0
M  V30 19 N -0.934950 2.526210 0.351776 0
M  V30 20 C -1.383448 2.536830 -0.912459 0
M  V30 21 C -1.932845 3.571935 -1.598651 0
M  V30 22 C -2.332542 3.326768 -2.942829 0
M  V30 23 S -1.878946 1.497489 -3.201584 0
M  V30 24 C -1.256625 1.284503 -1.612213 0
M  V30 25 C 1.358843 -1.970380 -0.566109 0
M  V30 26 H 4.049822 -5.391654 3.100900 0
M  V30 27 H 4.213309 -4.105417 3.908750 0
M  V30 28 H 2.888003 -4.015580 0.309173 0
M  V30 29 H 3.485180 -2.456059 1.006901 0
M  V30 30 H 0.022904 -3.819232 1.781374 0
M  V30 31 H 0.590319 -4.373598 0.127160 0
M  V30 32 H -1.644801 -3.293242 -0.089080 0
M  V30 33 H -0.987934 -1.897457 0.913527 0
M  V30 34 H -0.049493 -3.016802 -1.799469 0
M  V30 35 H -0.934555 -1.066468 -2.694932 0
M  V30 36 H 0.673662 -0.374645 2.465226 0
M  V30 37 H 1.402716 -0.093309 4.779303 0
M  V30 38 H 0.165396 3.988024 4.730845 0
M  V30 39 H -0.540043 3.656978 2.437603 0
M  V30 40 H -2.091662 4.564402 -1.209761 0
M  V30 41 H -2.793906 4.089779 -3.608886 0
M  V30 42 H 2.091516 -2.459054 -1.257943 0
M  V30 43 H 1.629194 -0.895519 -0.495776 0
M  V30 END ATOM
M  V30 BEGIN BOND
M  V30 1 1 1 2
M  V30 2 2 2 3
M  V30 3 1 2 4
M  V30 4 1 4 5
M  V30 5 1 5 6
M  V30 6 1 6 7
M  V30 7 1 7 8
M  V30 8 1 8 9
M  V30 9 1 9 10
M  V30 10 2 10 11
M  V30 11 1 11 12
M  V30 12 1 12 13
M  V30 13 2 13 14
M  V30 14 1 14 15
M  V30 15 2 15 16
M  V30 16 1 16 17
M  V30 17 2 17 18
M  V30 18 2 12 19
M  V30 19 1 19 20
M  V30 20 1 20 21
M  V30 21 2 21 22
M  V30 22 1 22 23
M  V30 23 1 23 24
M  V30 24 1 8 25
M  V30 25 1 25 5
M  V30 26 1 24 10
M  V30 27 1 18 13
M  V30 28 2 24 20
M  V30 29 1 1 26
M  V30 30 1 1 27
M  V30 31 1 4 28
M  V30 32 1 4 29
M  V30 33 1 6 30
M  V30 34 1 6 31
M  V30 35 1 7 32
M  V30 36 1 7 33
M  V30 37 1 8 34 CFG=3
M  V30 38 1 9 35
M  V30 39 1 14 36
M  V30 40 1 15 37
M  V30 41 1 17 38
M  V30 42 1 18 39
M  V30 43 1 21 40
M  V30 44 1 22 41
M  V30 45 1 25 42
M  V30 46 1 25 43
M  V30 END BOND
M  V30 END CTAB
M  END
>  <Dataset>  (726) 
ChEMBL_Kinases

>  <Ligand_Instance>  (726) 
nan

>  <PDB_ID>  (726) 
nan

>  <Standardized_SMILES>  (726) 
NC(=O)CN1CC[C@@H](Nc2nc(-c3ccncc3)nc3ccsc23)C1

>  <Name>  (726) 
nan

>  <Pocket>  (726) 
nan

>  <ATP_Site>  (726) 
nan

>  <Peripheral>  (726) 
nan

>  <Num_H_Atoms_ProtBoundConf>  (726) 
nan

>  <Num_Resolved_Atoms>  (726) 
nan

>  <Num_Not_Resolved_Atoms>  (726) 
nan

$$$$
CHEMBL55267
     RDKit          3D

  0  0  0  0  0  0  0  0  0  0999 V3000
M  V30 BEGIN CTAB
M  V30 COUNTS 60 59 0 0 0
M  V30 BEGIN ATOM
M  V30 1 C 0.796086 -5.028953 5.095468 0
M  V30 2 C 0.809105 -3.510743 5.239396 0
M  V30 3 C 0.205301 -2.962352 3.973642 0
M  V30 4 C 0.133779 -1.477678 3.932058 0
M  V30 5 C 1.460951 -0.793046 4.038162 0
M  V30 6 C 2.428259 -1.121759 2.976360 0
M  V30 7 C 2.068208 -0.825250 1.574857 0
M  V30 8 C 1.798964 0.576210 1.273335 0
M  V30 9 O 1.877020 1.435206 2.165605 0
M  V30 10 O 1.474626 0.868355 0.021930 0
M  V30 11 C 1.135588 1.904898 -0.774636 0
M  V30 12 C -0.148667 2.627932 -0.559742 0 CFG=2
M  V30 13 C -0.112103 3.682625 0.467255 0
M  V30 14 O -0.334990 3.296294 1.769537 0
M  V30 15 O -1.312384 1.849650 -0.639942 0
M  V30 16 C -2.260540 1.843636 -1.618915 0
M  V30 17 O -2.024576 2.657000 -2.555221 0
M  V30 18 C -3.330912 0.875260 -1.326466 0
M  V30 19 C -2.988295 -0.555246 -1.271800 0
M  V30 20 C -2.442856 -1.220796 -2.490018 0
M  V30 21 C -1.156228 -0.715776 -3.032980 0
M  V30 22 C -0.695269 -1.501206 -4.256449 0
M  V30 23 C -0.483092 -2.958603 -3.969820 0
M  V30 24 C 0.544920 -3.224546 -2.921637 0
M  V30 25 H 0.973988 -5.556830 6.039818 0
M  V30 26 H -0.148668 -5.332064 4.576011 0
M  V30 27 H 1.610047 -5.326548 4.394546 0
M  V30 28 H 1.872480 -3.206327 5.276057 0
M  V30 29 H 0.275365 -3.229300 6.161999 0
M  V30 30 H 0.819193 -3.374398 3.138798 0
M  V30 31 H -0.822650 -3.362178 3.876073 0
M  V30 32 H -0.499591 -1.121567 4.770572 0
M  V30 33 H -0.292628 -1.224893 2.922561 0
M  V30 34 H 1.908797 -1.116399 5.013147 0
M  V30 35 H 1.356375 0.304635 4.134942 0
M  V30 36 H 2.646543 -2.229110 3.019888 0
M  V30 37 H 3.408320 -0.652187 3.218871 0
M  V30 38 H 1.268032 -1.536753 1.229894 0
M  V30 39 H 2.946842 -1.125484 0.947865 0
M  V30 40 H 1.952526 2.685959 -0.886258 0
M  V30 41 H 1.042657 1.459746 -1.827332 0
M  V30 42 H -0.239554 3.247788 -1.569626 0
M  V30 43 H -0.720729 4.589584 0.188844 0
M  V30 44 H 0.943514 4.099929 0.462644 0
M  V30 45 H 0.143148 3.839182 2.438791 0
M  V30 46 H -3.756755 1.210079 -0.324789 0
M  V30 47 H -4.186168 1.075274 -2.051842 0
M  V30 48 H -3.966120 -1.102935 -1.047845 0
M  V30 49 H -2.381956 -0.799220 -0.354641 0
M  V30 50 H -2.354234 -2.334511 -2.330018 0
M  V30 51 H -3.278369 -1.156341 -3.261831 0
M  V30 52 H -0.381776 -0.738103 -2.263554 0
M  V30 53 H -1.342123 0.301547 -3.433117 0
M  V30 54 H -1.472071 -1.397110 -5.025844 0
M  V30 55 H 0.227383 -1.044553 -4.614548 0
M  V30 56 H -1.430856 -3.455910 -3.757580 0
M  V30 57 H -0.096865 -3.409839 -4.927804 0
M  V30 58 H 1.239263 -2.382637 -2.754186 0
M  V30 59 H 1.216742 -4.080291 -3.224233 0
M  V30 60 H 0.033678 -3.584309 -2.001381 0
M  V30 END ATOM
M  V30 BEGIN BOND
M  V30 1 1 1 2
M  V30 2 1 2 3
M  V30 3 1 3 4
M  V30 4 1 4 5
M  V30 5 1 5 6
M  V30 6 1 6 7
M  V30 7 1 7 8
M  V30 8 2 8 9
M  V30 9 1 8 10
M  V30 10 1 10 11
M  V30 11 1 11 12
M  V30 12 1 12 13
M  V30 13 1 13 14
M  V30 14 1 12 15
M  V30 15 1 15 16
M  V30 16 2 16 17
M  V30 17 1 16 18
M  V30 18 1 18 19
M  V30 19 1 19 20
M  V30 20 1 20 21
M  V30 21 1 21 22
M  V30 22 1 22 23
M  V30 23 1 23 24
M  V30 24 1 1 25
M  V30 25 1 1 26
M  V30 26 1 1 27
M  V30 27 1 2 28
M  V30 28 1 2 29
M  V30 29 1 3 30
M  V30 30 1 3 31
M  V30 31 1 4 32
M  V30 32 1 4 33
M  V30 33 1 5 34
M  V30 34 1 5 35
M  V30 35 1 6 36
M  V30 36 1 6 37
M  V30 37 1 7 38
M  V30 38 1 7 39
M  V30 39 1 11 40
M  V30 40 1 11 41
M  V30 41 1 12 42 CFG=3
M  V30 42 1 13 43
M  V30 43 1 13 44
M  V30 44 1 14 45
M  V30 45 1 18 46
M  V30 46 1 18 47
M  V30 47 1 19 48
M  V30 48 1 19 49
M  V30 49 1 20 50
M  V30 50 1 20 51
M  V30 51 1 21 52
M  V30 52 1 21 53
M  V30 53 1 22 54
M  V30 54 1 22 55
M  V30 55 1 23 56
M  V30 56 1 23 57
M  V30 57 1 24 58
M  V30 58 1 24 59
M  V30 59 1 24 60
M  V30 END BOND
M  V30 END CTAB
M  END
>  <Dataset>  (727) 
ChEMBL_Kinases

>  <Ligand_Instance>  (727) 
nan

>  <PDB_ID>  (727) 
nan

>  <Standardized_SMILES>  (727) 
CCCCCCCC(=O)OC[C@H](CO)OC(=O)CCCCCCC

>  <Name>  (727) 
nan

>  <Pocket>  (727) 
nan

>  <ATP_Site>  (727) 
nan

>  <Peripheral>  (727) 
nan

>  <Num_H_Atoms_ProtBoundConf>  (727) 
nan

>  <Num_Resolved_Atoms>  (727) 
nan

>  <Num_Not_Resolved_Atoms>  (727) 
nan

$$$$
CHEMBL553397
     RDKit          3D

  0  0  0  0  0  0  0  0  0  0999 V3000
M  V30 BEGIN CTAB
M  V30 COUNTS 33 35 0 0 0
M  V30 BEGIN ATOM
M  V30 1 C -0.152072 -3.410082 4.386818 0
M  V30 2 O 0.531149 -4.222567 3.449204 0
M  V30 3 C 0.767592 -3.762792 2.136534 0
M  V30 4 C 1.439536 -4.630968 1.306258 0
M  V30 5 C 1.668194 -4.190531 0.042344 0
M  V30 6 C 1.209167 -2.926241 -0.285597 0
M  V30 7 S 1.354325 -2.018193 -1.930528 0
M  V30 8 C 0.510318 -0.582599 -1.348527 0
M  V30 9 C 0.165787 -0.827844 0.000985 0
M  V30 10 C 0.532826 -2.033681 0.525319 0
M  V30 11 C 0.326963 -2.526662 1.791779 0
M  V30 12 N -0.532152 0.163285 0.752132 0
M  V30 13 C -0.591083 1.596903 0.546824 0
M  V30 14 C -1.247334 2.027257 -0.696501 0 CFG=1
M  V30 15 C -1.351099 3.547094 -0.642463 0
M  V30 16 O -0.020057 4.023451 -0.655709 0
M  V30 17 N -0.560136 1.727663 -1.916071 0
M  V30 18 C 0.274016 0.586313 -2.210808 0
M  V30 19 O 0.914131 0.483502 -3.301623 0
M  V30 20 H -1.135862 -3.053549 3.962767 0
M  V30 21 H 0.401448 -2.522401 4.694129 0
M  V30 22 H -0.372281 -4.016314 5.284827 0
M  V30 23 H 1.802825 -5.616903 1.546253 0
M  V30 24 H 2.176442 -4.750619 -0.714470 0
M  V30 25 H -0.186398 -1.946604 2.537278 0
M  V30 26 H -1.084170 -0.218089 1.579566 0
M  V30 27 H 0.451798 2.015623 0.565175 0
M  V30 28 H -1.109900 2.065032 1.407785 0
M  V30 29 H -2.289984 1.664215 -0.766860 0
M  V30 30 H -1.858803 3.910790 0.252887 0
M  V30 31 H -1.815014 3.952265 -1.572876 0
M  V30 32 H 0.339162 4.148132 -1.549101 0
M  V30 33 H -0.618355 2.363042 -2.742622 0
M  V30 END ATOM
M  V30 BEGIN BOND
M  V30 1 1 1 2
M  V30 2 1 2 3
M  V30 3 2 3 4
M  V30 4 1 4 5
M  V30 5 2 5 6
M  V30 6 1 6 7
M  V30 7 1 7 8
M  V30 8 2 8 9
M  V30 9 1 9 10
M  V30 10 2 10 11
M  V30 11 1 9 12
M  V30 12 1 12 13
M  V30 13 1 13 14
M  V30 14 1 14 15
M  V30 15 1 15 16
M  V30 16 1 14 17
M  V30 17 1 17 18
M  V30 18 2 18 19
M  V30 19 1 11 3
M  V30 20 1 10 6
M  V30 21 1 18 8
M  V30 22 1 1 20
M  V30 23 1 1 21
M  V30 24 1 1 22
M  V30 25 1 4 23
M  V30 26 1 5 24
M  V30 27 1 11 25
M  V30 28 1 12 26
M  V30 29 1 13 27
M  V30 30 1 13 28
M  V30 31 1 14 29 CFG=3
M  V30 32 1 15 30
M  V30 33 1 15 31
M  V30 34 1 16 32
M  V30 35 1 17 33
M  V30 END BOND
M  V30 END CTAB
M  END
>  <Dataset>  (728) 
ChEMBL_Kinases

>  <Ligand_Instance>  (728) 
nan

>  <PDB_ID>  (728) 
nan

>  <Standardized_SMILES>  (728) 
COc1ccc2sc3c(c2c1)NC[C@@H](CO)NC3=O

>  <Name>  (728) 
nan

>  <Pocket>  (728) 
nan

>  <ATP_Site>  (728) 
nan

>  <Peripheral>  (728) 
nan

>  <Num_H_Atoms_ProtBoundConf>  (728) 
nan

>  <Num_Resolved_Atoms>  (728) 
nan

>  <Num_Not_Resolved_Atoms>  (728) 
nan

$$$$
CHEMBL554082
     RDKit          3D

  0  0  0  0  0  0  0  0  0  0999 V3000
M  V30 BEGIN CTAB
M  V30 COUNTS 31 33 0 0 0
M  V30 BEGIN ATOM
M  V30 1 N -1.999618 0.273789 4.156905 0
M  V30 2 C -1.297303 -0.053383 2.934522 0
M  V30 3 N -0.028954 -0.322372 2.971115 0
M  V30 4 C 0.707684 -0.598384 2.157105 0
M  V30 5 N 2.121307 -0.923443 2.024193 0
M  V30 6 C 2.887637 -1.250591 0.890650 0
M  V30 7 C 4.218319 -1.514324 1.130721 0
M  V30 8 C 5.060719 -1.843148 0.106768 0
M  V30 9 C 4.645128 -1.928262 -1.184978 0
M  V30 10 C 3.333642 -1.675215 -1.471635 0
M  V30 11 C 2.506649 -1.346525 -0.423706 0
M  V30 12 S -0.494305 -0.548748 0.691046 0
M  V30 13 C -1.912646 -0.092568 1.733564 0
M  V30 14 C -3.325277 0.154784 1.321330 0
M  V30 15 O -4.011165 0.450996 2.326066 0
M  V30 16 C -3.751277 0.041846 -0.087047 0
M  V30 17 C -2.817259 0.610025 -1.145317 0
M  V30 18 C -3.092534 -0.847071 -1.048253 0
M  V30 19 H -2.733917 -0.409411 4.487308 0
M  V30 20 H -1.839520 1.133898 4.742173 0
M  V30 21 H 2.539288 -0.881344 2.956174 0
M  V30 22 H 4.651789 -1.474340 2.123544 0
M  V30 23 H 6.115794 -2.050438 0.310327 0
M  V30 24 H 5.299538 -2.187813 -2.010257 0
M  V30 25 H 2.947972 -1.725978 -2.465371 0
M  V30 26 H 1.474851 -1.148350 -0.657357 0
M  V30 27 H -4.840654 0.270784 -0.212125 0
M  V30 28 H -1.808506 0.937550 -0.896363 0
M  V30 29 H -3.301086 1.210327 -1.945394 0
M  V30 30 H -2.335711 -1.558705 -0.726974 0
M  V30 31 H -3.765947 -1.227894 -1.873276 0
M  V30 END ATOM
M  V30 BEGIN BOND
M  V30 1 1 1 2
M  V30 2 1 2 3
M  V30 3 2 3 4
M  V30 4 1 4 5
M  V30 5 1 5 6
M  V30 6 2 6 7
M  V30 7 1 7 8
M  V30 8 2 8 9
M  V30 9 1 9 10
M  V30 10 2 10 11
M  V30 11 1 4 12
M  V30 12 1 12 13
M  V30 13 1 13 14
M  V30 14 2 14 15
M  V30 15 1 14 16
M  V30 16 1 16 17
M  V30 17 1 17 18
M  V30 18 2 13 2
M  V30 19 1 18 16
M  V30 20 1 11 6
M  V30 21 1 1 19
M  V30 22 1 1 20
M  V30 23 1 5 21
M  V30 24 1 7 22
M  V30 25 1 8 23
M  V30 26 1 9 24
M  V30 27 1 10 25
M  V30 28 1 11 26
M  V30 29 1 16 27
M  V30 30 1 17 28
M  V30 31 1 17 29
M  V30 32 1 18 30
M  V30 33 1 18 31
M  V30 END BOND
M  V30 END CTAB
M  END
>  <Dataset>  (729) 
ChEMBL_Kinases

>  <Ligand_Instance>  (729) 
nan

>  <PDB_ID>  (729) 
nan

>  <Standardized_SMILES>  (729) 
Nc1nc(Nc2ccccc2)sc1C(=O)C1CC1

>  <Name>  (729) 
nan

>  <Pocket>  (729) 
nan

>  <ATP_Site>  (729) 
nan

>  <Peripheral>  (729) 
nan

>  <Num_H_Atoms_ProtBoundConf>  (729) 
nan

>  <Num_Resolved_Atoms>  (729) 
nan

>  <Num_Not_Resolved_Atoms>  (729) 
nan

$$$$
CHEMBL55415
     RDKit          3D

  0  0  0  0  0  0  0  0  0  0999 V3000
M  V30 BEGIN CTAB
M  V30 COUNTS 31 33 0 0 0
M  V30 BEGIN ATOM
M  V30 1 O -3.099693 -0.291641 0.818025 0
M  V30 2 C -1.850981 -0.289063 0.789759 0
M  V30 3 C -1.151355 -1.417024 0.460859 0
M  V30 4 C 0.207515 -1.433521 0.425264 0
M  V30 5 C 1.063917 -2.607461 0.082316 0
M  V30 6 C 2.497052 -2.627569 0.027841 0
M  V30 7 C 2.876062 -3.903954 -0.300788 0
M  V30 8 C 2.143627 -5.015266 -0.549378 0
M  V30 9 O 2.969848 -6.123810 -0.846470 0
M  V30 10 C 0.774766 -4.976505 -0.492742 0
M  V30 11 C 0.232338 -3.724734 -0.165225 0
M  V30 12 O 0.777471 -0.271559 0.731947 0
M  V30 13 C 0.152484 0.818636 1.046773 0
M  V30 14 C 0.943279 1.906851 1.328838 0
M  V30 15 C 0.344920 3.099395 1.674495 0
M  V30 16 O 0.968877 4.315264 1.999241 0
M  V30 17 C -1.047958 3.222131 1.741118 0
M  V30 18 O -1.869392 4.296602 2.055519 0
M  V30 19 C -1.808499 2.081141 1.443945 0
M  V30 20 O -3.213361 1.975680 1.446671 0
M  V30 21 C -1.216475 0.885744 1.098365 0
M  V30 22 H -1.694175 -2.292130 0.237208 0
M  V30 23 H 2.560523 -1.612101 0.269343 0
M  V30 24 H 3.980580 -3.742260 -0.301199 0
M  V30 25 H 2.938070 -6.921887 -0.172489 0
M  V30 26 H 0.335781 -5.917483 -0.715931 0
M  V30 27 H -0.826580 -3.909328 -0.175938 0
M  V30 28 H 2.042243 1.956967 1.318586 0
M  V30 29 H 1.264060 4.444291 2.979051 0
M  V30 30 H -2.454275 4.656119 1.283155 0
M  V30 31 H -3.686031 2.894162 1.377305 0
M  V30 END ATOM
M  V30 BEGIN BOND
M  V30 1 2 1 2
M  V30 2 1 2 3
M  V30 3 2 3 4
M  V30 4 1 4 5
M  V30 5 2 5 6
M  V30 6 1 6 7
M  V30 7 2 7 8
M  V30 8 1 8 9
M  V30 9 1 8 10
M  V30 10 2 10 11
M  V30 11 1 4 12
M  V30 12 1 12 13
M  V30 13 2 13 14
M  V30 14 1 14 15
M  V30 15 1 15 16
M  V30 16 2 15 17
M  V30 17 1 17 18
M  V30 18 1 17 19
M  V30 19 1 19 20
M  V30 20 2 19 21
M  V30 21 1 21 2
M  V30 22 1 11 5
M  V30 23 1 21 13
M  V30 24 1 3 22
M  V30 25 1 6 23
M  V30 26 1 7 24
M  V30 27 1 9 25
M  V30 28 1 10 26
M  V30 29 1 11 27
M  V30 30 1 14 28
M  V30 31 1 16 29
M  V30 32 1 18 30
M  V30 33 1 20 31
M  V30 END BOND
M  V30 END CTAB
M  END
>  <Dataset>  (730) 
ChEMBL_Kinases

>  <Ligand_Instance>  (730) 
nan

>  <PDB_ID>  (730) 
nan

>  <Standardized_SMILES>  (730) 
O=c1cc(-c2ccc(O)cc2)oc2cc(O)c(O)c(O)c12

>  <Name>  (730) 
SCUTELLAREIN

>  <Pocket>  (730) 
nan

>  <ATP_Site>  (730) 
nan

>  <Peripheral>  (730) 
nan

>  <Num_H_Atoms_ProtBoundConf>  (730) 
nan

>  <Num_Resolved_Atoms>  (730) 
nan

>  <Num_Not_Resolved_Atoms>  (730) 
nan

$$$$
CHEMBL371209
     RDKit          3D

  0  0  0  0  0  0  0  0  0  0999 V3000
M  V30 BEGIN CTAB
M  V30 COUNTS 39 41 0 0 0
M  V30 BEGIN ATOM
M  V30 1 C -1.828654 -5.215294 1.920331 0
M  V30 2 C -2.576822 -4.160608 1.145248 0
M  V30 3 C -1.719495 -2.906915 1.061091 0
M  V30 4 N -0.935721 -2.438407 0.394148 0
M  V30 5 C -0.289242 -1.300105 0.498746 0
M  V30 6 C 0.729660 -0.762670 -0.431096 0
M  V30 7 C 2.053961 -0.519692 -0.064387 0
M  V30 8 C 2.928116 -0.018408 -1.001221 0
M  V30 9 C 2.502770 0.242801 -2.292996 0
M  V30 10 C 1.181912 0.005013 -2.675187 0
M  V30 11 C 0.685116 0.276234 -4.068988 0
M  V30 12 C 0.294637 -0.503766 -1.723869 0
M  V30 13 C -0.601972 -0.558402 1.573459 0
M  V30 14 C -0.130962 0.765575 2.081139 0
M  V30 15 C -0.317730 1.945569 1.361633 0
M  V30 16 C 0.162650 3.102140 1.939829 0
M  V30 17 N 0.783250 3.145357 3.127090 0
M  V30 18 C 0.957941 1.998760 3.812851 0
M  V30 19 C 1.626671 1.875480 5.146041 0
M  V30 20 C 0.505432 0.777506 3.308316 0
M  V30 21 S -1.835278 -1.570410 2.383644 0
M  V30 22 H -1.373853 -4.678262 2.800380 0
M  V30 23 H -0.995554 -5.618963 1.339711 0
M  V30 24 H -2.539749 -5.938641 2.327954 0
M  V30 25 H -3.530252 -3.912464 1.649839 0
M  V30 26 H -2.781376 -4.397650 0.107476 0
M  V30 27 H 2.326477 -0.738197 0.940323 0
M  V30 28 H 3.959972 0.177279 -0.737276 0
M  V30 29 H 3.145249 0.638393 -3.076225 0
M  V30 30 H 1.422727 0.961326 -4.531255 0
M  V30 31 H 0.646838 -0.667709 -4.639070 0
M  V30 32 H -0.288118 0.811473 -4.047344 0
M  V30 33 H -0.719675 -0.681495 -2.034854 0
M  V30 34 H -0.819114 1.893666 0.407479 0
M  V30 35 H 0.022547 4.018453 1.390343 0
M  V30 36 H 2.415254 1.093707 5.117128 0
M  V30 37 H 0.898435 1.523428 5.930924 0
M  V30 38 H 1.991449 2.865791 5.469006 0
M  V30 39 H 0.629467 -0.170695 3.835757 0
M  V30 END ATOM
M  V30 BEGIN BOND
M  V30 1 1 1 2
M  V30 2 1 2 3
M  V30 3 2 3 4
M  V30 4 1 4 5
M  V30 5 1 5 6
M  V30 6 2 6 7
M  V30 7 1 7 8
M  V30 8 2 8 9
M  V30 9 1 9 10
M  V30 10 1 10 11
M  V30 11 2 10 12
M  V30 12 2 5 13
M  V30 13 1 13 14
M  V30 14 2 14 15
M  V30 15 1 15 16
M  V30 16 2 16 17
M  V30 17 1 17 18
M  V30 18 1 18 19
M  V30 19 2 18 20
M  V30 20 1 13 21
M  V30 21 1 21 3
M  V30 22 1 12 6
M  V30 23 1 20 14
M  V30 24 1 1 22
M  V30 25 1 1 23
M  V30 26 1 1 24
M  V30 27 1 2 25
M  V30 28 1 2 26
M  V30 29 1 7 27
M  V30 30 1 8 28
M  V30 31 1 9 29
M  V30 32 1 11 30
M  V30 33 1 11 31
M  V30 34 1 11 32
M  V30 35 1 12 33
M  V30 36 1 15 34
M  V30 37 1 16 35
M  V30 38 1 19 36
M  V30 39 1 19 37
M  V30 40 1 19 38
M  V30 41 1 20 39
M  V30 END BOND
M  V30 END CTAB
M  END
>  <Dataset>  (731) 
ChEMBL_Kinases

>  <Ligand_Instance>  (731) 
nan

>  <PDB_ID>  (731) 
nan

>  <Standardized_SMILES>  (731) 
CCc1nc(-c2cccc(C)c2)c(-c2ccnc(C)c2)s1

>  <Name>  (731) 
nan

>  <Pocket>  (731) 
nan

>  <ATP_Site>  (731) 
nan

>  <Peripheral>  (731) 
nan

>  <Num_H_Atoms_ProtBoundConf>  (731) 
nan

>  <Num_Resolved_Atoms>  (731) 
nan

>  <Num_Not_Resolved_Atoms>  (731) 
nan

$$$$
CHEMBL3728557
     RDKit          3D

  0  0  0  0  0  0  0  0  0  0999 V3000
M  V30 BEGIN CTAB
M  V30 COUNTS 54 57 0 0 0
M  V30 BEGIN ATOM
M  V30 1 C 3.083683 -3.258841 6.272503 0
M  V30 2 C 3.807130 -2.999311 4.963735 0
M  V30 3 C 4.877777 -1.974343 5.271006 0
M  V30 4 C 4.533068 -4.233619 4.480299 0
M  V30 5 C 2.909804 -2.524960 3.904669 0
M  V30 6 C 2.759777 -1.139940 3.831776 0
M  V30 7 C 1.930375 -0.619224 2.859486 0
M  V30 8 C 1.249421 -1.416988 1.963481 0
M  V30 9 C 0.389487 -0.828003 0.959376 0
M  V30 10 C 0.085507 0.439596 0.688924 0
M  V30 11 C -0.770020 0.732134 -0.333420 0
M  V30 12 N -1.220994 1.915711 -0.790217 0
M  V30 13 C -2.072003 2.011122 -1.822787 0
M  V30 14 C -2.470059 3.359188 -2.201674 0
M  V30 15 C -2.026408 4.490657 -1.568616 0
M  V30 16 C -2.446824 5.755263 -1.981363 0
M  V30 17 N -3.299183 5.874444 -3.013965 0
M  V30 18 C -3.757981 4.790010 -3.661785 0
M  V30 19 C -3.330962 3.548773 -3.239086 0
M  V30 20 N -2.573715 0.952479 -2.520468 0
M  V30 21 C -2.163625 -0.262004 -2.116099 0
M  V30 22 N -2.586599 -1.469525 -2.729237 0
M  V30 23 C -3.503483 -1.346266 -3.840137 0
M  V30 24 C -3.874309 -2.709730 -4.401517 0
M  V30 25 N -4.510916 -3.528859 -3.386776 0
M  V30 26 C -1.285501 -0.360759 -1.050647 0
M  V30 27 S -0.536633 -1.791422 -0.249424 0
M  V30 28 C 1.391774 -2.787166 2.028171 0
M  V30 29 C 2.220074 -3.315581 2.998482 0
M  V30 30 H 3.588488 -2.798503 7.145847 0
M  V30 31 H 2.050206 -2.837909 6.247269 0
M  V30 32 H 3.004629 -4.334590 6.488152 0
M  V30 33 H 4.527658 -1.157659 5.930199 0
M  V30 34 H 5.690042 -2.502820 5.846565 0
M  V30 35 H 5.394163 -1.606011 4.353729 0
M  V30 36 H 5.065781 -3.936583 3.551920 0
M  V30 37 H 3.884281 -5.079257 4.248985 0
M  V30 38 H 5.357343 -4.506351 5.197653 0
M  V30 39 H 3.245163 -0.434002 4.481420 0
M  V30 40 H 1.781650 0.444097 2.762556 0
M  V30 41 H 0.538122 1.212841 1.303812 0
M  V30 42 H -1.336412 4.388100 -0.733244 0
M  V30 43 H -2.088156 6.619562 -1.473557 0
M  V30 44 H -4.446799 4.875290 -4.497095 0
M  V30 45 H -3.706083 2.669008 -3.768226 0
M  V30 46 H -2.259047 -2.402031 -2.403082 0
M  V30 47 H -4.452050 -0.926862 -3.426154 0
M  V30 48 H -3.105283 -0.734745 -4.667815 0
M  V30 49 H -4.625819 -2.503438 -5.197370 0
M  V30 50 H -2.978585 -3.222286 -4.828106 0
M  V30 51 H -5.429940 -3.888487 -3.732189 0
M  V30 52 H -3.859320 -4.315669 -3.172811 0
M  V30 53 H 0.881780 -3.464406 1.350698 0
M  V30 54 H 2.360486 -4.383578 3.084853 0
M  V30 END ATOM
M  V30 BEGIN BOND
M  V30 1 1 1 2
M  V30 2 1 2 3
M  V30 3 1 2 4
M  V30 4 1 2 5
M  V30 5 2 5 6
M  V30 6 1 6 7
M  V30 7 2 7 8
M  V30 8 1 8 9
M  V30 9 2 9 10
M  V30 10 1 10 11
M  V30 11 2 11 12
M  V30 12 1 12 13
M  V30 13 1 13 14
M  V30 14 2 14 15
M  V30 15 1 15 16
M  V30 16 2 16 17
M  V30 17 1 17 18
M  V30 18 2 18 19
M  V30 19 2 13 20
M  V30 20 1 20 21
M  V30 21 1 21 22
M  V30 22 1 22 23
M  V30 23 1 23 24
M  V30 24 1 24 25
M  V30 25 2 21 26
M  V30 26 1 26 27
M  V30 27 1 8 28
M  V30 28 2 28 29
M  V30 29 1 29 5
M  V30 30 1 27 9
M  V30 31 1 26 11
M  V30 32 1 19 14
M  V30 33 1 1 30
M  V30 34 1 1 31
M  V30 35 1 1 32
M  V30 36 1 3 33
M  V30 37 1 3 34
M  V30 38 1 3 35
M  V30 39 1 4 36
M  V30 40 1 4 37
M  V30 41 1 4 38
M  V30 42 1 6 39
M  V30 43 1 7 40
M  V30 44 1 10 41
M  V30 45 1 15 42
M  V30 46 1 16 43
M  V30 47 1 18 44
M  V30 48 1 19 45
M  V30 49 1 22 46
M  V30 50 1 23 47
M  V30 51 1 23 48
M  V30 52 1 24 49
M  V30 53 1 24 50
M  V30 54 1 25 51
M  V30 55 1 25 52
M  V30 56 1 28 53
M  V30 57 1 29 54
M  V30 END BOND
M  V30 END CTAB
M  END
>  <Dataset>  (732) 
ChEMBL_Kinases

>  <Ligand_Instance>  (732) 
nan

>  <PDB_ID>  (732) 
nan

>  <Standardized_SMILES>  (732) 
CC(C)(C)c1ccc(-c2cc3nc(-c4ccncc4)nc(NCCN)c3s2)cc1

>  <Name>  (732) 
nan

>  <Pocket>  (732) 
nan

>  <ATP_Site>  (732) 
nan

>  <Peripheral>  (732) 
nan

>  <Num_H_Atoms_ProtBoundConf>  (732) 
nan

>  <Num_Resolved_Atoms>  (732) 
nan

>  <Num_Not_Resolved_Atoms>  (732) 
nan

$$$$
CHEMBL3728543
     RDKit          3D

  0  0  0  0  0  0  0  0  0  0999 V3000
M  V30 BEGIN CTAB
M  V30 COUNTS 37 40 0 0 0
M  V30 BEGIN ATOM
M  V30 1 O -1.145022 1.448148 5.195370 0
M  V30 2 C -0.365754 1.005083 4.304480 0
M  V30 3 N 1.023546 0.782272 4.494853 0
M  V30 4 C 1.758549 0.277663 3.383480 0
M  V30 5 N 2.857700 -0.364859 3.285551 0
M  V30 6 C 3.258754 -0.691206 1.940351 0
M  V30 7 C 3.229057 -2.075627 1.742729 0
M  V30 8 C 3.572768 -2.615632 0.519661 0
M  V30 9 C 3.946291 -1.740186 -0.499706 0
M  V30 10 C 3.974779 -0.371283 -0.301172 0
M  V30 11 C 3.630269 0.158965 0.921601 0
M  V30 12 Br 3.602831 2.001073 1.396410 0
M  V30 13 S 0.697094 0.782439 1.996824 0
M  V30 14 C -0.840390 0.673428 2.961441 0
M  V30 15 C -2.032601 0.374405 2.478871 0
M  V30 16 C -2.258426 0.070318 1.064326 0
M  V30 17 C -3.355713 0.547816 0.381805 0
M  V30 18 C -3.547442 0.223120 -0.966360 0
M  V30 19 C -2.606966 -0.580193 -1.568106 0
M  V30 20 N -2.791060 -0.894868 -2.866266 0
M  V30 21 C -1.927159 -1.675034 -3.542534 0
M  V30 22 C -0.808258 -2.180452 -2.902483 0
M  V30 23 C -0.552541 -1.899824 -1.568310 0
M  V30 24 C -1.488669 -1.087094 -0.934544 0
M  V30 25 C -1.323647 -0.745603 0.412992 0
M  V30 26 H 1.512721 0.975495 5.423142 0
M  V30 27 H 2.950311 -2.821713 2.483094 0
M  V30 28 H 3.574687 -3.662056 0.293450 0
M  V30 29 H 4.231556 -2.081132 -1.495712 0
M  V30 30 H 4.255373 0.358682 -1.050271 0
M  V30 31 H -2.838170 0.370122 3.223170 0
M  V30 32 H -4.084816 1.178449 0.873315 0
M  V30 33 H -4.391290 0.573292 -1.544328 0
M  V30 34 H -1.950924 -2.001654 -4.571379 0
M  V30 35 H -0.044791 -2.822531 -3.355570 0
M  V30 36 H 0.313634 -2.279489 -1.038094 0
M  V30 37 H -0.438634 -1.166760 0.870889 0
M  V30 END ATOM
M  V30 BEGIN BOND
M  V30 1 2 1 2
M  V30 2 1 2 3
M  V30 3 1 3 4
M  V30 4 2 4 5
M  V30 5 1 5 6
M  V30 6 2 6 7
M  V30 7 1 7 8
M  V30 8 2 8 9
M  V30 9 1 9 10
M  V30 10 2 10 11
M  V30 11 1 11 12
M  V30 12 1 4 13
M  V30 13 1 13 14
M  V30 14 2 14 15
M  V30 15 1 15 16
M  V30 16 2 16 17
M  V30 17 1 17 18
M  V30 18 2 18 19
M  V30 19 1 19 20
M  V30 20 2 20 21
M  V30 21 1 21 22
M  V30 22 2 22 23
M  V30 23 1 23 24
M  V30 24 2 24 25
M  V30 25 1 14 2
M  V30 26 1 25 16
M  V30 27 1 11 6
M  V30 28 1 24 19
M  V30 29 1 3 26
M  V30 30 1 7 27
M  V30 31 1 8 28
M  V30 32 1 9 29
M  V30 33 1 10 30
M  V30 34 1 15 31
M  V30 35 1 17 32
M  V30 36 1 18 33
M  V30 37 1 21 34
M  V30 38 1 22 35
M  V30 39 1 23 36
M  V30 40 1 25 37
M  V30 END BOND
M  V30 END CTAB
M  END
>  <Dataset>  (733) 
ChEMBL_Kinases

>  <Ligand_Instance>  (733) 
nan

>  <PDB_ID>  (733) 
nan

>  <Standardized_SMILES>  (733) 
O=C1N/C(=N/c2ccccc2Br)S/C1=C\c1ccc2ncccc2c1

>  <Name>  (733) 
nan

>  <Pocket>  (733) 
nan

>  <ATP_Site>  (733) 
nan

>  <Peripheral>  (733) 
nan

>  <Num_H_Atoms_ProtBoundConf>  (733) 
nan

>  <Num_Resolved_Atoms>  (733) 
nan

>  <Num_Not_Resolved_Atoms>  (733) 
nan

$$$$
CHEMBL572779
     RDKit          3D

  0  0  0  0  0  0  0  0  0  0999 V3000
M  V30 BEGIN CTAB
M  V30 COUNTS 40 43 0 0 0
M  V30 BEGIN ATOM
M  V30 1 C 1.859536 -5.332464 4.432790 0
M  V30 2 C 2.186554 -4.588356 3.205061 0
M  V30 3 O 2.795180 -5.171734 2.245472 0
M  V30 4 C 1.824200 -3.182494 3.063563 0
M  V30 5 C 1.165120 -2.467614 4.046750 0
M  V30 6 C 0.823577 -1.156243 3.922606 0
M  V30 7 C 1.132737 -0.456779 2.764539 0
M  V30 8 C 0.800927 0.941599 2.560324 0
M  V30 9 C 0.961955 1.993616 3.445563 0
M  V30 10 O 0.539836 3.111946 2.885464 0
M  V30 11 C 0.099361 2.899964 1.674729 0
M  V30 12 C -0.436288 3.759645 0.709918 0
M  V30 13 C -0.818833 3.198545 -0.512809 0
M  V30 14 C -0.679727 1.850852 -0.772930 0
M  V30 15 C -1.075161 1.253884 -2.044452 0
M  V30 16 C -1.620320 1.931410 -3.116066 0
M  V30 17 C -1.844116 0.981137 -4.113741 0
M  V30 18 C -1.412885 -0.234902 -3.574890 0
M  V30 19 C -1.498188 -1.499802 -4.365032 0
M  V30 20 O -0.979962 0.006104 -2.370170 0
M  V30 21 C -0.144005 1.060232 0.223438 0
M  V30 22 C 0.249647 1.561737 1.447174 0
M  V30 23 C 1.788389 -1.150513 1.774736 0
M  V30 24 C 2.135687 -2.493850 1.907620 0
M  V30 25 H 2.536403 -6.217895 4.577504 0
M  V30 26 H 2.128659 -4.650471 5.290128 0
M  V30 27 H 0.807367 -5.651284 4.489380 0
M  V30 28 H 0.914397 -3.001012 4.963095 0
M  V30 29 H 0.310355 -0.590412 4.682038 0
M  V30 30 H 1.382133 1.861015 4.448457 0
M  V30 31 H -0.551363 4.817728 0.899306 0
M  V30 32 H -1.242162 3.816910 -1.303029 0
M  V30 33 H -1.828526 2.993176 -3.160731 0
M  V30 34 H -2.273847 1.219079 -5.092925 0
M  V30 35 H -1.569098 -2.346754 -3.627206 0
M  V30 36 H -2.406222 -1.518232 -4.975875 0
M  V30 37 H -0.548980 -1.631135 -4.898472 0
M  V30 38 H -0.042588 0.010041 0.003177 0
M  V30 39 H 2.087129 -0.728214 0.826593 0
M  V30 40 H 2.646604 -3.046906 1.144727 0
M  V30 END ATOM
M  V30 BEGIN BOND
M  V30 1 1 1 2
M  V30 2 2 2 3
M  V30 3 1 2 4
M  V30 4 2 4 5
M  V30 5 1 5 6
M  V30 6 2 6 7
M  V30 7 1 7 8
M  V30 8 2 8 9
M  V30 9 1 9 10
M  V30 10 1 10 11
M  V30 11 2 11 12
M  V30 12 1 12 13
M  V30 13 2 13 14
M  V30 14 1 14 15
M  V30 15 2 15 16
M  V30 16 1 16 17
M  V30 17 2 17 18
M  V30 18 1 18 19
M  V30 19 1 18 20
M  V30 20 1 14 21
M  V30 21 2 21 22
M  V30 22 1 7 23
M  V30 23 2 23 24
M  V30 24 1 24 4
M  V30 25 1 22 8
M  V30 26 1 22 11
M  V30 27 1 20 15
M  V30 28 1 1 25
M  V30 29 1 1 26
M  V30 30 1 1 27
M  V30 31 1 5 28
M  V30 32 1 6 29
M  V30 33 1 9 30
M  V30 34 1 12 31
M  V30 35 1 13 32
M  V30 36 1 16 33
M  V30 37 1 17 34
M  V30 38 1 19 35
M  V30 39 1 19 36
M  V30 40 1 19 37
M  V30 41 1 21 38
M  V30 42 1 23 39
M  V30 43 1 24 40
M  V30 END BOND
M  V30 END CTAB
M  END
>  <Dataset>  (734) 
ChEMBL_Kinases

>  <Ligand_Instance>  (734) 
nan

>  <PDB_ID>  (734) 
nan

>  <Standardized_SMILES>  (734) 
CC(=O)c1ccc(-c2coc3ccc(-c4ccc(C)o4)cc23)cc1

>  <Name>  (734) 
nan

>  <Pocket>  (734) 
nan

>  <ATP_Site>  (734) 
nan

>  <Peripheral>  (734) 
nan

>  <Num_H_Atoms_ProtBoundConf>  (734) 
nan

>  <Num_Resolved_Atoms>  (734) 
nan

>  <Num_Not_Resolved_Atoms>  (734) 
nan

$$$$
CHEMBL3728535
     RDKit          3D

  0  0  0  0  0  0  0  0  0  0999 V3000
M  V30 BEGIN CTAB
M  V30 COUNTS 40 43 0 0 0
M  V30 BEGIN ATOM
M  V30 1 N 0.456868 -4.114882 -0.004149 0
M  V30 2 C 1.629282 -3.276390 -0.047175 0
M  V30 3 C 1.846144 -2.689229 1.333898 0
M  V30 4 N 0.726129 -1.898359 1.770071 0
M  V30 5 C 0.346524 -0.721785 1.069240 0
M  V30 6 N 1.117955 -0.406630 0.032508 0
M  V30 7 C 1.023134 0.636991 -0.781414 0
M  V30 8 C 1.908632 0.913856 -1.897160 0
M  V30 9 C 2.949828 0.051937 -2.174779 0
M  V30 10 C 3.772208 0.366520 -3.260719 0
M  V30 11 N 3.564806 1.464753 -4.012151 0
M  V30 12 C 2.546794 2.293175 -3.728249 0
M  V30 13 C 1.686381 2.042392 -2.660311 0
M  V30 14 N 0.000530 1.452383 -0.479424 0
M  V30 15 C -0.825311 1.200674 0.555319 0
M  V30 16 S -2.205520 2.122526 1.127943 0
M  V30 17 C -2.597465 0.974374 2.514419 0
M  V30 18 C -1.640166 0.006806 2.401139 0
M  V30 19 C -0.708117 0.093127 1.401513 0
M  V30 20 C -1.948326 -0.943190 3.496375 0
M  V30 21 C -1.610246 -0.329806 4.859027 0
M  V30 22 S -2.981268 0.858937 5.152212 0
M  V30 23 C -3.676154 1.119732 3.473123 0
M  V30 24 H 0.180344 -4.343748 0.997743 0
M  V30 25 H -0.366243 -3.628555 -0.427209 0
M  V30 26 H 1.638524 -2.534497 -0.854606 0
M  V30 27 H 2.494198 -3.966196 -0.266947 0
M  V30 28 H 2.730329 -1.997760 1.250343 0
M  V30 29 H 2.173018 -3.470266 2.030127 0
M  V30 30 H 0.406122 -2.418928 2.600121 0
M  V30 31 H 3.163505 -0.842275 -1.607000 0
M  V30 32 H 4.586439 -0.316383 -3.470101 0
M  V30 33 H 2.425150 3.168181 -4.370003 0
M  V30 34 H 0.871932 2.719285 -2.445469 0
M  V30 35 H -1.491200 -1.913464 3.460362 0
M  V30 36 H -3.076105 -1.145406 3.563172 0
M  V30 37 H -0.683967 0.245823 4.827709 0
M  V30 38 H -1.650081 -1.137440 5.588719 0
M  V30 39 H -4.107925 2.133212 3.416465 0
M  V30 40 H -4.473202 0.382061 3.271146 0
M  V30 END ATOM
M  V30 BEGIN BOND
M  V30 1 1 1 2
M  V30 2 1 2 3
M  V30 3 1 3 4
M  V30 4 1 4 5
M  V30 5 2 5 6
M  V30 6 1 6 7
M  V30 7 1 7 8
M  V30 8 2 8 9
M  V30 9 1 9 10
M  V30 10 2 10 11
M  V30 11 1 11 12
M  V30 12 2 12 13
M  V30 13 2 7 14
M  V30 14 1 14 15
M  V30 15 1 15 16
M  V30 16 1 16 17
M  V30 17 2 17 18
M  V30 18 1 18 19
M  V30 19 1 18 20
M  V30 20 1 20 21
M  V30 21 1 21 22
M  V30 22 1 22 23
M  V30 23 1 19 5
M  V30 24 1 13 8
M  V30 25 2 19 15
M  V30 26 1 23 17
M  V30 27 1 1 24
M  V30 28 1 1 25
M  V30 29 1 2 26
M  V30 30 1 2 27
M  V30 31 1 3 28
M  V30 32 1 3 29
M  V30 33 1 4 30
M  V30 34 1 9 31
M  V30 35 1 10 32
M  V30 36 1 12 33
M  V30 37 1 13 34
M  V30 38 1 20 35
M  V30 39 1 20 36
M  V30 40 1 21 37
M  V30 41 1 21 38
M  V30 42 1 23 39
M  V30 43 1 23 40
M  V30 END BOND
M  V30 END CTAB
M  END
>  <Dataset>  (735) 
ChEMBL_Kinases

>  <Ligand_Instance>  (735) 
nan

>  <PDB_ID>  (735) 
nan

>  <Standardized_SMILES>  (735) 
NCCNc1nc(-c2ccncc2)nc2sc3c(c12)CCSC3

>  <Name>  (735) 
nan

>  <Pocket>  (735) 
nan

>  <ATP_Site>  (735) 
nan

>  <Peripheral>  (735) 
nan

>  <Num_H_Atoms_ProtBoundConf>  (735) 
nan

>  <Num_Resolved_Atoms>  (735) 
nan

>  <Num_Not_Resolved_Atoms>  (735) 
nan

$$$$
CHEMBL3728531
     RDKit          3D

  0  0  0  0  0  0  0  0  0  0999 V3000
M  V30 BEGIN CTAB
M  V30 COUNTS 48 50 0 0 0
M  V30 BEGIN ATOM
M  V30 1 C -1.407191 -5.714783 0.028643 0
M  V30 2 O -0.441019 -5.778725 -1.016175 0
M  V30 3 C 0.389363 -4.684006 -1.248932 0
M  V30 4 C 0.293544 -3.537470 -0.485577 0
M  V30 5 C 1.104572 -2.450735 -0.702771 0
M  V30 6 C 2.030775 -2.567593 -1.736500 0
M  V30 7 O 2.869884 -1.463144 -1.972707 0
M  V30 8 C 2.720032 -0.338644 -1.166330 0
M  V30 9 C 3.414169 -0.161462 0.012080 0
M  V30 10 C 3.224512 0.973475 0.769754 0
M  V30 11 C 2.343518 1.938720 0.359930 0
M  V30 12 C 1.612077 1.824593 -0.815622 0
M  V30 13 N 0.674400 2.805246 -1.294441 0
M  V30 14 C 0.421159 4.002165 -0.527201 0
M  V30 15 C -0.258296 3.702251 0.747847 0
M  V30 16 O -0.531795 4.648570 1.557890 0
M  V30 17 N -0.634506 2.395291 1.132193 0
M  V30 18 N -1.178479 1.401761 1.943389 0
M  V30 19 C -1.889527 1.635349 2.988559 0
M  V30 20 C -2.444489 0.568920 3.816697 0
M  V30 21 C -3.195070 0.935405 4.918691 0
M  V30 22 C -3.711867 -0.111160 5.690045 0
M  V30 23 N -3.477804 -1.412755 5.357872 0
M  V30 24 C -2.738118 -1.698134 4.271124 0
M  V30 25 C -2.181381 -0.733331 3.441783 0
M  V30 26 C 1.850945 0.668220 -1.520735 0
M  V30 27 C 2.137746 -3.700507 -2.503603 0
M  V30 28 C 1.318874 -4.796557 -2.283605 0
M  V30 29 H -0.851713 -5.732863 0.989665 0
M  V30 30 H -1.993860 -4.776092 -0.088880 0
M  V30 31 H -2.064622 -6.600254 -0.082565 0
M  V30 32 H -0.438737 -3.489522 0.306025 0
M  V30 33 H 1.027235 -1.561696 -0.107773 0
M  V30 34 H 4.116676 -0.921958 0.347488 0
M  V30 35 H 3.759483 1.132549 1.698610 0
M  V30 36 H 2.189203 2.834616 0.951353 0
M  V30 37 H 0.206022 2.618254 -2.184582 0
M  V30 38 H -0.189778 4.685737 -1.152073 0
M  V30 39 H 1.379751 4.539260 -0.331940 0
M  V30 40 H -0.473005 1.561313 0.529226 0
M  V30 41 H -2.044311 2.685621 3.206286 0
M  V30 42 H -3.387430 1.957774 5.192165 0
M  V30 43 H -4.304665 0.184007 6.560396 0
M  V30 44 H -2.541041 -2.744519 3.990925 0
M  V30 45 H -1.595065 -0.991409 2.580814 0
M  V30 46 H 1.309880 0.523357 -2.445499 0
M  V30 47 H 2.874830 -3.765685 -3.310199 0
M  V30 48 H 1.449146 -5.656659 -2.917016 0
M  V30 END ATOM
M  V30 BEGIN BOND
M  V30 1 1 1 2
M  V30 2 1 2 3
M  V30 3 2 3 4
M  V30 4 1 4 5
M  V30 5 2 5 6
M  V30 6 1 6 7
M  V30 7 1 7 8
M  V30 8 2 8 9
M  V30 9 1 9 10
M  V30 10 2 10 11
M  V30 11 1 11 12
M  V30 12 1 12 13
M  V30 13 1 13 14
M  V30 14 1 14 15
M  V30 15 2 15 16
M  V30 16 1 15 17
M  V30 17 1 17 18
M  V30 18 2 18 19
M  V30 19 1 19 20
M  V30 20 2 20 21
M  V30 21 1 21 22
M  V30 22 2 22 23
M  V30 23 1 23 24
M  V30 24 2 24 25
M  V30 25 2 12 26
M  V30 26 1 6 27
M  V30 27 2 27 28
M  V30 28 1 28 3
M  V30 29 1 26 8
M  V30 30 1 25 20
M  V30 31 1 1 29
M  V30 32 1 1 30
M  V30 33 1 1 31
M  V30 34 1 4 32
M  V30 35 1 5 33
M  V30 36 1 9 34
M  V30 37 1 10 35
M  V30 38 1 11 36
M  V30 39 1 13 37
M  V30 40 1 14 38
M  V30 41 1 14 39
M  V30 42 1 17 40
M  V30 43 1 19 41
M  V30 44 1 21 42
M  V30 45 1 22 43
M  V30 46 1 24 44
M  V30 47 1 25 45
M  V30 48 1 26 46
M  V30 49 1 27 47
M  V30 50 1 28 48
M  V30 END BOND
M  V30 END CTAB
M  END
>  <Dataset>  (736) 
ChEMBL_Kinases

>  <Ligand_Instance>  (736) 
nan

>  <PDB_ID>  (736) 
nan

>  <Standardized_SMILES>  (736) 
COc1ccc(Oc2cccc(NCC(=O)N/N=C/c3ccncc3)c2)cc1

>  <Name>  (736) 
nan

>  <Pocket>  (736) 
nan

>  <ATP_Site>  (736) 
nan

>  <Peripheral>  (736) 
nan

>  <Num_H_Atoms_ProtBoundConf>  (736) 
nan

>  <Num_Resolved_Atoms>  (736) 
nan

>  <Num_Not_Resolved_Atoms>  (736) 
nan

$$$$
CHEMBL3728500
     RDKit          3D

  0  0  0  0  0  0  0  0  0  0999 V3000
M  V30 BEGIN CTAB
M  V30 COUNTS 54 58 0 0 0
M  V30 BEGIN ATOM
M  V30 1 N 2.646456 -2.688301 2.699541 0
M  V30 2 C 1.993765 -2.983594 1.412934 0 CFG=2
M  V30 3 C 0.619549 -3.496093 1.778448 0
M  V30 4 N -0.069766 -2.463541 2.514806 0
M  V30 5 C -0.406962 -1.232044 1.895551 0
M  V30 6 N -0.116150 -0.967617 0.587782 0
M  V30 7 C -0.510146 0.247183 0.138437 0
M  V30 8 C -0.218408 0.582588 -1.272726 0
M  V30 9 C 0.434594 -0.388250 -2.001407 0
M  V30 10 C 0.714955 -0.079502 -3.338262 0
M  V30 11 N 0.353996 1.114346 -3.862982 0
M  V30 12 C -0.280713 2.031212 -3.116917 0
M  V30 13 C -0.592933 1.803978 -1.792704 0
M  V30 14 F -1.233060 2.724297 -1.034120 0
M  V30 15 N -1.143250 1.153652 0.892710 0
M  V30 16 C -1.446208 0.928373 2.184232 0
M  V30 17 C -2.087879 1.841363 2.956789 0
M  V30 18 C -2.573991 3.174085 2.637813 0
M  V30 19 C -1.742494 4.018644 1.931512 0
M  V30 20 C -2.115238 5.293329 1.583978 0
M  V30 21 N -3.359335 5.703846 1.968214 0
M  V30 22 C -4.148815 4.855105 2.657643 0
M  V30 23 C -3.825621 3.562244 3.034352 0
M  V30 24 C -2.309292 1.381884 4.317184 0
M  V30 25 S -1.548944 -0.351879 4.322279 0
M  V30 26 C -1.056787 -0.291302 2.655174 0
M  V30 27 C 2.804870 -4.037895 0.686498 0
M  V30 28 C 2.203270 -4.387347 -0.625716 0
M  V30 29 C 1.283445 -5.417821 -0.648568 0
M  V30 30 C 0.718064 -5.754533 -1.848557 0
M  V30 31 C 1.008268 -5.128287 -3.045086 0
M  V30 32 C 1.931582 -4.104780 -2.978679 0
M  V30 33 C 2.527845 -3.726623 -1.805286 0
M  V30 34 H 2.424790 -3.525898 3.307442 0
M  V30 35 H 2.114396 -1.892217 3.130556 0
M  V30 36 H 1.923164 -2.071335 0.812219 0
M  V30 37 H 0.049472 -3.814367 0.876414 0
M  V30 38 H 0.701051 -4.415589 2.414595 0
M  V30 39 H -0.305350 -2.651343 3.496461 0
M  V30 40 H 0.738062 -1.351254 -1.617707 0
M  V30 41 H 1.223244 -0.808202 -3.943572 0
M  V30 42 H -0.597338 3.015840 -3.488810 0
M  V30 43 H -0.757255 3.720962 1.616209 0
M  V30 44 H -1.507523 5.994047 1.034233 0
M  V30 45 H -5.134062 5.256480 2.931279 0
M  V30 46 H -4.490365 2.935443 3.579566 0
M  V30 47 H -2.835050 1.998092 5.136461 0
M  V30 48 H 3.009887 -4.904348 1.331476 0
M  V30 49 H 3.802847 -3.568655 0.499746 0
M  V30 50 H 0.986471 -5.973452 0.235219 0
M  V30 51 H -0.006435 -6.559353 -1.893934 0
M  V30 52 H 0.582967 -5.367223 -4.005118 0
M  V30 53 H 2.257140 -3.521392 -3.844657 0
M  V30 54 H 3.256181 -2.936409 -1.684247 0
M  V30 END ATOM
M  V30 BEGIN BOND
M  V30 1 1 1 2
M  V30 2 1 2 3
M  V30 3 1 3 4
M  V30 4 1 4 5
M  V30 5 2 5 6
M  V30 6 1 6 7
M  V30 7 1 7 8
M  V30 8 2 8 9
M  V30 9 1 9 10
M  V30 10 2 10 11
M  V30 11 1 11 12
M  V30 12 2 12 13
M  V30 13 1 13 14
M  V30 14 2 7 15
M  V30 15 1 15 16
M  V30 16 1 16 17
M  V30 17 1 17 18
M  V30 18 2 18 19
M  V30 19 1 19 20
M  V30 20 2 20 21
M  V30 21 1 21 22
M  V30 22 2 22 23
M  V30 23 2 17 24
M  V30 24 1 24 25
M  V30 25 1 25 26
M  V30 26 1 2 27
M  V30 27 1 27 28
M  V30 28 2 28 29
M  V30 29 1 29 30
M  V30 30 2 30 31
M  V30 31 1 31 32
M  V30 32 2 32 33
M  V30 33 1 26 5
M  V30 34 1 33 28
M  V30 35 1 13 8
M  V30 36 2 26 16
M  V30 37 1 23 18
M  V30 38 1 1 34
M  V30 39 1 1 35
M  V30 40 1 2 36 CFG=3
M  V30 41 1 3 37
M  V30 42 1 3 38
M  V30 43 1 4 39
M  V30 44 1 9 40
M  V30 45 1 10 41
M  V30 46 1 12 42
M  V30 47 1 19 43
M  V30 48 1 20 44
M  V30 49 1 22 45
M  V30 50 1 23 46
M  V30 51 1 24 47
M  V30 52 1 27 48
M  V30 53 1 27 49
M  V30 54 1 29 50
M  V30 55 1 30 51
M  V30 56 1 31 52
M  V30 57 1 32 53
M  V30 58 1 33 54
M  V30 END BOND
M  V30 END CTAB
M  END
>  <Dataset>  (737) 
ChEMBL_Kinases

>  <Ligand_Instance>  (737) 
nan

>  <PDB_ID>  (737) 
nan

>  <Standardized_SMILES>  (737) 
N[C@H](CNc1nc(-c2ccncc2F)nc2c(-c3ccncc3)csc12)Cc1ccccc1

>  <Name>  (737) 
nan

>  <Pocket>  (737) 
nan

>  <ATP_Site>  (737) 
nan

>  <Peripheral>  (737) 
nan

>  <Num_H_Atoms_ProtBoundConf>  (737) 
nan

>  <Num_Resolved_Atoms>  (737) 
nan

>  <Num_Not_Resolved_Atoms>  (737) 
nan

$$$$
CHEMBL3728477
     RDKit          3D

  0  0  0  0  0  0  0  0  0  0999 V3000
M  V30 BEGIN CTAB
M  V30 COUNTS 38 41 0 0 0
M  V30 BEGIN ATOM
M  V30 1 N 2.265772 -5.531467 3.186791 0
M  V30 2 C 2.003009 -4.430822 2.314014 0
M  V30 3 C 1.474878 -3.216014 3.059511 0
M  V30 4 N 1.219733 -2.140174 2.161927 0
M  V30 5 C 0.969829 -1.084909 1.281403 0
M  V30 6 N 1.714986 -0.389467 0.424251 0
M  V30 7 C 1.129738 0.579765 -0.279662 0
M  V30 8 C 1.973782 1.296753 -1.189324 0
M  V30 9 C 3.310907 1.018508 -1.347432 0
M  V30 10 C 4.084242 1.721788 -2.224661 0
M  V30 11 N 3.508357 2.699833 -2.936860 0
M  V30 12 C 2.207157 3.016605 -2.824742 0
M  V30 13 C 1.422786 2.309072 -1.940281 0
M  V30 14 N -0.141259 0.855565 -0.146248 0
M  V30 15 C -1.026594 0.266065 0.657169 0
M  V30 16 C -0.406732 -0.759206 1.401256 0
M  V30 17 S -1.782808 -1.379936 2.383312 0
M  V30 18 C -3.020596 -0.263576 1.744245 0
M  V30 19 C -4.320083 -0.204847 2.085499 0
M  V30 20 C -5.131583 0.731516 1.480645 0
M  V30 21 C -4.470858 1.520113 0.563055 0
M  V30 22 C -3.147671 1.453717 0.221736 0
M  V30 23 Cl -2.524244 2.575295 -0.987928 0
M  V30 24 C -2.346231 0.517973 0.828916 0
M  V30 25 H 1.846439 -6.426571 2.918684 0
M  V30 26 H 2.283863 -5.293401 4.186885 0
M  V30 27 H 1.364482 -4.740379 1.488238 0
M  V30 28 H 3.006529 -4.097150 1.915114 0
M  V30 29 H 2.183471 -2.936990 3.853682 0
M  V30 30 H 0.491101 -3.513747 3.574362 0
M  V30 31 H 2.265625 -2.184812 1.907458 0
M  V30 32 H 3.728615 0.222254 -0.752283 0
M  V30 33 H 5.132771 1.431418 -2.283193 0
M  V30 34 H 1.787578 3.816518 -3.422970 0
M  V30 35 H 0.373419 2.537690 -1.825526 0
M  V30 36 H -4.718427 -0.877626 2.817632 0
M  V30 37 H -6.156835 0.792802 1.736573 0
M  V30 38 H -5.080427 2.286712 0.050931 0
M  V30 END ATOM
M  V30 BEGIN BOND
M  V30 1 1 1 2
M  V30 2 1 2 3
M  V30 3 1 3 4
M  V30 4 1 4 5
M  V30 5 2 5 6
M  V30 6 1 6 7
M  V30 7 1 7 8
M  V30 8 2 8 9
M  V30 9 1 9 10
M  V30 10 2 10 11
M  V30 11 1 11 12
M  V30 12 2 12 13
M  V30 13 2 7 14
M  V30 14 1 14 15
M  V30 15 2 15 16
M  V30 16 1 16 17
M  V30 17 1 17 18
M  V30 18 2 18 19
M  V30 19 1 19 20
M  V30 20 2 20 21
M  V30 21 1 21 22
M  V30 22 1 22 23
M  V30 23 2 22 24
M  V30 24 1 16 5
M  V30 25 1 24 18
M  V30 26 1 13 8
M  V30 27 1 24 15
M  V30 28 1 1 25
M  V30 29 1 1 26
M  V30 30 1 2 27
M  V30 31 1 2 28
M  V30 32 1 3 29
M  V30 33 1 3 30
M  V30 34 1 4 31
M  V30 35 1 9 32
M  V30 36 1 10 33
M  V30 37 1 12 34
M  V30 38 1 13 35
M  V30 39 1 19 36
M  V30 40 1 20 37
M  V30 41 1 21 38
M  V30 END BOND
M  V30 END CTAB
M  END
>  <Dataset>  (738) 
ChEMBL_Kinases

>  <Ligand_Instance>  (738) 
nan

>  <PDB_ID>  (738) 
nan

>  <Standardized_SMILES>  (738) 
NCCNc1nc(-c2ccncc2)nc2c1sc1cccc(Cl)c12

>  <Name>  (738) 
nan

>  <Pocket>  (738) 
nan

>  <ATP_Site>  (738) 
nan

>  <Peripheral>  (738) 
nan

>  <Num_H_Atoms_ProtBoundConf>  (738) 
nan

>  <Num_Resolved_Atoms>  (738) 
nan

>  <Num_Not_Resolved_Atoms>  (738) 
nan

$$$$
CHEMBL3728474
     RDKit          3D

  0  0  0  0  0  0  0  0  0  0999 V3000
M  V30 BEGIN CTAB
M  V30 COUNTS 50 54 0 0 0
M  V30 BEGIN ATOM
M  V30 1 C 4.496738 -3.851316 4.264681 0
M  V30 2 C 3.530310 -3.267378 3.330479 0
M  V30 3 C 3.095659 -3.947908 2.213169 0
M  V30 4 C 2.194366 -3.484339 1.281684 0
M  V30 5 C 1.837627 -4.375673 0.119146 0
M  V30 6 C 1.654456 -2.227034 1.447558 0
M  V30 7 C 2.131082 -1.604983 2.581060 0
M  V30 8 N 2.980557 -2.061384 3.444621 0
M  V30 9 S 1.279023 0.001167 2.563298 0
M  V30 10 C 0.355702 -0.291025 1.042061 0
M  V30 11 C -0.523356 0.502743 0.387720 0
M  V30 12 N -0.874049 1.799405 0.845255 0
M  V30 13 C 0.268256 2.679532 0.894730 0
M  V30 14 C 0.314540 3.410276 2.212773 0
M  V30 15 C -1.110492 3.547951 2.715071 0
M  V30 16 N -1.968515 4.131178 1.729821 0
M  V30 17 C -2.785700 3.224701 0.993891 0
M  V30 18 C -2.282701 1.807929 1.109146 0
M  V30 19 N -1.095761 0.059503 -0.746882 0
M  V30 20 C -0.722593 -1.193882 -1.145508 0
M  V30 21 C -1.249482 -1.842147 -2.367674 0
M  V30 22 C -2.149880 -1.079943 -3.076256 0
M  V30 23 C -2.699465 -1.594356 -4.231661 0
M  V30 24 N -2.397839 -2.818499 -4.709292 0
M  V30 25 C -1.503256 -3.563487 -3.996211 0
M  V30 26 C -0.931843 -3.085157 -2.836596 0
M  V30 27 N 0.149586 -1.970374 -0.488151 0
M  V30 28 C 0.754802 -1.589043 0.647183 0
M  V30 29 H 5.378597 -3.161116 4.283021 0
M  V30 30 H 4.810760 -4.843826 3.877572 0
M  V30 31 H 4.113696 -4.023235 5.286185 0
M  V30 32 H 3.505103 -4.960766 2.043569 0
M  V30 33 H 2.692262 -5.051744 -0.047999 0
M  V30 34 H 1.776040 -3.758180 -0.816302 0
M  V30 35 H 0.873021 -4.888896 0.292015 0
M  V30 36 H 1.215872 2.158581 0.669905 0
M  V30 37 H 0.202275 3.477949 0.095990 0
M  V30 38 H 0.772611 4.433859 2.054177 0
M  V30 39 H 0.972256 2.936303 2.951949 0
M  V30 40 H -1.032927 4.260957 3.592488 0
M  V30 41 H -1.442271 2.587114 3.127086 0
M  V30 42 H -2.485740 4.979334 2.054318 0
M  V30 43 H -3.845296 3.208236 1.329567 0
M  V30 44 H -2.712403 3.509985 -0.088944 0
M  V30 45 H -2.575371 1.308974 2.055616 0
M  V30 46 H -2.800934 1.207282 0.307290 0
M  V30 47 H -2.477729 -0.083387 -2.803569 0
M  V30 48 H -3.401935 -1.049009 -4.820717 0
M  V30 49 H -1.162005 -4.569944 -4.257341 0
M  V30 50 H -0.222128 -3.636368 -2.241729 0
M  V30 END ATOM
M  V30 BEGIN BOND
M  V30 1 1 1 2
M  V30 2 2 2 3
M  V30 3 1 3 4
M  V30 4 1 4 5
M  V30 5 2 4 6
M  V30 6 1 6 7
M  V30 7 2 7 8
M  V30 8 1 7 9
M  V30 9 1 9 10
M  V30 10 2 10 11
M  V30 11 1 11 12
M  V30 12 1 12 13
M  V30 13 1 13 14
M  V30 14 1 14 15
M  V30 15 1 15 16
M  V30 16 1 16 17
M  V30 17 1 17 18
M  V30 18 1 11 19
M  V30 19 2 19 20
M  V30 20 1 20 21
M  V30 21 2 21 22
M  V30 22 1 22 23
M  V30 23 2 23 24
M  V30 24 1 24 25
M  V30 25 2 25 26
M  V30 26 1 20 27
M  V30 27 2 27 28
M  V30 28 1 8 2
M  V30 29 1 28 10
M  V30 30 1 28 6
M  V30 31 1 18 12
M  V30 32 1 26 21
M  V30 33 1 1 29
M  V30 34 1 1 30
M  V30 35 1 1 31
M  V30 36 1 3 32
M  V30 37 1 5 33
M  V30 38 1 5 34
M  V30 39 1 5 35
M  V30 40 1 13 36
M  V30 41 1 13 37
M  V30 42 1 14 38
M  V30 43 1 14 39
M  V30 44 1 15 40
M  V30 45 1 15 41
M  V30 46 1 16 42
M  V30 47 1 17 43
M  V30 48 1 17 44
M  V30 49 1 18 45
M  V30 50 1 18 46
M  V30 51 1 22 47
M  V30 52 1 23 48
M  V30 53 1 25 49
M  V30 54 1 26 50
M  V30 END BOND
M  V30 END CTAB
M  END
>  <Dataset>  (739) 
ChEMBL_Kinases

>  <Ligand_Instance>  (739) 
nan

>  <PDB_ID>  (739) 
nan

>  <Standardized_SMILES>  (739) 
Cc1cc(C)c2c(n1)sc1c(N3CCCNCC3)nc(-c3ccncc3)nc12

>  <Name>  (739) 
nan

>  <Pocket>  (739) 
nan

>  <ATP_Site>  (739) 
nan

>  <Peripheral>  (739) 
nan

>  <Num_H_Atoms_ProtBoundConf>  (739) 
nan

>  <Num_Resolved_Atoms>  (739) 
nan

>  <Num_Not_Resolved_Atoms>  (739) 
nan

$$$$
CHEMBL3728449
     RDKit          3D

  0  0  0  0  0  0  0  0  0  0999 V3000
M  V30 BEGIN CTAB
M  V30 COUNTS 66 70 0 0 0
M  V30 BEGIN ATOM
M  V30 1 C 2.401206 -3.126431 5.074720 0
M  V30 2 N 1.780219 -3.281367 3.776268 0
M  V30 3 C 1.904081 -2.309479 2.874730 0
M  V30 4 N 2.656934 -1.149777 3.206015 0
M  V30 5 C 4.022015 -1.049193 2.667490 0
M  V30 6 C 4.056723 0.344540 2.027783 0
M  V30 7 O 3.772199 1.318293 2.958726 0
M  V30 8 C 2.468973 1.258232 3.420708 0 CFG=1
M  V30 9 C 1.501978 1.641752 2.388939 0
M  V30 10 C 1.725170 2.835230 1.683730 0
M  V30 11 C 0.784339 3.192321 0.702750 0
M  V30 12 C -0.354305 2.412638 0.404323 0
M  V30 13 O -1.012562 3.078288 -0.582728 0
M  V30 14 C -2.177951 2.773597 -1.276125 0
M  V30 15 C -2.002294 1.521854 -2.066125 0
M  V30 16 N -3.188440 1.152934 -2.813498 0
M  V30 17 C -4.259465 0.738074 -1.938883 0
M  V30 18 C -4.960263 -0.433705 -2.569503 0
M  V30 19 O -5.120278 -0.323219 -3.943852 0
M  V30 20 C -3.918608 -0.246648 -4.641954 0
M  V30 21 C -2.824307 0.019221 -3.636282 0
M  V30 22 C -0.490596 1.265126 1.142522 0
M  V30 23 C 0.400596 0.875041 2.109558 0
M  V30 24 C 2.202529 -0.061493 4.042525 0
M  V30 25 N 1.335799 -2.439550 1.677696 0
M  V30 26 C 0.624341 -3.490833 1.272255 0
M  V30 27 C 0.079882 -3.489715 -0.052260 0
M  V30 28 C 0.319091 -2.381430 -0.857922 0
M  V30 29 C -0.147487 -2.270022 -2.146147 0
M  V30 30 N -0.874145 -3.268599 -2.678126 0
M  V30 31 C -1.151321 -4.372083 -1.971408 0
M  V30 32 C -0.663452 -4.438465 -0.687197 0
M  V30 33 F -0.961233 -5.560096 -0.004671 0
M  V30 34 C 0.522538 -4.463374 2.227807 0
M  V30 35 C 1.076240 -4.405210 3.479532 0
M  V30 36 O 0.936587 -5.340346 4.300297 0
M  V30 37 H 2.382417 -4.069773 5.651437 0
M  V30 38 H 1.824821 -2.355397 5.651761 0
M  V30 39 H 3.418927 -2.758544 4.959695 0
M  V30 40 H 4.742938 -1.061439 3.501810 0
M  V30 41 H 4.226733 -1.851899 1.957719 0
M  V30 42 H 4.983877 0.451164 1.479327 0
M  V30 43 H 3.215075 0.311150 1.277572 0
M  V30 44 H 2.368081 2.071696 4.219194 0
M  V30 45 H 2.606430 3.402820 1.941433 0
M  V30 46 H 1.107670 4.147765 0.248887 0
M  V30 47 H -3.081923 2.750734 -0.620852 0
M  V30 48 H -2.367427 3.597235 -2.024627 0
M  V30 49 H -1.762952 0.682263 -1.424440 0
M  V30 50 H -1.176993 1.750004 -2.805832 0
M  V30 51 H -3.752030 0.336984 -1.012323 0
M  V30 52 H -4.953831 1.552680 -1.654602 0
M  V30 53 H -6.005829 -0.481667 -2.158543 0
M  V30 54 H -4.460889 -1.407198 -2.354087 0
M  V30 55 H -3.893614 0.627337 -5.348746 0
M  V30 56 H -3.676102 -1.191620 -5.158392 0
M  V30 57 H -2.612749 -0.828600 -2.959135 0
M  V30 58 H -1.867081 0.300349 -4.128012 0
M  V30 59 H -1.386913 0.741987 0.857208 0
M  V30 60 H 0.142198 -0.036769 2.578958 0
M  V30 61 H 1.124831 -0.198704 4.317345 0
M  V30 62 H 2.763143 -0.138604 5.020900 0
M  V30 63 H 0.901626 -1.512229 -0.517246 0
M  V30 64 H 0.045761 -1.411535 -2.752561 0
M  V30 65 H -1.732977 -5.172831 -2.400476 0
M  V30 66 H -0.031169 -5.347762 2.002172 0
M  V30 END ATOM
M  V30 BEGIN BOND
M  V30 1 1 1 2
M  V30 2 1 2 3
M  V30 3 1 3 4
M  V30 4 1 4 5
M  V30 5 1 5 6
M  V30 6 1 6 7
M  V30 7 1 7 8
M  V30 8 1 8 9
M  V30 9 2 9 10
M  V30 10 1 10 11
M  V30 11 2 11 12
M  V30 12 1 12 13
M  V30 13 1 13 14
M  V30 14 1 14 15
M  V30 15 1 15 16
M  V30 16 1 16 17
M  V30 17 1 17 18
M  V30 18 1 18 19
M  V30 19 1 19 20
M  V30 20 1 20 21
M  V30 21 1 12 22
M  V30 22 2 22 23
M  V30 23 1 8 24
M  V30 24 2 3 25
M  V30 25 1 25 26
M  V30 26 1 26 27
M  V30 27 2 27 28
M  V30 28 1 28 29
M  V30 29 2 29 30
M  V30 30 1 30 31
M  V30 31 2 31 32
M  V30 32 1 32 33
M  V30 33 2 26 34
M  V30 34 1 34 35
M  V30 35 2 35 36
M  V30 36 1 35 2
M  V30 37 1 24 4
M  V30 38 1 32 27
M  V30 39 1 23 9
M  V30 40 1 21 16
M  V30 41 1 1 37
M  V30 42 1 1 38
M  V30 43 1 1 39
M  V30 44 1 5 40
M  V30 45 1 5 41
M  V30 46 1 6 42
M  V30 47 1 6 43
M  V30 48 1 8 44 CFG=1
M  V30 49 1 10 45
M  V30 50 1 11 46
M  V30 51 1 14 47
M  V30 52 1 14 48
M  V30 53 1 15 49
M  V30 54 1 15 50
M  V30 55 1 17 51
M  V30 56 1 17 52
M  V30 57 1 18 53
M  V30 58 1 18 54
M  V30 59 1 20 55
M  V30 60 1 20 56
M  V30 61 1 21 57
M  V30 62 1 21 58
M  V30 63 1 22 59
M  V30 64 1 23 60
M  V30 65 1 24 61
M  V30 66 1 24 62
M  V30 67 1 28 63
M  V30 68 1 29 64
M  V30 69 1 31 65
M  V30 70 1 34 66
M  V30 END BOND
M  V30 END CTAB
M  END
>  <Dataset>  (740) 
ChEMBL_Kinases

>  <Ligand_Instance>  (740) 
nan

>  <PDB_ID>  (740) 
nan

>  <Standardized_SMILES>  (740) 
Cn1c(N2CCO[C@@H](c3ccc(OCCN4CCOCC4)cc3)C2)nc(-c2ccncc2F)cc1=O

>  <Name>  (740) 
nan

>  <Pocket>  (740) 
nan

>  <ATP_Site>  (740) 
nan

>  <Peripheral>  (740) 
nan

>  <Num_H_Atoms_ProtBoundConf>  (740) 
nan

>  <Num_Resolved_Atoms>  (740) 
nan

>  <Num_Not_Resolved_Atoms>  (740) 
nan

$$$$
CHEMBL554295
     RDKit          3D

  0  0  0  0  0  0  0  0  0  0999 V3000
M  V30 BEGIN CTAB
M  V30 COUNTS 38 40 0 0 0
M  V30 BEGIN ATOM
M  V30 1 O -0.685805 -0.929799 4.797496 0
M  V30 2 C 0.164956 -0.836579 3.917476 0
M  V30 3 S 1.535109 -1.996121 3.633335 0
M  V30 4 N 2.185647 -1.031295 2.187283 0
M  V30 5 C 3.331884 -1.458312 1.480986 0
M  V30 6 C 3.041461 -2.372221 0.328170 0
M  V30 7 C 2.181841 -1.805544 -0.712905 0
M  V30 8 C 2.906369 -1.149712 -1.713577 0
M  V30 9 C 2.282887 -0.540530 -2.797007 0
M  V30 10 C 0.915840 -0.578271 -2.896796 0
M  V30 11 C 0.196254 -1.218071 -1.922103 0
M  V30 12 C 0.808033 -1.828116 -0.838632 0
M  V30 13 C 1.352322 -0.016841 2.092517 0
M  V30 14 O 1.591270 0.796019 1.164578 0
M  V30 15 N 0.329460 0.110558 2.943453 0
M  V30 16 C -0.632963 1.213628 2.895815 0
M  V30 17 C -1.795561 0.891104 2.029096 0
M  V30 18 C -1.826517 1.176275 0.674255 0
M  V30 19 C -2.910632 0.867678 -0.098522 0
M  V30 20 C -4.016260 0.256331 0.458125 0
M  V30 21 C -3.995238 -0.030270 1.799556 0
M  V30 22 C -2.895095 0.286493 2.567418 0
M  V30 23 H 3.959474 -2.079255 2.188571 0
M  V30 24 H 4.001401 -0.607522 1.237908 0
M  V30 25 H 2.470265 -3.233940 0.763536 0
M  V30 26 H 3.954055 -2.807413 -0.083221 0
M  V30 27 H 4.001795 -1.057166 -1.736851 0
M  V30 28 H 2.840033 -0.032870 -3.572026 0
M  V30 29 H 0.440288 -0.100942 -3.744189 0
M  V30 30 H -0.869257 -1.267454 -1.966807 0
M  V30 31 H 0.320697 -2.349916 -0.031897 0
M  V30 32 H -0.153447 2.109828 2.402474 0
M  V30 33 H -0.896983 1.544616 3.898345 0
M  V30 34 H -0.947894 1.660208 0.240472 0
M  V30 35 H -2.949568 1.082380 -1.149889 0
M  V30 36 H -4.882990 0.011122 -0.166548 0
M  V30 37 H -4.882530 -0.512288 2.207266 0
M  V30 38 H -2.995880 0.013077 3.605018 0
M  V30 END ATOM
M  V30 BEGIN BOND
M  V30 1 2 1 2
M  V30 2 1 2 3
M  V30 3 1 3 4
M  V30 4 1 4 5
M  V30 5 1 5 6
M  V30 6 1 6 7
M  V30 7 2 7 8
M  V30 8 1 8 9
M  V30 9 2 9 10
M  V30 10 1 10 11
M  V30 11 2 11 12
M  V30 12 1 4 13
M  V30 13 2 13 14
M  V30 14 1 13 15
M  V30 15 1 15 16
M  V30 16 1 16 17
M  V30 17 2 17 18
M  V30 18 1 18 19
M  V30 19 2 19 20
M  V30 20 1 20 21
M  V30 21 2 21 22
M  V30 22 1 15 2
M  V30 23 1 22 17
M  V30 24 1 12 7
M  V30 25 1 5 23
M  V30 26 1 5 24
M  V30 27 1 6 25
M  V30 28 1 6 26
M  V30 29 1 8 27
M  V30 30 1 9 28
M  V30 31 1 10 29
M  V30 32 1 11 30
M  V30 33 1 12 31
M  V30 34 1 16 32
M  V30 35 1 16 33
M  V30 36 1 18 34
M  V30 37 1 19 35
M  V30 38 1 20 36
M  V30 39 1 21 37
M  V30 40 1 22 38
M  V30 END BOND
M  V30 END CTAB
M  END
>  <Dataset>  (741) 
ChEMBL_Kinases

>  <Ligand_Instance>  (741) 
nan

>  <PDB_ID>  (741) 
nan

>  <Standardized_SMILES>  (741) 
O=c1sn(CCc2ccccc2)c(=O)n1Cc1ccccc1

>  <Name>  (741) 
nan

>  <Pocket>  (741) 
nan

>  <ATP_Site>  (741) 
nan

>  <Peripheral>  (741) 
nan

>  <Num_H_Atoms_ProtBoundConf>  (741) 
nan

>  <Num_Resolved_Atoms>  (741) 
nan

>  <Num_Not_Resolved_Atoms>  (741) 
nan

$$$$
CHEMBL3728424
     RDKit          3D

  0  0  0  0  0  0  0  0  0  0999 V3000
M  V30 BEGIN CTAB
M  V30 COUNTS 59 63 0 0 0
M  V30 BEGIN ATOM
M  V30 1 N -1.470899 1.576496 3.645501 0
M  V30 2 C -0.091441 1.802424 3.191047 0 CFG=2
M  V30 3 C 0.837350 0.860993 3.907834 0
M  V30 4 N 0.508119 -0.518213 3.661170 0
M  V30 5 C 0.574458 -1.053549 2.350699 0
M  V30 6 N 0.962173 -0.280348 1.293785 0
M  V30 7 C 0.981818 -0.943660 0.096497 0
M  V30 8 C 1.385738 -0.230857 -1.114521 0
M  V30 9 C 1.421803 -0.801154 -2.372861 0
M  V30 10 C 1.809030 -0.111926 -3.503337 0
M  V30 11 N 2.171375 1.180810 -3.383940 0
M  V30 12 C 2.144954 1.757732 -2.172618 0
M  V30 13 C 1.761599 1.088090 -1.030089 0
M  V30 14 F 1.788161 1.797474 0.111857 0
M  V30 15 N 0.657596 -2.234607 -0.070041 0
M  V30 16 C 0.271301 -3.018874 0.960196 0
M  V30 17 C -0.068970 -4.318443 0.876380 0
M  V30 18 C -0.102655 -5.169271 -0.310787 0
M  V30 19 C -0.700733 -4.604934 -1.424407 0
M  V30 20 C -0.732075 -5.412370 -2.556939 0
M  V30 21 C -0.221719 -6.693707 -2.633047 0
M  V30 22 C -0.318811 -7.451787 -3.904223 0
M  V30 23 O 0.756134 -7.275237 -4.748705 0
M  V30 24 C 0.362236 -7.201307 -1.490020 0
M  V30 25 C 0.427025 -6.442866 -0.317582 0
M  V30 26 C -0.435808 -4.937118 2.060333 0
M  V30 27 S -0.272950 -3.549688 3.347602 0
M  V30 28 C 0.239318 -2.387043 2.180875 0
M  V30 29 C 0.232800 3.238543 3.543990 0
M  V30 30 C -0.712717 4.150810 2.853382 0
M  V30 31 C -1.923848 4.602570 3.330610 0
M  V30 32 C -2.683671 5.443962 2.569661 0
M  V30 33 C -2.233185 5.845599 1.309585 0
M  V30 34 C -1.024129 5.408000 0.807743 0
M  V30 35 C -0.260287 4.548963 1.597785 0
M  V30 36 H -1.612724 1.941045 4.604422 0
M  V30 37 H -2.153188 2.033288 3.006045 0
M  V30 38 H -0.007939 1.728860 2.105751 0
M  V30 39 H 1.861049 1.044876 3.511084 0
M  V30 40 H 0.886145 1.104228 4.983335 0
M  V30 41 H 0.224679 -1.087966 4.481869 0
M  V30 42 H 1.115822 -1.855210 -2.405346 0
M  V30 43 H 1.781853 -0.698558 -4.402154 0
M  V30 44 H 2.445770 2.795739 -2.137492 0
M  V30 45 H -1.129733 -3.617738 -1.475790 0
M  V30 46 H -1.195920 -5.006457 -3.461394 0
M  V30 47 H -0.418843 -8.545942 -3.728368 0
M  V30 48 H -1.245848 -7.179150 -4.471722 0
M  V30 49 H 0.573336 -6.669647 -5.519942 0
M  V30 50 H 0.772545 -8.210586 -1.524422 0
M  V30 51 H 0.889835 -6.855559 0.574967 0
M  V30 52 H -0.757652 -5.977402 2.288588 0
M  V30 53 H -0.003991 3.325826 4.640605 0
M  V30 54 H 1.287677 3.509700 3.358479 0
M  V30 55 H -2.203062 4.248169 4.312229 0
M  V30 56 H -3.642230 5.801176 2.948006 0
M  V30 57 H -2.819110 6.511638 0.690086 0
M  V30 58 H -0.696563 5.737693 -0.180048 0
M  V30 59 H 0.677871 4.241536 1.147342 0
M  V30 END ATOM
M  V30 BEGIN BOND
M  V30 1 1 1 2
M  V30 2 1 2 3
M  V30 3 1 3 4
M  V30 4 1 4 5
M  V30 5 2 5 6
M  V30 6 1 6 7
M  V30 7 1 7 8
M  V30 8 2 8 9
M  V30 9 1 9 10
M  V30 10 2 10 11
M  V30 11 1 11 12
M  V30 12 2 12 13
M  V30 13 1 13 14
M  V30 14 2 7 15
M  V30 15 1 15 16
M  V30 16 1 16 17
M  V30 17 1 17 18
M  V30 18 2 18 19
M  V30 19 1 19 20
M  V30 20 2 20 21
M  V30 21 1 21 22
M  V30 22 1 22 23
M  V30 23 1 21 24
M  V30 24 2 24 25
M  V30 25 2 17 26
M  V30 26 1 26 27
M  V30 27 1 27 28
M  V30 28 1 2 29
M  V30 29 1 29 30
M  V30 30 2 30 31
M  V30 31 1 31 32
M  V30 32 2 32 33
M  V30 33 1 33 34
M  V30 34 2 34 35
M  V30 35 1 28 5
M  V30 36 1 35 30
M  V30 37 1 13 8
M  V30 38 2 28 16
M  V30 39 1 25 18
M  V30 40 1 1 36
M  V30 41 1 1 37
M  V30 42 1 2 38 CFG=3
M  V30 43 1 3 39
M  V30 44 1 3 40
M  V30 45 1 4 41
M  V30 46 1 9 42
M  V30 47 1 10 43
M  V30 48 1 12 44
M  V30 49 1 19 45
M  V30 50 1 20 46
M  V30 51 1 22 47
M  V30 52 1 22 48
M  V30 53 1 23 49
M  V30 54 1 24 50
M  V30 55 1 25 51
M  V30 56 1 26 52
M  V30 57 1 29 53
M  V30 58 1 29 54
M  V30 59 1 31 55
M  V30 60 1 32 56
M  V30 61 1 33 57
M  V30 62 1 34 58
M  V30 63 1 35 59
M  V30 END BOND
M  V30 END CTAB
M  END
>  <Dataset>  (742) 
ChEMBL_Kinases

>  <Ligand_Instance>  (742) 
nan

>  <PDB_ID>  (742) 
nan

>  <Standardized_SMILES>  (742) 
N[C@H](CNc1nc(-c2ccncc2F)nc2c(-c3ccc(CO)cc3)csc12)Cc1ccccc1

>  <Name>  (742) 
nan

>  <Pocket>  (742) 
nan

>  <ATP_Site>  (742) 
nan

>  <Peripheral>  (742) 
nan

>  <Num_H_Atoms_ProtBoundConf>  (742) 
nan

>  <Num_Resolved_Atoms>  (742) 
nan

>  <Num_Not_Resolved_Atoms>  (742) 
nan

$$$$
CHEMBL554286
     RDKit          3D

  0  0  0  0  0  0  0  0  0  0999 V3000
M  V30 BEGIN CTAB
M  V30 COUNTS 43 47 0 0 0
M  V30 BEGIN ATOM
M  V30 1 C -1.789811 -5.696932 3.186710 0
M  V30 2 C -0.745688 -4.940397 2.352400 0 CFG=2
M  V30 3 C -1.268221 -3.579962 2.126979 0
M  V30 4 N -0.752659 -2.856328 0.981589 0
M  V30 5 C 0.480064 -2.852373 0.279360 0
M  V30 6 C 0.970933 -4.148488 -0.099730 0
M  V30 7 S 2.472762 -3.789487 -1.069314 0
M  V30 8 C 2.326768 -2.040451 -0.892116 0
M  V30 9 C 3.217763 -1.123984 -1.432618 0
M  V30 10 C 2.969588 0.211530 -1.199309 0
M  V30 11 C 1.843283 0.465034 -0.439407 0
M  V30 12 N 1.708193 1.810204 -0.235010 0
M  V30 13 C 0.710353 2.322681 0.503221 0
M  V30 14 C 0.608195 3.764360 0.691082 0
M  V30 15 C -0.353341 4.416519 1.415197 0
M  V30 16 C -0.410341 5.786590 1.565755 0
M  V30 17 C 0.558554 6.552566 0.951139 0
M  V30 18 C 1.556763 5.960065 0.206236 0
M  V30 19 C 1.546473 4.587612 0.102473 0
M  V30 20 F 2.543068 4.044665 -0.637302 0
M  V30 21 C -0.178474 1.420196 1.050857 0
M  V30 22 C -0.007941 0.070687 0.820410 0
M  V30 23 C 0.994433 -0.483244 0.071284 0
M  V30 24 C 1.209413 -1.803581 -0.146140 0
M  V30 25 C 0.499210 -5.538910 0.174150 0
M  V30 26 O 1.043683 -6.401834 -0.548388 0
M  V30 27 N -0.500660 -5.762025 1.203346 0
M  V30 28 H -1.298519 -6.387041 3.901958 0
M  V30 29 H -2.429368 -5.014153 3.742557 0
M  V30 30 H -2.440929 -6.276409 2.502730 0
M  V30 31 H 0.144107 -4.893511 3.024058 0
M  V30 32 H -2.385662 -3.563737 2.104299 0
M  V30 33 H -1.002110 -2.963910 3.036300 0
M  V30 34 H -1.425120 -2.157589 0.494862 0
M  V30 35 H 4.061982 -1.445714 -2.006689 0
M  V30 36 H 3.643895 0.926517 -1.610440 0
M  V30 37 H -1.120431 3.836212 1.903899 0
M  V30 38 H -1.196292 6.249350 2.151960 0
M  V30 39 H 0.563626 7.635842 1.035172 0
M  V30 40 H 2.311703 6.569859 -0.271618 0
M  V30 41 H -0.968475 1.846945 1.638692 0
M  V30 42 H -0.736898 -0.478731 1.336166 0
M  V30 43 H -0.998905 -6.658024 0.922032 0
M  V30 END ATOM
M  V30 BEGIN BOND
M  V30 1 1 1 2
M  V30 2 1 2 3
M  V30 3 1 3 4
M  V30 4 1 4 5
M  V30 5 2 5 6
M  V30 6 1 6 7
M  V30 7 1 7 8
M  V30 8 2 8 9
M  V30 9 1 9 10
M  V30 10 2 10 11
M  V30 11 1 11 12
M  V30 12 2 12 13
M  V30 13 1 13 14
M  V30 14 2 14 15
M  V30 15 1 15 16
M  V30 16 2 16 17
M  V30 17 1 17 18
M  V30 18 2 18 19
M  V30 19 1 19 20
M  V30 20 1 13 21
M  V30 21 2 21 22
M  V30 22 1 22 23
M  V30 23 2 23 24
M  V30 24 1 6 25
M  V30 25 2 25 26
M  V30 26 1 25 27
M  V30 27 1 27 2
M  V30 28 1 24 5
M  V30 29 1 24 8
M  V30 30 1 23 11
M  V30 31 1 19 14
M  V30 32 1 1 28
M  V30 33 1 1 29
M  V30 34 1 1 30
M  V30 35 1 2 31 CFG=1
M  V30 36 1 3 32
M  V30 37 1 3 33
M  V30 38 1 4 34
M  V30 39 1 9 35
M  V30 40 1 10 36
M  V30 41 1 15 37
M  V30 42 1 16 38
M  V30 43 1 17 39
M  V30 44 1 18 40
M  V30 45 1 21 41
M  V30 46 1 22 42
M  V30 47 1 27 43
M  V30 END BOND
M  V30 END CTAB
M  END
>  <Dataset>  (743) 
ChEMBL_Kinases

>  <Ligand_Instance>  (743) 
nan

>  <PDB_ID>  (743) 
nan

>  <Standardized_SMILES>  (743) 
C[C@@H]1CNc2c(sc3ccc4nc(-c5ccccc5F)ccc4c23)C(=O)N1

>  <Name>  (743) 
nan

>  <Pocket>  (743) 
nan

>  <ATP_Site>  (743) 
nan

>  <Peripheral>  (743) 
nan

>  <Num_H_Atoms_ProtBoundConf>  (743) 
nan

>  <Num_Resolved_Atoms>  (743) 
nan

>  <Num_Not_Resolved_Atoms>  (743) 
nan

$$$$
CHEMBL573007
     RDKit          3D

  0  0  0  0  0  0  0  0  0  0999 V3000
M  V30 BEGIN CTAB
M  V30 COUNTS 35 38 0 0 0
M  V30 BEGIN ATOM
M  V30 1 C -1.595694 -4.453389 3.203099 0
M  V30 2 C -0.300022 -3.939594 2.637803 0
M  V30 3 C 0.912330 -4.589944 2.737824 0
M  V30 4 C 1.822226 -3.765070 2.082799 0
M  V30 5 C 1.119037 -2.665194 1.622943 0
M  V30 6 C 1.715036 -1.540083 0.868700 0
M  V30 7 C 3.063468 -1.514681 0.563572 0
M  V30 8 C 3.556160 -0.434932 -0.143147 0
M  V30 9 C 2.741370 0.624427 -0.556359 0
M  V30 10 O 2.941390 1.737474 -1.218425 0
M  V30 11 C 1.812268 2.404750 -1.345786 0
M  V30 12 C 0.770627 1.700911 -0.729627 0
M  V30 13 C -0.623267 2.106159 -0.654173 0
M  V30 14 C -1.021253 3.398323 -0.326818 0
M  V30 15 C -2.378919 3.702938 -0.276741 0
M  V30 16 C -3.355811 2.764663 -0.541578 0
M  V30 17 F -4.688691 3.075120 -0.489445 0
M  V30 18 C -2.936462 1.478832 -0.866831 0
M  V30 19 C -1.587844 1.166625 -0.919078 0
M  V30 20 C 1.384397 0.564860 -0.230388 0
M  V30 21 C 0.880985 -0.509595 0.475699 0
M  V30 22 O -0.130948 -2.818876 1.978134 0
M  V30 23 H -2.394573 -3.710477 2.983509 0
M  V30 24 H -1.563681 -4.600247 4.284751 0
M  V30 25 H -1.923294 -5.393354 2.717591 0
M  V30 26 H 1.070005 -5.552634 3.239106 0
M  V30 27 H 2.877993 -3.988929 1.979460 0
M  V30 28 H 3.720535 -2.324840 0.872257 0
M  V30 29 H 4.600906 -0.349837 -0.415950 0
M  V30 30 H 1.694656 3.341182 -1.841097 0
M  V30 31 H -0.258052 4.141494 -0.117266 0
M  V30 32 H -2.712178 4.702320 -0.024113 0
M  V30 33 H -3.741249 0.780492 -1.065599 0
M  V30 34 H -1.427283 0.147489 -1.180544 0
M  V30 35 H -0.150004 -0.557837 0.725009 0
M  V30 END ATOM
M  V30 BEGIN BOND
M  V30 1 1 1 2
M  V30 2 2 2 3
M  V30 3 1 3 4
M  V30 4 2 4 5
M  V30 5 1 5 6
M  V30 6 2 6 7
M  V30 7 1 7 8
M  V30 8 2 8 9
M  V30 9 1 9 10
M  V30 10 1 10 11
M  V30 11 2 11 12
M  V30 12 1 12 13
M  V30 13 2 13 14
M  V30 14 1 14 15
M  V30 15 2 15 16
M  V30 16 1 16 17
M  V30 17 1 16 18
M  V30 18 2 18 19
M  V30 19 1 12 20
M  V30 20 2 20 21
M  V30 21 1 5 22
M  V30 22 1 22 2
M  V30 23 1 21 6
M  V30 24 1 20 9
M  V30 25 1 19 13
M  V30 26 1 1 23
M  V30 27 1 1 24
M  V30 28 1 1 25
M  V30 29 1 3 26
M  V30 30 1 4 27
M  V30 31 1 7 28
M  V30 32 1 8 29
M  V30 33 1 11 30
M  V30 34 1 14 31
M  V30 35 1 15 32
M  V30 36 1 18 33
M  V30 37 1 19 34
M  V30 38 1 21 35
M  V30 END BOND
M  V30 END CTAB
M  END
>  <Dataset>  (744) 
ChEMBL_Kinases

>  <Ligand_Instance>  (744) 
nan

>  <PDB_ID>  (744) 
nan

>  <Standardized_SMILES>  (744) 
Cc1ccc(-c2ccc3occ(-c4ccc(F)cc4)c3c2)o1

>  <Name>  (744) 
nan

>  <Pocket>  (744) 
nan

>  <ATP_Site>  (744) 
nan

>  <Peripheral>  (744) 
nan

>  <Num_H_Atoms_ProtBoundConf>  (744) 
nan

>  <Num_Resolved_Atoms>  (744) 
nan

>  <Num_Not_Resolved_Atoms>  (744) 
nan

$$$$
CHEMBL550811
     RDKit          3D

  0  0  0  0  0  0  0  0  0  0999 V3000
M  V30 BEGIN CTAB
M  V30 COUNTS 60 62 0 0 0
M  V30 BEGIN ATOM
M  V30 1 C 2.697255 -2.935925 4.970098 0
M  V30 2 C 3.393209 -3.083889 3.630609 0
M  V30 3 O 2.847258 -2.286289 2.630864 0
M  V30 4 C 2.735684 -0.931817 2.568510 0
M  V30 5 O 3.238192 -0.490211 3.627679 0
M  V30 6 C 2.160782 -0.109865 1.512804 0
M  V30 7 C 2.180330 1.194891 1.700636 0
M  V30 8 C 2.728157 1.913447 2.878420 0
M  V30 9 N 1.616321 1.980734 0.647413 0
M  V30 10 C 0.527776 1.392807 -0.165285 0
M  V30 11 O -0.604666 1.578363 0.584430 0
M  V30 12 C -1.467576 2.551563 0.130145 0
M  V30 13 N 0.782359 0.061961 -0.518349 0
M  V30 14 C 1.173840 -0.143308 -1.890422 0
M  V30 15 C 0.148498 0.016193 -2.908353 0
M  V30 16 O 0.697222 0.280202 -4.037249 0
M  V30 17 C -1.289585 -0.068500 -2.877929 0
M  V30 18 C -2.047387 -0.383070 -1.752980 0
M  V30 19 C -3.418562 -0.474047 -1.731087 0
M  V30 20 C -4.106955 -0.239537 -2.899375 0
M  V30 21 O -5.490824 -0.325855 -2.901253 0
M  V30 22 C -6.120992 -0.657695 -1.675467 0
M  V30 23 C -3.391577 0.080769 -4.058343 0
M  V30 24 C -2.024372 0.156920 -4.018923 0
M  V30 25 C 1.590941 -0.752299 0.306064 0
M  V30 26 C 0.828250 -1.950686 0.778133 0
M  V30 27 C 1.313502 -3.252641 0.617056 0
M  V30 28 C 0.710629 -4.409760 1.013443 0
M  V30 29 C -0.507327 -4.274595 1.638513 0
M  V30 30 O -1.240797 -5.373569 2.097930 0
M  V30 31 C -1.071800 -3.037592 1.845183 0
M  V30 32 C -0.395894 -1.918322 1.413826 0
M  V30 33 H 1.990041 -3.778060 5.162291 0
M  V30 34 H 3.482984 -3.050843 5.762700 0
M  V30 35 H 2.215898 -1.959880 5.119259 0
M  V30 36 H 3.214517 -4.152667 3.308520 0
M  V30 37 H 4.495616 -3.024924 3.734421 0
M  V30 38 H 3.808254 1.653415 2.949014 0
M  V30 39 H 2.639192 3.007840 2.773041 0
M  V30 40 H 2.252492 1.612009 3.838690 0
M  V30 41 H 1.999596 2.961417 0.486795 0
M  V30 42 H 0.534188 2.040288 -1.093860 0
M  V30 43 H -2.337281 2.588702 0.821073 0
M  V30 44 H -0.978582 3.559337 0.079332 0
M  V30 45 H -1.853698 2.295615 -0.871213 0
M  V30 46 H 1.660525 -1.167241 -1.940446 0
M  V30 47 H 2.052873 0.549246 -2.038797 0
M  V30 48 H -1.500109 -0.564828 -0.848489 0
M  V30 49 H -3.888506 -0.727992 -0.787462 0
M  V30 50 H -5.847602 0.089200 -0.897016 0
M  V30 51 H -7.191889 -0.836829 -1.783406 0
M  V30 52 H -5.639931 -1.611934 -1.318220 0
M  V30 53 H -3.937072 0.263488 -4.967110 0
M  V30 54 H -1.508538 0.408065 -4.930671 0
M  V30 55 H 2.461478 -1.167121 -0.262259 0
M  V30 56 H 2.284282 -3.337848 0.115660 0
M  V30 57 H 1.144779 -5.380753 0.853727 0
M  V30 58 H -0.902703 -5.855530 2.919020 0
M  V30 59 H -2.034010 -2.908087 2.339399 0
M  V30 60 H -0.852015 -0.957429 1.584132 0
M  V30 END ATOM
M  V30 BEGIN BOND
M  V30 1 1 1 2
M  V30 2 1 2 3
M  V30 3 1 3 4
M  V30 4 2 4 5
M  V30 5 1 4 6
M  V30 6 2 6 7
M  V30 7 1 7 8
M  V30 8 1 7 9
M  V30 9 1 9 10
M  V30 10 1 10 11
M  V30 11 1 11 12
M  V30 12 1 10 13
M  V30 13 1 13 14
M  V30 14 1 14 15
M  V30 15 2 15 16
M  V30 16 1 15 17
M  V30 17 2 17 18
M  V30 18 1 18 19
M  V30 19 2 19 20
M  V30 20 1 20 21
M  V30 21 1 21 22
M  V30 22 1 20 23
M  V30 23 2 23 24
M  V30 24 1 13 25
M  V30 25 1 25 26
M  V30 26 2 26 27
M  V30 27 1 27 28
M  V30 28 2 28 29
M  V30 29 1 29 30
M  V30 30 1 29 31
M  V30 31 2 31 32
M  V30 32 1 25 6
M  V30 33 1 32 26
M  V30 34 1 24 17
M  V30 35 1 1 33
M  V30 36 1 1 34
M  V30 37 1 1 35
M  V30 38 1 2 36
M  V30 39 1 2 37
M  V30 40 1 8 38
M  V30 41 1 8 39
M  V30 42 1 8 40
M  V30 43 1 9 41
M  V30 44 1 10 42
M  V30 45 1 12 43
M  V30 46 1 12 44
M  V30 47 1 12 45
M  V30 48 1 14 46
M  V30 49 1 14 47
M  V30 50 1 18 48
M  V30 51 1 19 49
M  V30 52 1 22 50
M  V30 53 1 22 51
M  V30 54 1 22 52
M  V30 55 1 23 53
M  V30 56 1 24 54
M  V30 57 1 25 55
M  V30 58 1 27 56
M  V30 59 1 28 57
M  V30 60 1 30 58
M  V30 61 1 31 59
M  V30 62 1 32 60
M  V30 END BOND
M  V30 END CTAB
M  END
>  <Dataset>  (745) 
ChEMBL_Kinases

>  <Ligand_Instance>  (745) 
nan

>  <PDB_ID>  (745) 
nan

>  <Standardized_SMILES>  (745) 
CCOC(=O)C1=C(C)NC(OC)N(CC(=O)c2ccc(OC)cc2)C1c1ccc(O)cc1

>  <Name>  (745) 
nan

>  <Pocket>  (745) 
nan

>  <ATP_Site>  (745) 
nan

>  <Peripheral>  (745) 
nan

>  <Num_H_Atoms_ProtBoundConf>  (745) 
nan

>  <Num_Resolved_Atoms>  (745) 
nan

>  <Num_Not_Resolved_Atoms>  (745) 
nan

$$$$
CHEMBL550950
     RDKit          3D

  0  0  0  0  0  0  0  0  0  0999 V3000
M  V30 BEGIN CTAB
M  V30 COUNTS 63 67 0 0 0
M  V30 BEGIN ATOM
M  V30 1 C 4.164796 -1.527364 5.480126 0
M  V30 2 N 3.248097 -0.623694 4.835997 0
M  V30 3 C 3.630408 -0.134834 3.530412 0
M  V30 4 N 4.457276 -0.145162 2.679854 0
M  V30 5 C 4.407797 0.491859 1.525290 0
M  V30 6 C 5.528569 0.405272 0.516977 0
M  V30 7 C 3.325149 1.240690 1.248263 0
M  V30 8 C 2.852150 2.061186 0.170528 0
M  V30 9 C 3.449036 2.351425 -1.045512 0
M  V30 10 C 2.908703 3.139460 -2.013552 0
M  V30 11 N 1.714154 3.671539 -1.771008 0
M  V30 12 C 1.065875 3.440268 -0.617509 0
M  V30 13 N -0.200481 4.070047 -0.590127 0
M  V30 14 C -1.125861 3.002257 -0.288135 0
M  V30 15 C -1.010256 2.168747 0.816830 0
M  V30 16 C -1.850812 1.111201 1.077336 0
M  V30 17 C -2.873639 0.849537 0.198227 0
M  V30 18 N -3.761642 -0.240762 0.452170 0
M  V30 19 C -4.629713 -0.900868 -0.502370 0
M  V30 20 C -4.187244 -2.334316 -0.614611 0
M  V30 21 N -3.425312 -2.859371 0.436911 0
M  V30 22 C -3.021968 -4.216537 0.389811 0
M  V30 23 C -2.123315 -4.466743 -0.767520 0
M  V30 24 C -2.452022 -4.867096 -2.065743 0
M  V30 25 C -1.475958 -5.051819 -3.014593 0
M  V30 26 C -0.158432 -4.847835 -2.704828 0
M  V30 27 C 0.260197 -4.452327 -1.449105 0
M  V30 28 C -0.770916 -4.279938 -0.534900 0
M  V30 29 C -3.357919 -2.230286 1.686455 0
M  V30 30 C -3.954266 -0.865043 1.739880 0
M  V30 31 C -3.008628 1.664685 -0.906499 0
M  V30 32 C -2.157934 2.728100 -1.160569 0
M  V30 33 N 1.653444 2.658368 0.289932 0
M  V30 34 S 2.381758 0.983989 2.728270 0
M  V30 35 H 4.739254 -0.994521 6.239715 0
M  V30 36 H 4.903410 -1.993641 4.795282 0
M  V30 37 H 3.602494 -2.369251 5.965415 0
M  V30 38 H 2.378500 -0.384471 5.355159 0
M  V30 39 H 6.373082 -0.248733 0.902783 0
M  V30 40 H 5.222194 -0.154715 -0.392620 0
M  V30 41 H 6.025805 1.362795 0.347947 0
M  V30 42 H 4.396239 1.911510 -1.204966 0
M  V30 43 H 3.460844 3.311287 -2.947193 0
M  V30 44 H -0.419264 5.087667 -0.748058 0
M  V30 45 H -0.240426 2.320315 1.550867 0
M  V30 46 H -1.736791 0.484692 1.937892 0
M  V30 47 H -5.696021 -0.864750 -0.175964 0
M  V30 48 H -4.493897 -0.415087 -1.496311 0
M  V30 49 H -5.057580 -3.018098 -0.810720 0
M  V30 50 H -3.566935 -2.442745 -1.563003 0
M  V30 51 H -2.474102 -4.451784 1.320515 0
M  V30 52 H -3.870787 -4.933850 0.295503 0
M  V30 53 H -3.521934 -5.001464 -2.191085 0
M  V30 54 H -1.826833 -5.372566 -4.006403 0
M  V30 55 H 0.584196 -5.011900 -3.498692 0
M  V30 56 H 1.304787 -4.288568 -1.199153 0
M  V30 57 H -0.416458 -3.965061 0.456793 0
M  V30 58 H -2.287045 -2.245856 2.019498 0
M  V30 59 H -3.876539 -2.866670 2.447972 0
M  V30 60 H -3.530542 -0.253342 2.566344 0
M  V30 61 H -5.054638 -0.983256 1.953026 0
M  V30 62 H -3.806065 1.487514 -1.620258 0
M  V30 63 H -2.271502 3.367343 -2.036677 0
M  V30 END ATOM
M  V30 BEGIN BOND
M  V30 1 1 1 2
M  V30 2 1 2 3
M  V30 3 2 3 4
M  V30 4 1 4 5
M  V30 5 1 5 6
M  V30 6 2 5 7
M  V30 7 1 7 8
M  V30 8 2 8 9
M  V30 9 1 9 10
M  V30 10 2 10 11
M  V30 11 1 11 12
M  V30 12 1 12 13
M  V30 13 1 13 14
M  V30 14 2 14 15
M  V30 15 1 15 16
M  V30 16 2 16 17
M  V30 17 1 17 18
M  V30 18 1 18 19
M  V30 19 1 19 20
M  V30 20 1 20 21
M  V30 21 1 21 22
M  V30 22 1 22 23
M  V30 23 2 23 24
M  V30 24 1 24 25
M  V30 25 2 25 26
M  V30 26 1 26 27
M  V30 27 2 27 28
M  V30 28 1 21 29
M  V30 29 1 29 30
M  V30 30 1 17 31
M  V30 31 2 31 32
M  V30 32 2 12 33
M  V30 33 1 7 34
M  V30 34 1 34 3
M  V30 35 1 33 8
M  V30 36 1 32 14
M  V30 37 1 30 18
M  V30 38 1 28 23
M  V30 39 1 1 35
M  V30 40 1 1 36
M  V30 41 1 1 37
M  V30 42 1 2 38
M  V30 43 1 6 39
M  V30 44 1 6 40
M  V30 45 1 6 41
M  V30 46 1 9 42
M  V30 47 1 10 43
M  V30 48 1 13 44
M  V30 49 1 15 45
M  V30 50 1 16 46
M  V30 51 1 19 47
M  V30 52 1 19 48
M  V30 53 1 20 49
M  V30 54 1 20 50
M  V30 55 1 22 51
M  V30 56 1 22 52
M  V30 57 1 24 53
M  V30 58 1 25 54
M  V30 59 1 26 55
M  V30 60 1 27 56
M  V30 61 1 28 57
M  V30 62 1 29 58
M  V30 63 1 29 59
M  V30 64 1 30 60
M  V30 65 1 30 61
M  V30 66 1 31 62
M  V30 67 1 32 63
M  V30 END BOND
M  V30 END CTAB
M  END
>  <Dataset>  (746) 
ChEMBL_Kinases

>  <Ligand_Instance>  (746) 
nan

>  <PDB_ID>  (746) 
nan

>  <Standardized_SMILES>  (746) 
CNc1nc(C)c(-c2ccnc(Nc3ccc(N4CCN(Cc5ccccc5)CC4)cc3)n2)s1

>  <Name>  (746) 
nan

>  <Pocket>  (746) 
nan

>  <ATP_Site>  (746) 
nan

>  <Peripheral>  (746) 
nan

>  <Num_H_Atoms_ProtBoundConf>  (746) 
nan

>  <Num_Resolved_Atoms>  (746) 
nan

>  <Num_Not_Resolved_Atoms>  (746) 
nan

$$$$
CHEMBL551014
     RDKit          3D

  0  0  0  0  0  0  0  0  0  0999 V3000
M  V30 BEGIN CTAB
M  V30 COUNTS 63 65 0 0 0
M  V30 BEGIN ATOM
M  V30 1 C 1.502549 -0.252477 5.336577 0
M  V30 2 C 1.756355 -1.502235 4.531919 0
M  V30 3 O 1.487627 -1.234995 3.178012 0
M  V30 4 C 2.207357 -0.284471 2.496201 0
M  V30 5 O 2.936905 0.035240 3.452688 0
M  V30 6 C 2.216787 0.246816 1.157526 0
M  V30 7 C 3.138390 1.200635 0.940804 0
M  V30 8 C 4.092491 1.699350 1.966937 0
M  V30 9 N 3.105801 1.699426 -0.394988 0
M  V30 10 C 1.806788 1.731996 -0.975034 0
M  V30 11 O 0.981488 2.749891 -0.463472 0
M  V30 12 C 0.733036 3.666373 -1.496414 0
M  V30 13 N 1.081151 0.488347 -1.020121 0
M  V30 14 C 1.609246 -0.231335 -2.178776 0
M  V30 15 C 0.859700 -1.408441 -2.581281 0
M  V30 16 O 1.544957 -2.341053 -3.100332 0
M  V30 17 C -0.562502 -1.701050 -2.491749 0
M  V30 18 C -1.046006 -2.925237 -2.863681 0
M  V30 19 C -2.408990 -3.203477 -2.809994 0
M  V30 20 C -3.336946 -2.301636 -2.394950 0
M  V30 21 O -4.702609 -2.426658 -2.287360 0
M  V30 22 C -5.410375 -3.586626 -2.608163 0
M  V30 23 C -2.891950 -1.040402 -2.005784 0
M  V30 24 C -1.535669 -0.803052 -2.072897 0
M  V30 25 C 1.248999 -0.302066 0.182953 0
M  V30 26 C -0.033808 -0.625493 0.843247 0
M  V30 27 C -0.321217 -1.929755 1.260558 0
M  V30 28 C -1.461184 -2.375856 1.875331 0
M  V30 29 C -2.452448 -1.447301 2.120617 0
M  V30 30 O -3.667704 -1.705658 2.727981 0
M  V30 31 C -4.014460 -2.999699 3.168333 0
M  V30 32 C -2.232137 -0.142127 1.733387 0
M  V30 33 C -1.062066 0.244803 1.117845 0
M  V30 34 H 1.039269 0.498994 4.698616 0
M  V30 35 H 0.865051 -0.485038 6.225870 0
M  V30 36 H 2.486780 0.108933 5.715186 0
M  V30 37 H 2.825098 -1.837194 4.666021 0
M  V30 38 H 1.102921 -2.343732 4.902930 0
M  V30 39 H 4.761290 0.903398 2.325731 0
M  V30 40 H 3.495268 2.178984 2.762959 0
M  V30 41 H 4.715504 2.483970 1.486167 0
M  V30 42 H 4.026475 2.000285 -0.833199 0
M  V30 43 H 1.970605 2.036914 -2.055825 0
M  V30 44 H 1.711849 4.066533 -1.815214 0
M  V30 45 H -0.001991 4.415763 -1.205432 0
M  V30 46 H 0.329763 3.076233 -2.359915 0
M  V30 47 H 2.666420 -0.493589 -1.896748 0
M  V30 48 H 1.710831 0.523908 -2.985578 0
M  V30 49 H -0.422980 -3.723980 -3.209777 0
M  V30 50 H -2.814360 -4.170155 -3.100635 0
M  V30 51 H -5.014061 -4.448567 -2.042489 0
M  V30 52 H -5.372487 -3.738113 -3.694934 0
M  V30 53 H -6.468991 -3.417157 -2.304290 0
M  V30 54 H -3.526203 -0.225204 -1.653320 0
M  V30 55 H -1.155734 0.188316 -1.771739 0
M  V30 56 H 1.693355 -1.305286 -0.115760 0
M  V30 57 H 0.428664 -2.715756 1.094590 0
M  V30 58 H -1.618290 -3.389345 2.170706 0
M  V30 59 H -3.563016 -3.803345 2.559588 0
M  V30 60 H -5.132394 -3.129202 3.154418 0
M  V30 61 H -3.650849 -3.091752 4.222330 0
M  V30 62 H -2.986828 0.632940 1.904797 0
M  V30 63 H -0.925980 1.277904 0.829317 0
M  V30 END ATOM
M  V30 BEGIN BOND
M  V30 1 1 1 2
M  V30 2 1 2 3
M  V30 3 1 3 4
M  V30 4 2 4 5
M  V30 5 1 4 6
M  V30 6 2 6 7
M  V30 7 1 7 8
M  V30 8 1 7 9
M  V30 9 1 9 10
M  V30 10 1 10 11
M  V30 11 1 11 12
M  V30 12 1 10 13
M  V30 13 1 13 14
M  V30 14 1 14 15
M  V30 15 2 15 16
M  V30 16 1 15 17
M  V30 17 2 17 18
M  V30 18 1 18 19
M  V30 19 2 19 20
M  V30 20 1 20 21
M  V30 21 1 21 22
M  V30 22 1 20 23
M  V30 23 2 23 24
M  V30 24 1 13 25
M  V30 25 1 25 26
M  V30 26 2 26 27
M  V30 27 1 27 28
M  V30 28 2 28 29
M  V30 29 1 29 30
M  V30 30 1 30 31
M  V30 31 1 29 32
M  V30 32 2 32 33
M  V30 33 1 25 6
M  V30 34 1 33 26
M  V30 35 1 24 17
M  V30 36 1 1 34
M  V30 37 1 1 35
M  V30 38 1 1 36
M  V30 39 1 2 37
M  V30 40 1 2 38
M  V30 41 1 8 39
M  V30 42 1 8 40
M  V30 43 1 8 41
M  V30 44 1 9 42
M  V30 45 1 10 43
M  V30 46 1 12 44
M  V30 47 1 12 45
M  V30 48 1 12 46
M  V30 49 1 14 47
M  V30 50 1 14 48
M  V30 51 1 18 49
M  V30 52 1 19 50
M  V30 53 1 22 51
M  V30 54 1 22 52
M  V30 55 1 22 53
M  V30 56 1 23 54
M  V30 57 1 24 55
M  V30 58 1 25 56
M  V30 59 1 27 57
M  V30 60 1 28 58
M  V30 61 1 31 59
M  V30 62 1 31 60
M  V30 63 1 31 61
M  V30 64 1 32 62
M  V30 65 1 33 63
M  V30 END BOND
M  V30 END CTAB
M  END
>  <Dataset>  (747) 
ChEMBL_Kinases

>  <Ligand_Instance>  (747) 
nan

>  <PDB_ID>  (747) 
nan

>  <Standardized_SMILES>  (747) 
CCOC(=O)C1=C(C)NC(OC)N(CC(=O)c2ccc(OC)cc2)C1c1ccc(OC)cc1

>  <Name>  (747) 
nan

>  <Pocket>  (747) 
nan

>  <ATP_Site>  (747) 
nan

>  <Peripheral>  (747) 
nan

>  <Num_H_Atoms_ProtBoundConf>  (747) 
nan

>  <Num_Resolved_Atoms>  (747) 
nan

>  <Num_Not_Resolved_Atoms>  (747) 
nan

$$$$
CHEMBL572973
     RDKit          3D

  0  0  0  0  0  0  0  0  0  0999 V3000
M  V30 BEGIN CTAB
M  V30 COUNTS 39 42 0 0 0
M  V30 BEGIN ATOM
M  V30 1 C -2.095162 -5.333424 4.253551 0
M  V30 2 S -0.288784 -5.526616 4.207092 0
M  V30 3 C 0.349706 -4.424400 2.953176 0
M  V30 4 C 0.466922 -4.905599 1.659009 0
M  V30 5 C 0.946508 -4.147749 0.608138 0
M  V30 6 C 1.324803 -2.842186 0.880906 0
M  V30 7 C 1.831937 -2.006356 -0.176782 0
M  V30 8 C 2.778346 -2.458516 -1.103437 0
M  V30 9 O 3.062416 -1.496907 -1.952730 0
M  V30 10 C 2.365775 -0.417718 -1.659106 0
M  V30 11 C 2.275210 0.845526 -2.205420 0
M  V30 12 C 1.425901 1.785699 -1.651994 0
M  V30 13 C 0.661908 1.458307 -0.543557 0
M  V30 14 C -0.215027 2.495843 -0.006918 0
M  V30 15 C -1.071977 2.447292 1.070548 0
M  V30 16 C -1.689055 3.689480 1.181591 0
M  V30 17 C -1.164704 4.437197 0.148551 0
M  V30 18 C -1.489643 5.857086 -0.191602 0
M  V30 19 O -0.322478 3.705179 -0.504508 0
M  V30 20 C 0.705811 0.206759 0.053963 0
M  V30 21 C 1.573767 -0.683698 -0.548237 0
M  V30 22 C 1.211993 -2.363587 2.150531 0
M  V30 23 C 0.733042 -3.112024 3.213101 0
M  V30 24 H -2.386002 -4.418954 4.822497 0
M  V30 25 H -2.587596 -6.234520 4.687248 0
M  V30 26 H -2.539672 -5.196699 3.245642 0
M  V30 27 H 0.173060 -5.932104 1.427891 0
M  V30 28 H 1.019122 -4.571252 -0.388723 0
M  V30 29 H 3.220444 -3.460089 -1.124932 0
M  V30 30 H 2.894384 1.044155 -3.069032 0
M  V30 31 H 1.386280 2.757092 -2.108954 0
M  V30 32 H -1.223740 1.578949 1.708911 0
M  V30 33 H -2.419749 4.001792 1.916185 0
M  V30 34 H -0.790678 6.502247 0.415151 0
M  V30 35 H -2.506764 6.147035 0.109994 0
M  V30 36 H -1.290592 6.085197 -1.243702 0
M  V30 37 H 0.123239 -0.053345 0.904624 0
M  V30 38 H 1.502500 -1.339487 2.393443 0
M  V30 39 H 0.635513 -2.760410 4.214004 0
M  V30 END ATOM
M  V30 BEGIN BOND
M  V30 1 1 1 2
M  V30 2 1 2 3
M  V30 3 2 3 4
M  V30 4 1 4 5
M  V30 5 2 5 6
M  V30 6 1 6 7
M  V30 7 2 7 8
M  V30 8 1 8 9
M  V30 9 1 9 10
M  V30 10 2 10 11
M  V30 11 1 11 12
M  V30 12 2 12 13
M  V30 13 1 13 14
M  V30 14 2 14 15
M  V30 15 1 15 16
M  V30 16 2 16 17
M  V30 17 1 17 18
M  V30 18 1 17 19
M  V30 19 1 13 20
M  V30 20 2 20 21
M  V30 21 1 6 22
M  V30 22 2 22 23
M  V30 23 1 23 3
M  V30 24 1 21 7
M  V30 25 1 21 10
M  V30 26 1 19 14
M  V30 27 1 1 24
M  V30 28 1 1 25
M  V30 29 1 1 26
M  V30 30 1 4 27
M  V30 31 1 5 28
M  V30 32 1 8 29
M  V30 33 1 11 30
M  V30 34 1 12 31
M  V30 35 1 15 32
M  V30 36 1 16 33
M  V30 37 1 18 34
M  V30 38 1 18 35
M  V30 39 1 18 36
M  V30 40 1 20 37
M  V30 41 1 22 38
M  V30 42 1 23 39
M  V30 END BOND
M  V30 END CTAB
M  END
>  <Dataset>  (748) 
ChEMBL_Kinases

>  <Ligand_Instance>  (748) 
nan

>  <PDB_ID>  (748) 
nan

>  <Standardized_SMILES>  (748) 
CSc1ccc(-c2coc3ccc(-c4ccc(C)o4)cc23)cc1

>  <Name>  (748) 
nan

>  <Pocket>  (748) 
nan

>  <ATP_Site>  (748) 
nan

>  <Peripheral>  (748) 
nan

>  <Num_H_Atoms_ProtBoundConf>  (748) 
nan

>  <Num_Resolved_Atoms>  (748) 
nan

>  <Num_Not_Resolved_Atoms>  (748) 
nan

$$$$
CHEMBL551189
     RDKit          3D

  0  0  0  0  0  0  0  0  0  0999 V3000
M  V30 BEGIN CTAB
M  V30 COUNTS 40 42 0 0 0
M  V30 BEGIN ATOM
M  V30 1 C 0.625127 -6.421016 -2.724787 0
M  V30 2 O 1.661252 -5.442450 -2.713565 0
M  V30 3 C 1.367474 -4.184802 -2.202274 0
M  V30 4 C 0.076910 -3.949349 -1.728757 0
M  V30 5 C -0.212167 -2.686138 -1.217021 0
M  V30 6 F -1.467257 -2.512052 -0.774863 0
M  V30 7 C 0.789475 -1.735931 -1.204956 0
M  V30 8 C 0.320417 -0.455381 -0.632172 0
M  V30 9 C 0.461106 -0.267489 0.742785 0
M  V30 10 N 1.049195 -1.321926 1.512145 0
M  V30 11 C 0.015073 0.932995 1.243322 0
M  V30 12 C 0.156347 1.118528 2.677041 0
M  V30 13 O 0.627820 0.136426 3.344805 0
M  V30 14 C -0.120702 2.205149 3.598477 0
M  V30 15 C -0.830553 1.972013 4.781467 0
M  V30 16 C -1.140089 2.960989 5.688439 0
M  V30 17 C -0.730172 4.249584 5.419257 0
M  V30 18 F -1.026355 5.234818 6.300976 0
M  V30 19 C -0.018977 4.558439 4.261578 0
M  V30 20 C 0.253342 3.514990 3.401838 0
M  V30 21 F 0.948234 3.855966 2.311716 0
M  V30 22 C -0.523010 1.828621 0.354573 0
M  V30 23 C -0.640873 1.597761 -0.996957 0
M  V30 24 N -0.211654 0.442519 -1.480066 0 CHG=1 VAL=4
M  V30 25 O -0.303729 0.153560 -2.828085 0 CHG=-1 VAL=1
M  V30 26 C 2.067722 -1.965780 -1.672854 0
M  V30 27 F 2.950552 -0.943308 -1.600002 0
M  V30 28 C 2.363365 -3.216077 -2.182174 0
M  V30 29 H -0.265968 -6.031634 -3.274956 0
M  V30 30 H 0.264570 -6.639163 -1.701117 0
M  V30 31 H 0.933929 -7.350047 -3.205861 0
M  V30 32 H -0.682934 -4.731295 -1.758494 0
M  V30 33 H 2.027308 -1.716724 1.635055 0
M  V30 34 H 0.565918 -1.983836 2.181222 0
M  V30 35 H -1.136604 0.941492 4.958283 0
M  V30 36 H -1.692530 2.695827 6.579051 0
M  V30 37 H 0.289406 5.574421 4.075764 0
M  V30 38 H -0.882032 2.766334 0.730429 0
M  V30 39 H -1.084674 2.369021 -1.643780 0
M  V30 40 H 3.359215 -3.403501 -2.549652 0
M  V30 END ATOM
M  V30 BEGIN BOND
M  V30 1 1 1 2
M  V30 2 1 2 3
M  V30 3 2 3 4
M  V30 4 1 4 5
M  V30 5 1 5 6
M  V30 6 2 5 7
M  V30 7 1 7 8
M  V30 8 2 8 9
M  V30 9 1 9 10
M  V30 10 1 9 11
M  V30 11 1 11 12
M  V30 12 2 12 13
M  V30 13 1 12 14
M  V30 14 2 14 15
M  V30 15 1 15 16
M  V30 16 2 16 17
M  V30 17 1 17 18
M  V30 18 1 17 19
M  V30 19 2 19 20
M  V30 20 1 20 21
M  V30 21 2 11 22
M  V30 22 1 22 23
M  V30 23 2 23 24
M  V30 24 1 24 25
M  V30 25 1 7 26
M  V30 26 1 26 27
M  V30 27 2 26 28
M  V30 28 1 28 3
M  V30 29 1 24 8
M  V30 30 1 20 14
M  V30 31 1 1 29
M  V30 32 1 1 30
M  V30 33 1 1 31
M  V30 34 1 4 32
M  V30 35 1 10 33
M  V30 36 1 10 34
M  V30 37 1 15 35
M  V30 38 1 16 36
M  V30 39 1 19 37
M  V30 40 1 22 38
M  V30 41 1 23 39
M  V30 42 1 28 40
M  V30 END BOND
M  V30 END CTAB
M  END
>  <Dataset>  (749) 
ChEMBL_Kinases

>  <Ligand_Instance>  (749) 
nan

>  <PDB_ID>  (749) 
nan

>  <Standardized_SMILES>  (749) 
COc1cc(F)c(-c2c(N)c(C(=O)c3ccc(F)cc3F)cc[n+]2[O-])c(F)c1

>  <Name>  (749) 
nan

>  <Pocket>  (749) 
nan

>  <ATP_Site>  (749) 
nan

>  <Peripheral>  (749) 
nan

>  <Num_H_Atoms_ProtBoundConf>  (749) 
nan

>  <Num_Resolved_Atoms>  (749) 
nan

>  <Num_Not_Resolved_Atoms>  (749) 
nan

$$$$
CHEMBL551512
     RDKit          3D

  0  0  0  0  0  0  0  0  0  0999 V3000
M  V30 BEGIN CTAB
M  V30 COUNTS 39 41 0 0 0
M  V30 BEGIN ATOM
M  V30 1 C -2.117552 -3.353190 0.308876 0
M  V30 2 C -1.110913 -3.861991 1.269166 0
M  V30 3 C -0.952382 -5.229304 1.421657 0
M  V30 4 C 0.000821 -5.668672 2.336090 0
M  V30 5 C 0.760160 -4.776229 3.066273 0
M  V30 6 C 0.592332 -3.403634 2.904980 0
M  V30 7 C -0.368567 -2.974462 1.982310 0
M  V30 8 C -0.481817 -1.504754 1.857126 0
M  V30 9 C 0.352954 -0.855805 0.926993 0
M  V30 10 N 1.243808 -1.715957 0.191267 0
M  V30 11 C 0.259115 0.506361 0.795485 0
M  V30 12 C 1.119600 1.141965 -0.180628 0
M  V30 13 O 1.781591 0.292751 -0.888058 0
M  V30 14 C 1.412005 2.508993 -0.550371 0
M  V30 15 C 1.315895 3.629197 0.247107 0
M  V30 16 C 1.565380 4.931210 -0.112078 0
M  V30 17 C 1.958213 5.128733 -1.430475 0
M  V30 18 C 2.079989 4.077654 -2.288737 0
M  V30 19 C 1.812590 2.808970 -1.852453 0
M  V30 20 C -0.668236 1.112773 1.610225 0
M  V30 21 C -1.485063 0.491450 2.518346 0
M  V30 22 N -1.366521 -0.843258 2.621678 0 CHG=1 VAL=4
M  V30 23 O -2.165550 -1.516247 3.519703 0 CHG=-1 VAL=1
M  V30 24 H -3.131983 -3.282167 0.771443 0
M  V30 25 H -2.203042 -4.110042 -0.519049 0
M  V30 26 H -1.871909 -2.408245 -0.171458 0
M  V30 27 H -1.554894 -5.917349 0.842499 0
M  V30 28 H 0.114770 -6.726795 2.443017 0
M  V30 29 H 1.467259 -5.252475 3.750015 0
M  V30 30 H 1.241762 -2.806404 3.529701 0
M  V30 31 H 2.190636 -1.719258 0.640650 0
M  V30 32 H 0.802154 -2.176219 -0.643171 0
M  V30 33 H 1.031730 3.508467 1.272432 0
M  V30 34 H 1.462947 5.748875 0.581850 0
M  V30 35 H 2.173901 6.109455 -1.797675 0
M  V30 36 H 2.389692 4.254270 -3.321154 0
M  V30 37 H 1.928241 2.010735 -2.578769 0
M  V30 38 H -0.800238 2.171162 1.544312 0
M  V30 39 H -2.191912 1.028632 3.126989 0
M  V30 END ATOM
M  V30 BEGIN BOND
M  V30 1 1 1 2
M  V30 2 2 2 3
M  V30 3 1 3 4
M  V30 4 2 4 5
M  V30 5 1 5 6
M  V30 6 2 6 7
M  V30 7 1 7 8
M  V30 8 2 8 9
M  V30 9 1 9 10
M  V30 10 1 9 11
M  V30 11 1 11 12
M  V30 12 2 12 13
M  V30 13 1 12 14
M  V30 14 2 14 15
M  V30 15 1 15 16
M  V30 16 2 16 17
M  V30 17 1 17 18
M  V30 18 2 18 19
M  V30 19 2 11 20
M  V30 20 1 20 21
M  V30 21 2 21 22
M  V30 22 1 22 23
M  V30 23 1 7 2
M  V30 24 1 22 8
M  V30 25 1 19 14
M  V30 26 1 1 24
M  V30 27 1 1 25
M  V30 28 1 1 26
M  V30 29 1 3 27
M  V30 30 1 4 28
M  V30 31 1 5 29
M  V30 32 1 6 30
M  V30 33 1 10 31
M  V30 34 1 10 32
M  V30 35 1 15 33
M  V30 36 1 16 34
M  V30 37 1 17 35
M  V30 38 1 18 36
M  V30 39 1 19 37
M  V30 40 1 20 38
M  V30 41 1 21 39
M  V30 END BOND
M  V30 END CTAB
M  END
>  <Dataset>  (750) 
ChEMBL_Kinases

>  <Ligand_Instance>  (750) 
nan

>  <PDB_ID>  (750) 
nan

>  <Standardized_SMILES>  (750) 
Cc1ccccc1-c1c(N)c(C(=O)c2ccccc2)cc[n+]1[O-]

>  <Name>  (750) 
nan

>  <Pocket>  (750) 
nan

>  <ATP_Site>  (750) 
nan

>  <Peripheral>  (750) 
nan

>  <Num_H_Atoms_ProtBoundConf>  (750) 
nan

>  <Num_Resolved_Atoms>  (750) 
nan

>  <Num_Not_Resolved_Atoms>  (750) 
nan

$$$$
CHEMBL551716
     RDKit          3D

  0  0  0  0  0  0  0  0  0  0999 V3000
M  V30 BEGIN CTAB
M  V30 COUNTS 40 42 0 0 0
M  V30 BEGIN ATOM
M  V30 1 C 1.235383 -4.824431 1.310785 0
M  V30 2 O 0.987317 -3.607780 0.631781 0
M  V30 3 C 1.837079 -3.215379 -0.382494 0
M  V30 4 C 2.927831 -3.995380 -0.744125 0
M  V30 5 C 3.747765 -3.557740 -1.766026 0
M  V30 6 C 3.555577 -2.378980 -2.465072 0
M  V30 7 C 2.461067 -1.599634 -2.099745 0
M  V30 8 C 1.629760 -2.019750 -1.080953 0
M  V30 9 C 0.457848 -1.239437 -0.650137 0
M  V30 10 C 0.626383 -0.287165 0.362519 0
M  V30 11 N 1.938244 -0.135267 0.915447 0
M  V30 12 C -0.491661 0.421505 0.737373 0
M  V30 13 C -0.312960 1.400516 1.793805 0
M  V30 14 O 0.853432 1.475305 2.310855 0
M  V30 15 C -1.162139 2.361675 2.444026 0
M  V30 16 C -1.212573 2.460088 3.837760 0
M  V30 17 C -2.013368 3.344055 4.521894 0
M  V30 18 C -2.813666 4.183536 3.814085 0
M  V30 19 F -3.613115 5.064683 4.464982 0
M  V30 20 C -2.829976 4.157973 2.437781 0
M  V30 21 C -2.005895 3.251259 1.819393 0
M  V30 22 F -2.044387 3.269403 0.466272 0
M  V30 23 C -1.665007 0.130280 0.086443 0
M  V30 24 C -1.801888 -0.813454 -0.908133 0
M  V30 25 N -0.708925 -1.497551 -1.266063 0 CHG=1 VAL=4
M  V30 26 O -0.769090 -2.456516 -2.252679 0 CHG=-1 VAL=1
M  V30 27 H 1.025999 -5.680304 0.625818 0
M  V30 28 H 2.267226 -4.881112 1.711531 0
M  V30 29 H 0.494197 -4.861947 2.150424 0
M  V30 30 H 3.117880 -4.924390 -0.226187 0
M  V30 31 H 4.584872 -4.212471 -2.002459 0
M  V30 32 H 4.227162 -2.083165 -3.256204 0
M  V30 33 H 2.261094 -0.669964 -2.609668 0
M  V30 34 H 2.354420 0.708883 0.448816 0
M  V30 35 H 2.368221 -0.748597 1.631571 0
M  V30 36 H -0.569606 1.786081 4.417472 0
M  V30 37 H -1.970444 3.332067 5.606226 0
M  V30 38 H -3.471583 4.831629 1.888656 0
M  V30 39 H -2.550312 0.664945 0.366779 0
M  V30 40 H -2.748682 -1.001915 -1.386721 0
M  V30 END ATOM
M  V30 BEGIN BOND
M  V30 1 1 1 2
M  V30 2 1 2 3
M  V30 3 2 3 4
M  V30 4 1 4 5
M  V30 5 2 5 6
M  V30 6 1 6 7
M  V30 7 2 7 8
M  V30 8 1 8 9
M  V30 9 2 9 10
M  V30 10 1 10 11
M  V30 11 1 10 12
M  V30 12 1 12 13
M  V30 13 2 13 14
M  V30 14 1 13 15
M  V30 15 2 15 16
M  V30 16 1 16 17
M  V30 17 2 17 18
M  V30 18 1 18 19
M  V30 19 1 18 20
M  V30 20 2 20 21
M  V30 21 1 21 22
M  V30 22 2 12 23
M  V30 23 1 23 24
M  V30 24 2 24 25
M  V30 25 1 25 26
M  V30 26 1 8 3
M  V30 27 1 25 9
M  V30 28 1 21 15
M  V30 29 1 1 27
M  V30 30 1 1 28
M  V30 31 1 1 29
M  V30 32 1 4 30
M  V30 33 1 5 31
M  V30 34 1 6 32
M  V30 35 1 7 33
M  V30 36 1 11 34
M  V30 37 1 11 35
M  V30 38 1 16 36
M  V30 39 1 17 37
M  V30 40 1 20 38
M  V30 41 1 23 39
M  V30 42 1 24 40
M  V30 END BOND
M  V30 END CTAB
M  END
>  <Dataset>  (751) 
ChEMBL_Kinases

>  <Ligand_Instance>  (751) 
nan

>  <PDB_ID>  (751) 
nan

>  <Standardized_SMILES>  (751) 
COc1ccccc1-c1c(N)c(C(=O)c2ccc(F)cc2F)cc[n+]1[O-]

>  <Name>  (751) 
nan

>  <Pocket>  (751) 
nan

>  <ATP_Site>  (751) 
nan

>  <Peripheral>  (751) 
nan

>  <Num_H_Atoms_ProtBoundConf>  (751) 
nan

>  <Num_Resolved_Atoms>  (751) 
nan

>  <Num_Not_Resolved_Atoms>  (751) 
nan

$$$$
CHEMBL551717
     RDKit          3D

  0  0  0  0  0  0  0  0  0  0999 V3000
M  V30 BEGIN CTAB
M  V30 COUNTS 39 41 0 0 0
M  V30 BEGIN ATOM
M  V30 1 C -1.959416 -2.951616 -0.895968 0
M  V30 2 C -0.729796 -3.736157 -0.715777 0
M  V30 3 C -0.379985 -4.883029 -1.404115 0
M  V30 4 C 0.793121 -5.567282 -1.180764 0
M  V30 5 C 1.678053 -5.092485 -0.218798 0
M  V30 6 C 1.334186 -3.963499 0.459127 0
M  V30 7 C 0.143672 -3.265424 0.235397 0
M  V30 8 C -0.039646 -2.063755 1.077043 0
M  V30 9 C 0.449499 -0.848295 0.577842 0
M  V30 10 N 1.091018 -0.846535 -0.705729 0
M  V30 11 C 0.262639 0.250406 1.385810 0
M  V30 12 C 0.782041 1.502593 0.863360 0
M  V30 13 O 1.398477 1.468489 -0.241294 0
M  V30 14 C 0.772033 2.881516 1.322003 0
M  V30 15 C 1.913042 3.661437 1.349378 0
M  V30 16 C 1.967375 4.950275 1.783453 0
M  V30 17 C 0.807412 5.541338 2.234035 0
M  V30 18 F 0.842885 6.822092 2.669576 0
M  V30 19 C -0.379552 4.839230 2.242986 0
M  V30 20 C -0.347768 3.538556 1.786341 0
M  V30 21 F -1.544330 2.905479 1.806451 0
M  V30 22 C -0.374622 0.068479 2.590455 0
M  V30 23 C -0.842937 -1.138329 3.051067 0
M  V30 24 N -0.660399 -2.211707 2.261347 0 CHG=1 VAL=4
M  V30 25 O -1.103865 -3.450578 2.659505 0 CHG=-1 VAL=1
M  V30 26 H -1.786733 -1.865233 -0.945048 0
M  V30 27 H -2.436331 -3.235551 -1.864812 0
M  V30 28 H -2.737520 -3.217304 -0.131379 0
M  V30 29 H -1.094034 -5.212872 -2.137665 0
M  V30 30 H 1.049016 -6.461133 -1.728254 0
M  V30 31 H 2.602365 -5.625355 -0.037801 0
M  V30 32 H 2.059237 -3.626917 1.205307 0
M  V30 33 H 0.389324 -0.451505 -1.400403 0
M  V30 34 H 2.058430 -1.181754 -0.855086 0
M  V30 35 H 2.854759 3.249759 1.007083 0
M  V30 36 H 2.882387 5.542666 1.794040 0
M  V30 37 H -1.269467 5.316809 2.596970 0
M  V30 38 H -0.516290 0.914329 3.225114 0
M  V30 39 H -1.341316 -1.197941 4.025317 0
M  V30 END ATOM
M  V30 BEGIN BOND
M  V30 1 1 1 2
M  V30 2 2 2 3
M  V30 3 1 3 4
M  V30 4 2 4 5
M  V30 5 1 5 6
M  V30 6 2 6 7
M  V30 7 1 7 8
M  V30 8 2 8 9
M  V30 9 1 9 10
M  V30 10 1 9 11
M  V30 11 1 11 12
M  V30 12 2 12 13
M  V30 13 1 12 14
M  V30 14 2 14 15
M  V30 15 1 15 16
M  V30 16 2 16 17
M  V30 17 1 17 18
M  V30 18 1 17 19
M  V30 19 2 19 20
M  V30 20 1 20 21
M  V30 21 2 11 22
M  V30 22 1 22 23
M  V30 23 2 23 24
M  V30 24 1 24 25
M  V30 25 1 7 2
M  V30 26 1 24 8
M  V30 27 1 20 14
M  V30 28 1 1 26
M  V30 29 1 1 27
M  V30 30 1 1 28
M  V30 31 1 3 29
M  V30 32 1 4 30
M  V30 33 1 5 31
M  V30 34 1 6 32
M  V30 35 1 10 33
M  V30 36 1 10 34
M  V30 37 1 15 35
M  V30 38 1 16 36
M  V30 39 1 19 37
M  V30 40 1 22 38
M  V30 41 1 23 39
M  V30 END BOND
M  V30 END CTAB
M  END
>  <Dataset>  (752) 
ChEMBL_Kinases

>  <Ligand_Instance>  (752) 
nan

>  <PDB_ID>  (752) 
nan

>  <Standardized_SMILES>  (752) 
Cc1ccccc1-c1c(N)c(C(=O)c2ccc(F)cc2F)cc[n+]1[O-]

>  <Name>  (752) 
nan

>  <Pocket>  (752) 
nan

>  <ATP_Site>  (752) 
nan

>  <Peripheral>  (752) 
nan

>  <Num_H_Atoms_ProtBoundConf>  (752) 
nan

>  <Num_Resolved_Atoms>  (752) 
nan

>  <Num_Not_Resolved_Atoms>  (752) 
nan

$$$$
CHEMBL3728600
     RDKit          3D

  0  0  0  0  0  0  0  0  0  0999 V3000
M  V30 BEGIN CTAB
M  V30 COUNTS 58 61 0 0 0
M  V30 BEGIN ATOM
M  V30 1 C 6.570532 -0.211365 4.347933 0
M  V30 2 N 5.133196 -0.516485 4.284094 0
M  V30 3 C 4.384303 -1.056110 5.403409 0
M  V30 4 C 4.419825 -0.280317 3.072195 0
M  V30 5 O 3.181491 -0.517429 2.956000 0
M  V30 6 N 5.014716 0.243976 1.866129 0
M  V30 7 C 3.920179 0.308546 0.919934 0
M  V30 8 C 3.102232 1.405995 0.750243 0
M  V30 9 C 2.090258 1.308725 -0.189774 0
M  V30 10 C 1.966910 0.126116 -0.891866 0
M  V30 11 C 0.832533 0.127170 -1.873610 0 CFG=1
M  V30 12 C -0.448962 0.070133 -1.033575 0
M  V30 13 N -1.473177 -0.446093 -1.875219 0
M  V30 14 C -2.271828 -1.464648 -1.356045 0
M  V30 15 N -3.299900 -1.015265 -0.614719 0
M  V30 16 C -4.197462 -1.828416 -0.016831 0
M  V30 17 C -5.293645 -1.295525 0.784010 0
M  V30 18 C -6.241563 -2.065654 1.424462 0
M  V30 19 C -7.237407 -1.504522 2.157304 0
M  V30 20 N -7.365551 -0.160594 2.307666 0
M  V30 21 C -6.431459 0.606364 1.676672 0
M  V30 22 C -5.384216 0.088329 0.909044 0
M  V30 23 F -4.520771 0.958821 0.333263 0
M  V30 24 C -3.993530 -3.175948 -0.215492 0
M  V30 25 C -2.928058 -3.598751 -0.981977 0
M  V30 26 O -2.790774 -4.845306 -1.130117 0
M  V30 27 N -2.058774 -2.767044 -1.559334 0
M  V30 28 C -0.937429 -3.202086 -2.367178 0
M  V30 29 C -1.420498 0.249891 -3.110149 0
M  V30 30 C -0.519423 1.442809 -3.110605 0
M  V30 31 O 0.743608 1.255388 -2.635719 0
M  V30 32 C 2.782564 -0.974826 -0.726993 0
M  V30 33 C 3.792006 -0.870146 0.214434 0
M  V30 34 H 7.157342 -0.969741 3.770558 0
M  V30 35 H 6.724193 0.825045 3.997607 0
M  V30 36 H 6.940768 -0.275847 5.384552 0
M  V30 37 H 5.058604 -1.490713 6.170864 0
M  V30 38 H 3.690376 -0.318684 5.828617 0
M  V30 39 H 3.739548 -1.896729 5.041841 0
M  V30 40 H 6.035993 0.461597 1.893265 0
M  V30 41 H 3.300696 2.278707 1.362697 0
M  V30 42 H 1.440817 2.160749 -0.334187 0
M  V30 43 H 0.873529 -0.812188 -2.426855 0
M  V30 44 H -0.275371 -0.534464 -0.117592 0
M  V30 45 H -0.672678 1.140384 -0.764985 0
M  V30 46 H -6.184628 -3.140596 1.336622 0
M  V30 47 H -7.961530 -2.140885 2.644956 0
M  V30 48 H -6.593627 1.679746 1.840464 0
M  V30 49 H -4.661234 -3.899595 0.224693 0
M  V30 50 H 0.037165 -3.003291 -1.891807 0
M  V30 51 H -1.016710 -2.809571 -3.411416 0
M  V30 52 H -1.043324 -4.323678 -2.449989 0
M  V30 53 H -2.448251 0.518379 -3.421717 0
M  V30 54 H -1.035094 -0.461265 -3.893101 0
M  V30 55 H -1.009009 2.228907 -2.466824 0
M  V30 56 H -0.432737 1.912631 -4.110837 0
M  V30 57 H 2.543085 -1.817523 -1.362262 0
M  V30 58 H 4.416756 -1.744958 0.324511 0
M  V30 END ATOM
M  V30 BEGIN BOND
M  V30 1 1 1 2
M  V30 2 1 2 3
M  V30 3 1 2 4
M  V30 4 2 4 5
M  V30 5 1 4 6
M  V30 6 1 6 7
M  V30 7 2 7 8
M  V30 8 1 8 9
M  V30 9 2 9 10
M  V30 10 1 10 11
M  V30 11 1 11 12
M  V30 12 1 12 13
M  V30 13 1 13 14
M  V30 14 2 14 15
M  V30 15 1 15 16
M  V30 16 1 16 17
M  V30 17 2 17 18
M  V30 18 1 18 19
M  V30 19 2 19 20
M  V30 20 1 20 21
M  V30 21 2 21 22
M  V30 22 1 22 23
M  V30 23 2 16 24
M  V30 24 1 24 25
M  V30 25 2 25 26
M  V30 26 1 25 27
M  V30 27 1 27 28
M  V30 28 1 13 29
M  V30 29 1 29 30
M  V30 30 1 30 31
M  V30 31 1 10 32
M  V30 32 2 32 33
M  V30 33 1 33 7
M  V30 34 1 31 11
M  V30 35 1 27 14
M  V30 36 1 22 17
M  V30 37 1 1 34
M  V30 38 1 1 35
M  V30 39 1 1 36
M  V30 40 1 3 37
M  V30 41 1 3 38
M  V30 42 1 3 39
M  V30 43 1 6 40
M  V30 44 1 8 41
M  V30 45 1 9 42
M  V30 46 1 11 43 CFG=3
M  V30 47 1 12 44
M  V30 48 1 12 45
M  V30 49 1 18 46
M  V30 50 1 19 47
M  V30 51 1 21 48
M  V30 52 1 24 49
M  V30 53 1 28 50
M  V30 54 1 28 51
M  V30 55 1 28 52
M  V30 56 1 29 53
M  V30 57 1 29 54
M  V30 58 1 30 55
M  V30 59 1 30 56
M  V30 60 1 32 57
M  V30 61 1 33 58
M  V30 END BOND
M  V30 END CTAB
M  END
>  <Dataset>  (753) 
ChEMBL_Kinases

>  <Ligand_Instance>  (753) 
nan

>  <PDB_ID>  (753) 
nan

>  <Standardized_SMILES>  (753) 
CN(C)C(=O)Nc1ccc([C@H]2CN(c3nc(-c4ccncc4F)cc(=O)n3C)CCO2)cc1

>  <Name>  (753) 
nan

>  <Pocket>  (753) 
nan

>  <ATP_Site>  (753) 
nan

>  <Peripheral>  (753) 
nan

>  <Num_H_Atoms_ProtBoundConf>  (753) 
nan

>  <Num_Resolved_Atoms>  (753) 
nan

>  <Num_Not_Resolved_Atoms>  (753) 
nan

$$$$
CHEMBL552339
     RDKit          3D

  0  0  0  0  0  0  0  0  0  0999 V3000
M  V30 BEGIN CTAB
M  V30 COUNTS 42 46 0 0 0
M  V30 BEGIN ATOM
M  V30 1 C 0.005360 -6.312238 -1.199191 0
M  V30 2 C 0.795029 -5.062764 -0.961842 0 CFG=2
M  V30 3 C -0.063874 -3.902214 -0.533329 0
M  V30 4 N 0.764124 -2.821649 0.027239 0
M  V30 5 C 1.495411 -1.818444 -0.666380 0
M  V30 6 C 2.286732 -2.300618 -1.757716 0
M  V30 7 S 3.183551 -0.871289 -2.365058 0
M  V30 8 C 2.466657 0.271981 -1.157617 0
M  V30 9 C 2.743264 1.600953 -1.070597 0
M  V30 10 C 2.093467 2.321274 -0.091998 0
M  V30 11 C 1.220625 1.573259 0.689781 0
M  V30 12 N 0.588701 2.370570 1.609697 0
M  V30 13 C -0.330403 1.886711 2.460263 0
M  V30 14 C -0.952989 2.802222 3.407181 0
M  V30 15 C -0.543112 4.118876 3.356177 0
M  V30 16 C -1.090105 5.064095 4.230098 0
M  V30 17 N -2.021618 4.714523 5.134096 0
M  V30 18 C -2.417153 3.430282 5.179244 0
M  V30 19 C -1.906984 2.450021 4.334731 0
M  V30 20 C -0.616957 0.536317 2.368013 0
M  V30 21 C 0.038708 -0.227573 1.433609 0
M  V30 22 C 0.980788 0.229232 0.555757 0
M  V30 23 C 1.625379 -0.490399 -0.406917 0
M  V30 24 C 2.468672 -3.606510 -2.423409 0
M  V30 25 O 3.392036 -3.669737 -3.238274 0
M  V30 26 N 1.602183 -4.726728 -2.119620 0
M  V30 27 H 0.498350 -7.169104 -0.698572 0
M  V30 28 H -0.090066 -6.498239 -2.285274 0
M  V30 29 H -1.005124 -6.143887 -0.749028 0
M  V30 30 H 1.505603 -5.231925 -0.097522 0
M  V30 31 H -0.708161 -3.525222 -1.333782 0
M  V30 32 H -0.723618 -4.257956 0.284430 0
M  V30 33 H 0.936696 -2.687586 1.085751 0
M  V30 34 H 3.435738 2.067287 -1.733449 0
M  V30 35 H 2.282990 3.367855 0.013815 0
M  V30 36 H 0.190819 4.537417 2.686602 0
M  V30 37 H -0.789670 6.108016 4.216226 0
M  V30 38 H -3.172278 3.077320 5.891307 0
M  V30 39 H -2.234572 1.428252 4.384607 0
M  V30 40 H -1.351215 0.184671 3.055712 0
M  V30 41 H -0.320969 -1.212353 1.462643 0
M  V30 42 H 1.602878 -5.397243 -2.945692 0
M  V30 END ATOM
M  V30 BEGIN BOND
M  V30 1 1 1 2
M  V30 2 1 2 3
M  V30 3 1 3 4
M  V30 4 1 4 5
M  V30 5 2 5 6
M  V30 6 1 6 7
M  V30 7 1 7 8
M  V30 8 2 8 9
M  V30 9 1 9 10
M  V30 10 2 10 11
M  V30 11 1 11 12
M  V30 12 2 12 13
M  V30 13 1 13 14
M  V30 14 2 14 15
M  V30 15 1 15 16
M  V30 16 2 16 17
M  V30 17 1 17 18
M  V30 18 2 18 19
M  V30 19 1 13 20
M  V30 20 2 20 21
M  V30 21 1 21 22
M  V30 22 2 22 23
M  V30 23 1 6 24
M  V30 24 2 24 25
M  V30 25 1 24 26
M  V30 26 1 26 2
M  V30 27 1 23 5
M  V30 28 1 23 8
M  V30 29 1 22 11
M  V30 30 1 19 14
M  V30 31 1 1 27
M  V30 32 1 1 28
M  V30 33 1 1 29
M  V30 34 1 2 30 CFG=1
M  V30 35 1 3 31
M  V30 36 1 3 32
M  V30 37 1 4 33
M  V30 38 1 9 34
M  V30 39 1 10 35
M  V30 40 1 15 36
M  V30 41 1 16 37
M  V30 42 1 18 38
M  V30 43 1 19 39
M  V30 44 1 20 40
M  V30 45 1 21 41
M  V30 46 1 26 42
M  V30 END BOND
M  V30 END CTAB
M  END
>  <Dataset>  (754) 
ChEMBL_Kinases

>  <Ligand_Instance>  (754) 
nan

>  <PDB_ID>  (754) 
nan

>  <Standardized_SMILES>  (754) 
C[C@@H]1CNc2c(sc3ccc4nc(-c5ccncc5)ccc4c23)C(=O)N1

>  <Name>  (754) 
nan

>  <Pocket>  (754) 
nan

>  <ATP_Site>  (754) 
nan

>  <Peripheral>  (754) 
nan

>  <Num_H_Atoms_ProtBoundConf>  (754) 
nan

>  <Num_Resolved_Atoms>  (754) 
nan

>  <Num_Not_Resolved_Atoms>  (754) 
nan

$$$$
CHEMBL551773
     RDKit          3D

  0  0  0  0  0  0  0  0  0  0999 V3000
M  V30 BEGIN CTAB
M  V30 COUNTS 40 43 0 0 0
M  V30 BEGIN ATOM
M  V30 1 C 0.437911 -5.975176 3.059051 0
M  V30 2 N 1.251150 -4.878137 2.547214 0
M  V30 3 C 0.161936 -4.130856 2.097537 0
M  V30 4 N 1.223462 -3.230117 1.872342 0
M  V30 5 C 1.082282 -1.968093 1.340723 0
M  V30 6 N 1.901131 -0.883676 1.016743 0
M  V30 7 C 1.177109 0.097043 0.527646 0
M  V30 8 C 1.701785 1.367293 0.079558 0
M  V30 9 C 3.081460 1.578332 0.036377 0
M  V30 10 C 3.652522 2.788755 -0.353230 0
M  V30 11 C 2.694935 3.698800 -0.674015 0
M  V30 12 C 1.373519 3.742268 -0.713339 0
M  V30 13 O 0.136777 4.376286 -0.947067 0
M  V30 14 C 0.284666 5.731224 -1.392385 0
M  V30 15 C 0.947321 2.457667 -0.295838 0
M  V30 16 C -0.176040 -0.218400 0.471494 0
M  V30 17 C -0.169087 -1.486688 0.978730 0
M  V30 18 C -1.230393 -2.322833 1.176451 0
M  V30 19 C -0.799632 -3.470877 1.700425 0
M  V30 20 N -1.891838 -4.310909 1.874420 0
M  V30 21 C -2.995683 -3.668795 1.453960 0
M  V30 22 N -2.548436 -2.464367 1.037143 0
M  V30 23 C -3.290161 -1.349257 0.466982 0
M  V30 24 H -0.013592 -5.667960 4.055037 0
M  V30 25 H 0.988646 -6.920967 3.308861 0
M  V30 26 H -0.409827 -6.263633 2.422654 0
M  V30 27 H 1.997289 -5.432771 2.878245 0
M  V30 28 H 2.923998 -0.987028 1.195941 0
M  V30 29 H 3.806899 0.808161 0.299398 0
M  V30 30 H 4.661245 3.102742 -0.441432 0
M  V30 31 H 2.943997 4.738802 -1.017638 0
M  V30 32 H 0.897068 5.677616 -2.336338 0
M  V30 33 H 0.834505 6.287017 -0.609294 0
M  V30 34 H -0.684087 6.167479 -1.666273 0
M  V30 35 H -0.121766 2.126449 -0.201328 0
M  V30 36 H -1.056988 0.334956 0.131341 0
M  V30 37 H -4.021262 -4.009963 1.439514 0
M  V30 38 H -4.375876 -1.629855 0.463178 0
M  V30 39 H -3.152566 -0.425113 1.047991 0
M  V30 40 H -3.020901 -1.233863 -0.624949 0
M  V30 END ATOM
M  V30 BEGIN BOND
M  V30 1 1 1 2
M  V30 2 1 2 3
M  V30 3 2 3 4
M  V30 4 1 4 5
M  V30 5 1 5 6
M  V30 6 1 6 7
M  V30 7 1 7 8
M  V30 8 2 8 9
M  V30 9 1 9 10
M  V30 10 2 10 11
M  V30 11 1 11 12
M  V30 12 1 12 13
M  V30 13 1 13 14
M  V30 14 2 12 15
M  V30 15 2 7 16
M  V30 16 1 16 17
M  V30 17 1 17 18
M  V30 18 2 18 19
M  V30 19 1 19 20
M  V30 20 2 20 21
M  V30 21 1 21 22
M  V30 22 1 22 23
M  V30 23 1 19 3
M  V30 24 2 17 5
M  V30 25 1 22 18
M  V30 26 1 15 8
M  V30 27 1 1 24
M  V30 28 1 1 25
M  V30 29 1 1 26
M  V30 30 1 2 27
M  V30 31 1 6 28
M  V30 32 1 9 29
M  V30 33 1 10 30
M  V30 34 1 11 31
M  V30 35 1 14 32
M  V30 36 1 14 33
M  V30 37 1 14 34
M  V30 38 1 15 35
M  V30 39 1 16 36
M  V30 40 1 21 37
M  V30 41 1 23 38
M  V30 42 1 23 39
M  V30 43 1 23 40
M  V30 END BOND
M  V30 END CTAB
M  END
>  <Dataset>  (755) 
ChEMBL_Kinases

>  <Ligand_Instance>  (755) 
nan

>  <PDB_ID>  (755) 
nan

>  <Standardized_SMILES>  (755) 
CNc1nc2[nH]c(-c3cccc(OC)c3)cc2c2c1ncn2C

>  <Name>  (755) 
nan

>  <Pocket>  (755) 
nan

>  <ATP_Site>  (755) 
nan

>  <Peripheral>  (755) 
nan

>  <Num_H_Atoms_ProtBoundConf>  (755) 
nan

>  <Num_Resolved_Atoms>  (755) 
nan

>  <Num_Not_Resolved_Atoms>  (755) 
nan

$$$$
CHEMBL3728584
     RDKit          3D

  0  0  0  0  0  0  0  0  0  0999 V3000
M  V30 BEGIN CTAB
M  V30 COUNTS 39 41 0 0 0
M  V30 BEGIN ATOM
M  V30 1 C 2.288268 -3.282539 1.522067 0
M  V30 2 C 1.867788 -2.608993 0.265819 0
M  V30 3 C 2.456770 -3.093740 -0.876528 0
M  V30 4 C 3.396166 -4.116671 -1.174478 0
M  V30 5 N 4.154996 -5.094887 -0.489879 0
M  V30 6 O 3.785469 -4.372581 -2.321483 0
M  V30 7 S 1.769994 -2.098253 -2.179216 0
M  V30 8 C 0.734964 -1.092871 -1.113589 0
M  V30 9 N -0.112265 -0.081192 -1.396205 0
M  V30 10 C -0.799106 0.542564 -0.426792 0
M  V30 11 C -1.706197 1.628107 -0.740856 0
M  V30 12 C -1.872755 2.029033 -2.027599 0
M  V30 13 C -2.725438 3.059398 -2.383592 0
M  V30 14 N -3.406277 3.669701 -1.372915 0
M  V30 15 C -3.235386 3.266292 -0.101164 0
M  V30 16 C -2.394701 2.241418 0.304732 0
M  V30 17 N -0.552288 0.062264 0.786198 0
M  V30 18 C 0.256774 -0.915927 1.129450 0
M  V30 19 N 0.269735 -1.191983 2.517592 0
M  V30 20 C -0.506741 -0.451070 3.492281 0
M  V30 21 C 0.068557 0.948702 3.568198 0
M  V30 22 N -0.706225 1.688656 4.548275 0
M  V30 23 C 0.976574 -1.577318 0.164901 0
M  V30 24 H 2.755618 -2.491497 2.166053 0
M  V30 25 H 1.499059 -3.791224 2.066686 0
M  V30 26 H 3.086765 -4.038196 1.342876 0
M  V30 27 H 5.179618 -5.103641 -0.272026 0
M  V30 28 H 3.612573 -5.936019 -0.149783 0
M  V30 29 H -1.323460 1.527963 -2.790079 0
M  V30 30 H -2.828616 3.347103 -3.420559 0
M  V30 31 H -3.787334 3.762447 0.709703 0
M  V30 32 H -2.289034 1.951757 1.336313 0
M  V30 33 H 0.763667 -1.887436 3.101279 0
M  V30 34 H -0.579793 -0.919921 4.479884 0
M  V30 35 H -1.547671 -0.379755 3.028841 0
M  V30 36 H -0.025722 1.418998 2.587048 0
M  V30 37 H 1.134415 0.867031 3.844513 0
M  V30 38 H -0.329928 2.660233 4.563261 0
M  V30 39 H -0.741870 1.213242 5.456885 0
M  V30 END ATOM
M  V30 BEGIN BOND
M  V30 1 1 1 2
M  V30 2 2 2 3
M  V30 3 1 3 4
M  V30 4 1 4 5
M  V30 5 2 4 6
M  V30 6 1 3 7
M  V30 7 1 7 8
M  V30 8 2 8 9
M  V30 9 1 9 10
M  V30 10 1 10 11
M  V30 11 2 11 12
M  V30 12 1 12 13
M  V30 13 2 13 14
M  V30 14 1 14 15
M  V30 15 2 15 16
M  V30 16 2 10 17
M  V30 17 1 17 18
M  V30 18 1 18 19
M  V30 19 1 19 20
M  V30 20 1 20 21
M  V30 21 1 21 22
M  V30 22 2 18 23
M  V30 23 1 23 2
M  V30 24 1 23 8
M  V30 25 1 16 11
M  V30 26 1 1 24
M  V30 27 1 1 25
M  V30 28 1 1 26
M  V30 29 1 5 27
M  V30 30 1 5 28
M  V30 31 1 12 29
M  V30 32 1 13 30
M  V30 33 1 15 31
M  V30 34 1 16 32
M  V30 35 1 19 33
M  V30 36 1 20 34
M  V30 37 1 20 35
M  V30 38 1 21 36
M  V30 39 1 21 37
M  V30 40 1 22 38
M  V30 41 1 22 39
M  V30 END BOND
M  V30 END CTAB
M  END
>  <Dataset>  (756) 
ChEMBL_Kinases

>  <Ligand_Instance>  (756) 
nan

>  <PDB_ID>  (756) 
nan

>  <Standardized_SMILES>  (756) 
Cc1c(C(N)=O)sc2nc(-c3ccncc3)nc(NCCN)c12

>  <Name>  (756) 
nan

>  <Pocket>  (756) 
nan

>  <ATP_Site>  (756) 
nan

>  <Peripheral>  (756) 
nan

>  <Num_H_Atoms_ProtBoundConf>  (756) 
nan

>  <Num_Resolved_Atoms>  (756) 
nan

>  <Num_Not_Resolved_Atoms>  (756) 
nan

$$$$
CHEMBL3728576
     RDKit          3D

  0  0  0  0  0  0  0  0  0  0999 V3000
M  V30 BEGIN CTAB
M  V30 COUNTS 47 52 0 0 0
M  V30 BEGIN ATOM
M  V30 1 C 1.484763 -6.323973 2.578456 0
M  V30 2 C 1.352833 -4.943088 2.737717 0
M  V30 3 C 0.966987 -4.221735 1.654576 0
M  V30 4 C 0.802404 -2.778212 1.722932 0
M  V30 5 N 0.431330 -1.984285 0.727900 0
M  V30 6 C 0.282859 -0.658511 0.802063 0
M  V30 7 N -0.085854 -0.150117 -0.497546 0
M  V30 8 C 0.571568 0.641535 -1.544217 0
M  V30 9 C -0.377055 0.463787 -2.709212 0 CFG=2
M  V30 10 C -1.692958 0.659592 -1.935321 0
M  V30 11 C -1.420632 -0.468496 -0.964396 0 CFG=1
M  V30 12 C -1.225672 -1.581151 -1.979350 0
M  V30 13 N -0.446204 -0.925595 -3.031515 0
M  V30 14 C 0.521165 -0.010486 1.988848 0
M  V30 15 C 0.390191 1.327820 2.143320 0
M  V30 16 C 0.700846 1.775391 3.492645 0
M  V30 17 S 1.123939 0.290486 4.346748 0
M  V30 18 C 0.905416 -0.841526 3.009694 0
M  V30 19 N 1.036477 -2.151254 2.877634 0
M  V30 20 C 0.696349 3.124881 4.082494 0
M  V30 21 C -0.061102 4.129194 3.254713 0
M  V30 22 C -0.856840 3.450984 2.177933 0
M  V30 23 C -0.003704 2.509888 1.347760 0
M  V30 24 C 0.712114 -4.803082 0.445160 0
M  V30 25 C 0.844588 -6.169177 0.294806 0
M  V30 26 N 1.231862 -6.887787 1.384476 0
M  V30 27 H 1.794377 -6.933286 3.433351 0
M  V30 28 H 1.558640 -4.484130 3.709410 0
M  V30 29 H 0.786836 1.663200 -1.267904 0
M  V30 30 H 1.528954 0.133398 -1.858729 0
M  V30 31 H -0.262070 1.143070 -3.525570 0
M  V30 32 H -1.788848 1.644427 -1.491029 0
M  V30 33 H -2.513516 0.404948 -2.641798 0
M  V30 34 H -2.169056 -0.645489 -0.224128 0
M  V30 35 H -0.742881 -2.468045 -1.565114 0
M  V30 36 H -2.236409 -1.778466 -2.431897 0
M  V30 37 H 0.525109 -1.337890 -2.957720 0
M  V30 38 H 0.222928 3.065190 5.077420 0
M  V30 39 H 1.752657 3.455411 4.238647 0
M  V30 40 H -0.720769 4.726741 3.898861 0
M  V30 41 H 0.685787 4.799322 2.776414 0
M  V30 42 H -1.650718 2.854956 2.658707 0
M  V30 43 H -1.319095 4.179887 1.514648 0
M  V30 44 H 0.887661 2.961252 0.919701 0
M  V30 45 H -0.687391 2.125027 0.546322 0
M  V30 46 H 0.402961 -4.264965 -0.441284 0
M  V30 47 H 0.649264 -6.663909 -0.655030 0
M  V30 END ATOM
M  V30 BEGIN BOND
M  V30 1 2 1 2
M  V30 2 1 2 3
M  V30 3 1 3 4
M  V30 4 2 4 5
M  V30 5 1 5 6
M  V30 6 1 6 7
M  V30 7 1 7 8
M  V30 8 1 8 9
M  V30 9 1 9 10
M  V30 10 1 10 11
M  V30 11 1 11 12
M  V30 12 1 12 13
M  V30 13 2 6 14
M  V30 14 1 14 15
M  V30 15 2 15 16
M  V30 16 1 16 17
M  V30 17 1 17 18
M  V30 18 2 18 19
M  V30 19 1 16 20
M  V30 20 1 20 21
M  V30 21 1 21 22
M  V30 22 1 22 23
M  V30 23 2 3 24
M  V30 24 1 24 25
M  V30 25 2 25 26
M  V30 26 1 26 1
M  V30 27 1 19 4
M  V30 28 1 11 7
M  V30 29 1 18 14
M  V30 30 1 13 9
M  V30 31 1 23 15
M  V30 32 1 1 27
M  V30 33 1 2 28
M  V30 34 1 8 29
M  V30 35 1 8 30
M  V30 36 1 9 31 CFG=3
M  V30 37 1 10 32
M  V30 38 1 10 33
M  V30 39 1 11 34 CFG=1
M  V30 40 1 12 35
M  V30 41 1 12 36
M  V30 42 1 13 37
M  V30 43 1 20 38
M  V30 44 1 20 39
M  V30 45 1 21 40
M  V30 46 1 21 41
M  V30 47 1 22 42
M  V30 48 1 22 43
M  V30 49 1 23 44
M  V30 50 1 23 45
M  V30 51 1 24 46
M  V30 52 1 25 47
M  V30 END BOND
M  V30 END CTAB
M  END
>  <Dataset>  (757) 
ChEMBL_Kinases

>  <Ligand_Instance>  (757) 
nan

>  <PDB_ID>  (757) 
nan

>  <Standardized_SMILES>  (757) 
c1cc(-c2nc(N3C[C@@H]4C[C@H]3CN4)c3c4c(sc3n2)CCCC4)ccn1

>  <Name>  (757) 
nan

>  <Pocket>  (757) 
nan

>  <ATP_Site>  (757) 
nan

>  <Peripheral>  (757) 
nan

>  <Num_H_Atoms_ProtBoundConf>  (757) 
nan

>  <Num_Resolved_Atoms>  (757) 
nan

>  <Num_Not_Resolved_Atoms>  (757) 
nan

$$$$
CHEMBL3728571
     RDKit          3D

  0  0  0  0  0  0  0  0  0  0999 V3000
M  V30 BEGIN CTAB
M  V30 COUNTS 56 59 0 0 0
M  V30 BEGIN ATOM
M  V30 1 C 3.376434 -4.861270 3.661374 0
M  V30 2 C 4.604250 -4.915597 2.811085 0
M  V30 3 C 5.260744 -3.569124 2.602613 0
M  V30 4 C 4.357075 -2.620959 1.947844 0
M  V30 5 C 3.601468 -1.820010 1.401597 0
M  V30 6 C 2.696907 -0.892160 0.773925 0
M  V30 7 C 3.239120 0.011195 -0.142083 0
M  V30 8 S 1.728726 1.010213 -0.702369 0
M  V30 9 C 0.633830 0.150177 0.293864 0
M  V30 10 C -0.749227 0.314504 0.445205 0
M  V30 11 N -1.370574 1.330684 -0.320654 0
M  V30 12 C -2.775662 1.510639 -0.178246 0
M  V30 13 C -3.366368 2.569674 -1.036934 0 CFG=1
M  V30 14 N -2.784907 3.891509 -0.785469 0
M  V30 15 C -3.503966 2.260090 -2.481844 0
M  V30 16 C -2.281374 1.949612 -3.210895 0
M  V30 17 C -1.960893 0.586595 -3.241100 0
M  V30 18 C -0.845715 0.086396 -3.879554 0
M  V30 19 C 0.017061 0.949209 -4.530621 0
M  V30 20 C -0.283629 2.306575 -4.512162 0
M  V30 21 C -1.414843 2.798659 -3.862602 0
M  V30 22 N -1.441205 -0.469405 1.287625 0
M  V30 23 C -0.684148 -1.398049 1.947241 0
M  V30 24 C -1.343242 -2.319065 2.904432 0
M  V30 25 C -2.702513 -2.192617 3.085135 0
M  V30 26 C -3.393900 -3.000746 3.949663 0
M  V30 27 N -2.713472 -3.941064 4.635842 0
M  V30 28 C -1.387173 -4.095057 4.486605 0
M  V30 29 C -0.668921 -3.290623 3.619585 0
M  V30 30 N 0.616885 -1.546969 1.799864 0
M  V30 31 C 1.351484 -0.786981 0.969474 0
M  V30 32 H 2.823533 -3.887639 3.535748 0
M  V30 33 H 3.553370 -5.010157 4.747528 0
M  V30 34 H 2.614498 -5.623833 3.329371 0
M  V30 35 H 4.370234 -5.426544 1.873114 0
M  V30 36 H 5.375428 -5.531088 3.347568 0
M  V30 37 H 6.098012 -3.734599 1.890111 0
M  V30 38 H 5.587343 -3.208929 3.592653 0
M  V30 39 H 4.340913 0.121560 -0.476134 0
M  V30 40 H -0.843868 1.944559 -0.970884 0
M  V30 41 H -3.262053 0.550759 -0.427526 0
M  V30 42 H -2.972468 1.802164 0.887546 0
M  V30 43 H -4.438075 2.696869 -0.662906 0
M  V30 44 H -2.079727 4.165374 -1.475379 0
M  V30 45 H -2.403630 3.908048 0.205213 0
M  V30 46 H -4.285939 1.484995 -2.614077 0
M  V30 47 H -3.937242 3.183201 -2.964569 0
M  V30 48 H -2.574485 -0.182044 -2.758606 0
M  V30 49 H -0.611040 -0.966504 -3.894773 0
M  V30 50 H 0.890551 0.565650 -5.031734 0
M  V30 51 H 0.367126 3.025412 -5.011871 0
M  V30 52 H -1.692775 3.834545 -3.818515 0
M  V30 53 H -3.287120 -1.442086 2.546404 0
M  V30 54 H -4.468503 -2.884396 4.078051 0
M  V30 55 H -0.769651 -4.820493 4.996041 0
M  V30 56 H 0.416818 -3.376720 3.462032 0
M  V30 END ATOM
M  V30 BEGIN BOND
M  V30 1 1 1 2
M  V30 2 1 2 3
M  V30 3 1 3 4
M  V30 4 3 4 5
M  V30 5 1 5 6
M  V30 6 2 6 7
M  V30 7 1 7 8
M  V30 8 1 8 9
M  V30 9 2 9 10
M  V30 10 1 10 11
M  V30 11 1 11 12
M  V30 12 1 12 13
M  V30 13 1 13 14
M  V30 14 1 13 15
M  V30 15 1 15 16
M  V30 16 2 16 17
M  V30 17 1 17 18
M  V30 18 2 18 19
M  V30 19 1 19 20
M  V30 20 2 20 21
M  V30 21 1 10 22
M  V30 22 2 22 23
M  V30 23 1 23 24
M  V30 24 2 24 25
M  V30 25 1 25 26
M  V30 26 2 26 27
M  V30 27 1 27 28
M  V30 28 2 28 29
M  V30 29 1 23 30
M  V30 30 2 30 31
M  V30 31 1 31 6
M  V30 32 1 31 9
M  V30 33 1 21 16
M  V30 34 1 29 24
M  V30 35 1 1 32
M  V30 36 1 1 33
M  V30 37 1 1 34
M  V30 38 1 2 35
M  V30 39 1 2 36
M  V30 40 1 3 37
M  V30 41 1 3 38
M  V30 42 1 7 39
M  V30 43 1 11 40
M  V30 44 1 12 41
M  V30 45 1 12 42
M  V30 46 1 13 43 CFG=1
M  V30 47 1 14 44
M  V30 48 1 14 45
M  V30 49 1 15 46
M  V30 50 1 15 47
M  V30 51 1 17 48
M  V30 52 1 18 49
M  V30 53 1 19 50
M  V30 54 1 20 51
M  V30 55 1 21 52
M  V30 56 1 25 53
M  V30 57 1 26 54
M  V30 58 1 28 55
M  V30 59 1 29 56
M  V30 END BOND
M  V30 END CTAB
M  END
>  <Dataset>  (758) 
ChEMBL_Kinases

>  <Ligand_Instance>  (758) 
nan

>  <PDB_ID>  (758) 
nan

>  <Standardized_SMILES>  (758) 
CCCC#Cc1csc2c(NC[C@@H](N)Cc3ccccc3)nc(-c3ccncc3)nc12

>  <Name>  (758) 
nan

>  <Pocket>  (758) 
nan

>  <ATP_Site>  (758) 
nan

>  <Peripheral>  (758) 
nan

>  <Num_H_Atoms_ProtBoundConf>  (758) 
nan

>  <Num_Resolved_Atoms>  (758) 
nan

>  <Num_Not_Resolved_Atoms>  (758) 
nan

$$$$
CHEMBL552113
     RDKit          3D

  0  0  0  0  0  0  0  0  0  0999 V3000
M  V30 BEGIN CTAB
M  V30 COUNTS 44 46 0 0 0
M  V30 BEGIN ATOM
M  V30 1 C 0.717673 -2.461882 -3.502088 0
M  V30 2 O 0.633244 -1.562579 -2.414168 0
M  V30 3 C 1.615923 -0.583324 -2.305798 0
M  V30 4 C 2.679712 -0.425269 -3.194886 0
M  V30 5 C 3.616936 0.569523 -3.023656 0
M  V30 6 C 3.508978 1.438228 -1.946302 0
M  V30 7 C 2.459041 1.286248 -1.064310 0
M  V30 8 O 2.427328 2.183728 -0.031215 0
M  V30 9 C 3.316877 3.217074 0.230781 0
M  V30 10 C 1.522557 0.304143 -1.222131 0
M  V30 11 C 0.448922 0.173543 -0.292602 0
M  V30 12 C 0.505083 -0.603384 0.841266 0
M  V30 13 N 1.674823 -1.313118 1.114054 0
M  V30 14 C -0.598827 -0.642425 1.653276 0
M  V30 15 C -0.486907 -1.478480 2.842794 0
M  V30 16 O 0.562524 -2.090866 3.076756 0
M  V30 17 C -1.440814 -1.765573 3.905243 0
M  V30 18 C -2.764461 -2.088227 3.687174 0
M  V30 19 C -3.682982 -2.365048 4.669394 0
M  V30 20 C -3.279581 -2.324562 5.972889 0
M  V30 21 F -4.124816 -2.584799 6.994987 0
M  V30 22 C -1.968855 -2.008668 6.263733 0
M  V30 23 C -1.052527 -1.730623 5.244134 0
M  V30 24 F 0.241134 -1.420247 5.560642 0
M  V30 25 C -1.709642 0.093390 1.301079 0
M  V30 26 C -1.758076 0.870287 0.161916 0
M  V30 27 N -0.663105 0.896387 -0.624540 0 CHG=1 VAL=4
M  V30 28 O -0.744860 1.680689 -1.752139 0 CHG=-1 VAL=1
M  V30 29 H 1.540402 -3.211177 -3.378803 0
M  V30 30 H 0.915007 -1.942744 -4.474359 0
M  V30 31 H -0.225790 -3.029599 -3.649234 0
M  V30 32 H 2.731883 -1.116427 -4.018272 0
M  V30 33 H 4.421309 0.633236 -3.758185 0
M  V30 34 H 4.282832 2.184619 -1.888596 0
M  V30 35 H 3.112125 4.090411 -0.453769 0
M  V30 36 H 4.371490 2.942824 0.280270 0
M  V30 37 H 3.042506 3.600986 1.255353 0
M  V30 38 H 2.223882 -0.575458 1.645825 0
M  V30 39 H 1.991264 -2.285929 0.893458 0
M  V30 40 H -3.136461 -2.136622 2.673856 0
M  V30 41 H -4.716087 -2.615075 4.462078 0
M  V30 42 H -1.586787 -1.959406 7.263873 0
M  V30 43 H -2.560757 0.060198 1.934881 0
M  V30 44 H -2.664233 1.425180 -0.057072 0
M  V30 END ATOM
M  V30 BEGIN BOND
M  V30 1 1 1 2
M  V30 2 1 2 3
M  V30 3 2 3 4
M  V30 4 1 4 5
M  V30 5 2 5 6
M  V30 6 1 6 7
M  V30 7 1 7 8
M  V30 8 1 8 9
M  V30 9 2 7 10
M  V30 10 1 10 11
M  V30 11 2 11 12
M  V30 12 1 12 13
M  V30 13 1 12 14
M  V30 14 1 14 15
M  V30 15 2 15 16
M  V30 16 1 15 17
M  V30 17 2 17 18
M  V30 18 1 18 19
M  V30 19 2 19 20
M  V30 20 1 20 21
M  V30 21 1 20 22
M  V30 22 2 22 23
M  V30 23 1 23 24
M  V30 24 2 14 25
M  V30 25 1 25 26
M  V30 26 2 26 27
M  V30 27 1 27 28
M  V30 28 1 10 3
M  V30 29 1 27 11
M  V30 30 1 23 17
M  V30 31 1 1 29
M  V30 32 1 1 30
M  V30 33 1 1 31
M  V30 34 1 4 32
M  V30 35 1 5 33
M  V30 36 1 6 34
M  V30 37 1 9 35
M  V30 38 1 9 36
M  V30 39 1 9 37
M  V30 40 1 13 38
M  V30 41 1 13 39
M  V30 42 1 18 40
M  V30 43 1 19 41
M  V30 44 1 22 42
M  V30 45 1 25 43
M  V30 46 1 26 44
M  V30 END BOND
M  V30 END CTAB
M  END
>  <Dataset>  (759) 
ChEMBL_Kinases

>  <Ligand_Instance>  (759) 
nan

>  <PDB_ID>  (759) 
nan

>  <Standardized_SMILES>  (759) 
COc1cccc(OC)c1-c1c(N)c(C(=O)c2ccc(F)cc2F)cc[n+]1[O-]

>  <Name>  (759) 
nan

>  <Pocket>  (759) 
nan

>  <ATP_Site>  (759) 
nan

>  <Peripheral>  (759) 
nan

>  <Num_H_Atoms_ProtBoundConf>  (759) 
nan

>  <Num_Resolved_Atoms>  (759) 
nan

>  <Num_Not_Resolved_Atoms>  (759) 
nan

$$$$
CHEMBL552164
     RDKit          3D

  0  0  0  0  0  0  0  0  0  0999 V3000
M  V30 BEGIN CTAB
M  V30 COUNTS 40 42 0 0 0
M  V30 BEGIN ATOM
M  V30 1 C 0.957030 -3.800116 0.602870 0
M  V30 2 C 1.562298 -3.329418 -0.666784 0
M  V30 3 C 2.508917 -4.092957 -1.319423 0
M  V30 4 C 3.071695 -3.641783 -2.511966 0
M  V30 5 O 4.035182 -4.406598 -3.187195 0
M  V30 6 C 2.648140 -2.414874 -3.006858 0
M  V30 7 C 1.700489 -1.643665 -2.359583 0
M  V30 8 C 1.148979 -2.099916 -1.178373 0
M  V30 9 C 0.147177 -1.298368 -0.481877 0
M  V30 10 C 0.543844 -0.370114 0.465370 0
M  V30 11 N 1.937313 -0.237227 0.721717 0
M  V30 12 C -0.451537 0.353106 1.085557 0
M  V30 13 C -0.000699 1.323341 2.075507 0
M  V30 14 O 1.227279 1.457004 2.297633 0
M  V30 15 C -0.741512 2.242626 2.927371 0
M  V30 16 C -1.856920 1.906513 3.649843 0
M  V30 17 C -2.566177 2.761842 4.460232 0
M  V30 18 C -2.129846 4.066484 4.562909 0
M  V30 19 F -2.843062 4.908086 5.371716 0
M  V30 20 C -1.013202 4.473297 3.862876 0
M  V30 21 C -0.340821 3.565163 3.062637 0
M  V30 22 F 0.752954 4.026928 2.397774 0
M  V30 23 C -1.774046 0.143257 0.759946 0
M  V30 24 C -2.119641 -0.801624 -0.198965 0
M  V30 25 N -1.148582 -1.527724 -0.824122 0 CHG=1 VAL=4
M  V30 26 O -1.498356 -2.456943 -1.768035 0 CHG=-1 VAL=1
M  V30 27 H 0.994196 -4.910122 0.628108 0
M  V30 28 H 1.574260 -3.458681 1.471816 0
M  V30 29 H -0.101291 -3.526374 0.711611 0
M  V30 30 H 2.845767 -5.063217 -0.930720 0
M  V30 31 H 3.938843 -5.414314 -3.305662 0
M  V30 32 H 3.088884 -2.058826 -3.943210 0
M  V30 33 H 1.371746 -0.688023 -2.746693 0
M  V30 34 H 2.553268 0.197714 0.000709 0
M  V30 35 H 2.242264 -0.607411 1.663282 0
M  V30 36 H -2.231071 0.903322 3.602612 0
M  V30 37 H -3.442754 2.431567 5.006196 0
M  V30 38 H -0.695850 5.504991 3.964805 0
M  V30 39 H -2.534807 0.706938 1.242470 0
M  V30 40 H -3.156873 -0.972326 -0.460272 0
M  V30 END ATOM
M  V30 BEGIN BOND
M  V30 1 1 1 2
M  V30 2 2 2 3
M  V30 3 1 3 4
M  V30 4 1 4 5
M  V30 5 2 4 6
M  V30 6 1 6 7
M  V30 7 2 7 8
M  V30 8 1 8 9
M  V30 9 2 9 10
M  V30 10 1 10 11
M  V30 11 1 10 12
M  V30 12 1 12 13
M  V30 13 2 13 14
M  V30 14 1 13 15
M  V30 15 2 15 16
M  V30 16 1 16 17
M  V30 17 2 17 18
M  V30 18 1 18 19
M  V30 19 1 18 20
M  V30 20 2 20 21
M  V30 21 1 21 22
M  V30 22 2 12 23
M  V30 23 1 23 24
M  V30 24 2 24 25
M  V30 25 1 25 26
M  V30 26 1 8 2
M  V30 27 1 25 9
M  V30 28 1 21 15
M  V30 29 1 1 27
M  V30 30 1 1 28
M  V30 31 1 1 29
M  V30 32 1 3 30
M  V30 33 1 5 31
M  V30 34 1 6 32
M  V30 35 1 7 33
M  V30 36 1 11 34
M  V30 37 1 11 35
M  V30 38 1 16 36
M  V30 39 1 17 37
M  V30 40 1 20 38
M  V30 41 1 23 39
M  V30 42 1 24 40
M  V30 END BOND
M  V30 END CTAB
M  END
>  <Dataset>  (760) 
ChEMBL_Kinases

>  <Ligand_Instance>  (760) 
nan

>  <PDB_ID>  (760) 
nan

>  <Standardized_SMILES>  (760) 
Cc1cc(O)ccc1-c1c(N)c(C(=O)c2ccc(F)cc2F)cc[n+]1[O-]

>  <Name>  (760) 
nan

>  <Pocket>  (760) 
nan

>  <ATP_Site>  (760) 
nan

>  <Peripheral>  (760) 
nan

>  <Num_H_Atoms_ProtBoundConf>  (760) 
nan

>  <Num_Resolved_Atoms>  (760) 
nan

>  <Num_Not_Resolved_Atoms>  (760) 
nan

$$$$
CHEMBL552183
     RDKit          3D

  0  0  0  0  0  0  0  0  0  0999 V3000
M  V30 BEGIN CTAB
M  V30 COUNTS 46 49 0 0 0
M  V30 BEGIN ATOM
M  V30 1 C 0.793588 -5.569357 4.138485 0
M  V30 2 N -0.416562 -5.545595 3.338183 0
M  V30 3 C -0.663542 -4.491579 2.416017 0
M  V30 4 N 0.208800 -3.479125 2.246255 0
M  V30 5 C -0.013139 -2.470093 1.372552 0
M  V30 6 N 0.717659 -1.377311 1.051694 0
M  V30 7 C 0.052395 -0.671109 0.110291 0
M  V30 8 C 0.486401 0.588903 -0.524994 0
M  V30 9 C -0.276113 1.239768 -1.481100 0
M  V30 10 C 0.218480 2.413363 -2.015249 0
M  V30 11 C 1.435930 2.982963 -1.652387 0
M  V30 12 C 2.180353 2.320738 -0.699502 0
M  V30 13 C 3.517596 2.776291 -0.173916 0
M  V30 14 N 3.334224 3.621516 0.995394 0
M  V30 15 C 2.915736 4.980812 1.016352 0
M  V30 16 C 2.774333 5.709602 2.307761 0
M  V30 17 O 2.665181 5.566134 -0.049099 0
M  V30 18 C 1.704509 1.146122 -0.153014 0
M  V30 19 C -1.137983 -1.296737 -0.204284 0
M  V30 20 C -1.155267 -2.418969 0.598512 0
M  V30 21 C -2.074660 -3.439828 0.744632 0
M  V30 22 C -1.815749 -4.470160 1.657048 0
M  V30 23 N -2.852782 -5.323775 1.604981 0
M  V30 24 C -3.748427 -4.856681 0.688952 0
M  V30 25 N -3.278534 -3.696255 0.152931 0
M  V30 26 C -3.951997 -2.904188 -0.853509 0
M  V30 27 H 1.619170 -6.107169 3.586411 0
M  V30 28 H 0.658108 -6.071192 5.118494 0
M  V30 29 H 1.170557 -4.562722 4.321283 0
M  V30 30 H -1.094984 -6.306539 3.449695 0
M  V30 31 H 1.639854 -1.146396 1.480758 0
M  V30 32 H -1.217990 0.830118 -1.783107 0
M  V30 33 H -0.353539 2.944320 -2.762593 0
M  V30 34 H 1.835903 3.884493 -2.051250 0
M  V30 35 H 3.997890 3.312739 -1.016709 0
M  V30 36 H 4.113955 1.899101 0.124807 0
M  V30 37 H 3.525103 3.206655 1.957066 0
M  V30 38 H 3.203643 6.715350 2.285227 0
M  V30 39 H 3.288785 5.143554 3.123989 0
M  V30 40 H 1.696407 5.688965 2.599719 0
M  V30 41 H 2.269321 0.604656 0.598811 0
M  V30 42 H -1.860175 -0.965049 -0.912937 0
M  V30 43 H -4.674086 -5.366489 0.458506 0
M  V30 44 H -5.019369 -3.253771 -0.908892 0
M  V30 45 H -4.047602 -1.830179 -0.554909 0
M  V30 46 H -3.483085 -3.002362 -1.859454 0
M  V30 END ATOM
M  V30 BEGIN BOND
M  V30 1 1 1 2
M  V30 2 1 2 3
M  V30 3 2 3 4
M  V30 4 1 4 5
M  V30 5 1 5 6
M  V30 6 1 6 7
M  V30 7 1 7 8
M  V30 8 2 8 9
M  V30 9 1 9 10
M  V30 10 2 10 11
M  V30 11 1 11 12
M  V30 12 1 12 13
M  V30 13 1 13 14
M  V30 14 1 14 15
M  V30 15 1 15 16
M  V30 16 2 15 17
M  V30 17 2 12 18
M  V30 18 2 7 19
M  V30 19 1 19 20
M  V30 20 1 20 21
M  V30 21 2 21 22
M  V30 22 1 22 23
M  V30 23 2 23 24
M  V30 24 1 24 25
M  V30 25 1 25 26
M  V30 26 1 22 3
M  V30 27 2 20 5
M  V30 28 1 25 21
M  V30 29 1 18 8
M  V30 30 1 1 27
M  V30 31 1 1 28
M  V30 32 1 1 29
M  V30 33 1 2 30
M  V30 34 1 6 31
M  V30 35 1 9 32
M  V30 36 1 10 33
M  V30 37 1 11 34
M  V30 38 1 13 35
M  V30 39 1 13 36
M  V30 40 1 14 37
M  V30 41 1 16 38
M  V30 42 1 16 39
M  V30 43 1 16 40
M  V30 44 1 18 41
M  V30 45 1 19 42
M  V30 46 1 24 43
M  V30 47 1 26 44
M  V30 48 1 26 45
M  V30 49 1 26 46
M  V30 END BOND
M  V30 END CTAB
M  END
>  <Dataset>  (761) 
ChEMBL_Kinases

>  <Ligand_Instance>  (761) 
nan

>  <PDB_ID>  (761) 
nan

>  <Standardized_SMILES>  (761) 
CNc1nc2[nH]c(-c3cccc(CNC(C)=O)c3)cc2c2c1ncn2C

>  <Name>  (761) 
nan

>  <Pocket>  (761) 
nan

>  <ATP_Site>  (761) 
nan

>  <Peripheral>  (761) 
nan

>  <Num_H_Atoms_ProtBoundConf>  (761) 
nan

>  <Num_Resolved_Atoms>  (761) 
nan

>  <Num_Not_Resolved_Atoms>  (761) 
nan

$$$$
CHEMBL552232
     RDKit          3D

  0  0  0  0  0  0  0  0  0  0999 V3000
M  V30 BEGIN CTAB
M  V30 COUNTS 36 38 0 0 0
M  V30 BEGIN ATOM
M  V30 1 C 0.653942 -2.473334 4.249582 0
M  V30 2 C 0.819608 -3.068062 2.897099 0
M  V30 3 C 1.143506 -4.382202 2.615451 0
M  V30 4 C 1.263987 -4.793457 1.303012 0
M  V30 5 C 1.065060 -3.908093 0.257743 0
M  V30 6 C 0.743137 -2.604514 0.577374 0
M  V30 7 C 0.524367 -1.635962 -0.494861 0
M  V30 8 N 0.620611 -1.947302 -1.792551 0
M  V30 9 C 0.412536 -1.028907 -2.771608 0
M  V30 10 C 0.514864 -1.355858 -4.215103 0
M  V30 11 C 0.095249 0.249382 -2.380457 0
M  V30 12 C -0.015801 0.619934 -1.058195 0
M  V30 13 N -0.346807 1.958191 -0.723878 0
M  V30 14 C -0.510524 2.547113 0.554269 0
M  V30 15 C -0.840026 3.892740 0.703289 0
M  V30 16 C -0.996634 4.454523 1.947459 0
M  V30 17 N -0.840186 3.736313 3.072990 0
M  V30 18 C -0.518983 2.419252 3.008048 0
M  V30 19 C -0.370718 1.893160 1.743364 0
M  V30 20 N 0.210464 -0.364903 -0.206677 0
M  V30 21 N 0.628944 -2.217270 1.860837 0
M  V30 22 H 0.444704 -3.247419 5.013930 0
M  V30 23 H 1.518680 -1.847488 4.471907 0
M  V30 24 H -0.286165 -1.851412 4.193571 0
M  V30 25 H 1.278766 -4.995080 3.495578 0
M  V30 26 H 1.518218 -5.829004 1.144528 0
M  V30 27 H 1.160888 -4.236269 -0.769784 0
M  V30 28 H 1.170024 -2.260159 -4.287073 0
M  V30 29 H 0.948416 -0.528794 -4.809392 0
M  V30 30 H -0.484083 -1.663461 -4.572689 0
M  V30 31 H -0.070355 0.981396 -3.175533 0
M  V30 32 H -0.496625 2.627276 -1.538802 0
M  V30 33 H -0.978970 4.523191 -0.183817 0
M  V30 34 H -1.254055 5.510880 1.987430 0
M  V30 35 H -0.395758 1.852061 3.917494 0
M  V30 36 H -0.116615 0.846667 1.760451 0
M  V30 END ATOM
M  V30 BEGIN BOND
M  V30 1 1 1 2
M  V30 2 2 2 3
M  V30 3 1 3 4
M  V30 4 2 4 5
M  V30 5 1 5 6
M  V30 6 1 6 7
M  V30 7 2 7 8
M  V30 8 1 8 9
M  V30 9 1 9 10
M  V30 10 2 9 11
M  V30 11 1 11 12
M  V30 12 1 12 13
M  V30 13 1 13 14
M  V30 14 2 14 15
M  V30 15 1 15 16
M  V30 16 2 16 17
M  V30 17 1 17 18
M  V30 18 2 18 19
M  V30 19 2 12 20
M  V30 20 2 6 21
M  V30 21 1 21 2
M  V30 22 1 20 7
M  V30 23 1 19 14
M  V30 24 1 1 22
M  V30 25 1 1 23
M  V30 26 1 1 24
M  V30 27 1 3 25
M  V30 28 1 4 26
M  V30 29 1 5 27
M  V30 30 1 10 28
M  V30 31 1 10 29
M  V30 32 1 10 30
M  V30 33 1 11 31
M  V30 34 1 13 32
M  V30 35 1 15 33
M  V30 36 1 16 34
M  V30 37 1 18 35
M  V30 38 1 19 36
M  V30 END BOND
M  V30 END CTAB
M  END
>  <Dataset>  (762) 
ChEMBL_Kinases

>  <Ligand_Instance>  (762) 
nan

>  <PDB_ID>  (762) 
nan

>  <Standardized_SMILES>  (762) 
Cc1cccc(-c2nc(C)cc(Nc3ccncc3)n2)n1

>  <Name>  (762) 
nan

>  <Pocket>  (762) 
nan

>  <ATP_Site>  (762) 
nan

>  <Peripheral>  (762) 
nan

>  <Num_H_Atoms_ProtBoundConf>  (762) 
nan

>  <Num_Resolved_Atoms>  (762) 
nan

>  <Num_Not_Resolved_Atoms>  (762) 
nan

$$$$
CHEMBL552271
     RDKit          3D

  0  0  0  0  0  0  0  0  0  0999 V3000
M  V30 BEGIN CTAB
M  V30 COUNTS 47 50 0 0 0
M  V30 BEGIN ATOM
M  V30 1 C 1.298841 1.796599 -3.715220 0
M  V30 2 C 2.091028 0.866793 -2.847317 0
M  V30 3 C 3.259129 0.238393 -3.287974 0
M  V30 4 C 3.977958 -0.614435 -2.478366 0
M  V30 5 C 3.510410 -0.841925 -1.191198 0
M  V30 6 C 4.264786 -1.753307 -0.303517 0
M  V30 7 N 5.455664 -2.380461 -0.784367 0
M  V30 8 O 3.977998 -2.063535 0.881999 0
M  V30 9 C 2.374407 -0.260195 -0.694396 0
M  V30 10 C 1.709772 0.577598 -1.557382 0
M  V30 11 N 0.519548 1.220206 -1.119704 0
M  V30 12 C -0.180333 1.166787 0.118729 0
M  V30 13 C -0.391677 2.301424 0.907825 0
M  V30 14 C -1.076436 2.220304 2.104058 0
M  V30 15 O -1.233726 3.275119 2.767569 0
M  V30 16 N -1.567386 1.043001 2.556458 0
M  V30 17 C -2.286010 0.948175 3.808395 0
M  V30 18 C -1.346125 -0.020873 1.775098 0
M  V30 19 C -0.676709 -0.043547 0.568749 0
M  V30 20 C -0.675816 -1.353079 0.090493 0
M  V30 21 N -1.341161 -2.097492 1.010473 0
M  V30 22 N -1.734175 -1.288096 2.008493 0
M  V30 23 C -2.451588 -1.938604 3.055658 0
M  V30 24 C -3.800015 -1.887251 3.347376 0
M  V30 25 C -4.289643 -2.603811 4.419643 0
M  V30 26 C -3.472279 -3.376982 5.218167 0
M  V30 27 F -4.035671 -4.044011 6.244960 0
M  V30 28 C -2.121559 -3.443346 4.945564 0
M  V30 29 C -1.627709 -2.726769 3.872133 0
M  V30 30 F -0.272315 -2.848367 3.670884 0
M  V30 31 H 1.032046 2.730256 -3.181609 0
M  V30 32 H 0.347398 1.301198 -3.998769 0
M  V30 33 H 1.862039 2.084498 -4.608719 0
M  V30 34 H 3.606159 0.425452 -4.285507 0
M  V30 35 H 4.868601 -1.076034 -2.855100 0
M  V30 36 H 6.390316 -2.212414 -1.192888 0
M  V30 37 H 5.453986 -3.429074 -0.734215 0
M  V30 38 H 2.072243 -0.480474 0.310778 0
M  V30 39 H -0.057984 1.874263 -1.686631 0
M  V30 40 H 0.010912 3.224566 0.521509 0
M  V30 41 H -3.385151 0.964218 3.660793 0
M  V30 42 H -1.979070 0.097301 4.419324 0
M  V30 43 H -2.078828 1.910134 4.363794 0
M  V30 44 H -0.210517 -1.603968 -0.833654 0
M  V30 45 H -4.359591 -1.258813 2.670415 0
M  V30 46 H -5.361314 -2.514809 4.588146 0
M  V30 47 H -1.480362 -4.048885 5.570649 0
M  V30 END ATOM
M  V30 BEGIN BOND
M  V30 1 1 1 2
M  V30 2 2 2 3
M  V30 3 1 3 4
M  V30 4 2 4 5
M  V30 5 1 5 6
M  V30 6 1 6 7
M  V30 7 2 6 8
M  V30 8 1 5 9
M  V30 9 2 9 10
M  V30 10 1 10 11
M  V30 11 1 11 12
M  V30 12 2 12 13
M  V30 13 1 13 14
M  V30 14 2 14 15
M  V30 15 1 14 16
M  V30 16 1 16 17
M  V30 17 1 16 18
M  V30 18 2 18 19
M  V30 19 1 19 20
M  V30 20 2 20 21
M  V30 21 1 21 22
M  V30 22 1 22 23
M  V30 23 2 23 24
M  V30 24 1 24 25
M  V30 25 2 25 26
M  V30 26 1 26 27
M  V30 27 1 26 28
M  V30 28 2 28 29
M  V30 29 1 29 30
M  V30 30 1 10 2
M  V30 31 1 19 12
M  V30 32 1 29 23
M  V30 33 1 22 18
M  V30 34 1 1 31
M  V30 35 1 1 32
M  V30 36 1 1 33
M  V30 37 1 3 34
M  V30 38 1 4 35
M  V30 39 1 7 36
M  V30 40 1 7 37
M  V30 41 1 9 38
M  V30 42 1 11 39
M  V30 43 1 13 40
M  V30 44 1 17 41
M  V30 45 1 17 42
M  V30 46 1 17 43
M  V30 47 1 20 44
M  V30 48 1 24 45
M  V30 49 1 25 46
M  V30 50 1 28 47
M  V30 END BOND
M  V30 END CTAB
M  END
>  <Dataset>  (763) 
ChEMBL_Kinases

>  <Ligand_Instance>  (763) 
nan

>  <PDB_ID>  (763) 
nan

>  <Standardized_SMILES>  (763) 
Cc1ccc(C(N)=O)cc1Nc1cc(=O)n(C)c2c1cnn2-c1ccc(F)cc1F

>  <Name>  (763) 
nan

>  <Pocket>  (763) 
nan

>  <ATP_Site>  (763) 
nan

>  <Peripheral>  (763) 
nan

>  <Num_H_Atoms_ProtBoundConf>  (763) 
nan

>  <Num_Resolved_Atoms>  (763) 
nan

>  <Num_Not_Resolved_Atoms>  (763) 
nan

$$$$
CHEMBL552276
     RDKit          3D

  0  0  0  0  0  0  0  0  0  0999 V3000
M  V30 BEGIN CTAB
M  V30 COUNTS 35 36 0 0 0
M  V30 BEGIN ATOM
M  V30 1 O -0.984014 -1.438638 4.253015 0
M  V30 2 C -1.021061 -1.584795 3.007353 0
M  V30 3 O -2.238084 -1.666920 3.636772 0
M  V30 4 C 0.244675 -1.502966 2.321776 0
M  V30 5 C 0.383905 -1.640649 1.023350 0
M  V30 6 C 1.798298 -1.516340 0.587475 0
M  V30 7 C 2.056730 -0.334669 -0.299060 0
M  V30 8 C 1.726470 0.959037 0.374284 0
M  V30 9 C 0.564072 1.673257 0.059877 0
M  V30 10 C 0.310828 2.876559 0.714071 0
M  V30 11 C 1.195650 3.355799 1.658550 0
M  V30 12 Br 0.751861 5.029315 2.502248 0
M  V30 13 C 2.358933 2.634660 1.968974 0
M  V30 14 C 2.625227 1.439477 1.329791 0
M  V30 15 F 3.766463 0.801084 1.685401 0
M  V30 16 C -0.669046 -1.825589 0.083817 0
M  V30 17 C -2.027030 -1.702916 0.140340 0
M  V30 18 C -2.942031 -1.997316 -0.834230 0
M  V30 19 C -2.508271 -2.475800 -2.036530 0
M  V30 20 C -1.125540 -2.634322 -2.187011 0
M  V30 21 C -0.258614 -2.315480 -1.154745 0
M  V30 22 H -3.068006 -1.294913 3.216433 0
M  V30 23 H 1.127953 -1.309940 2.963688 0
M  V30 24 H 2.519249 -1.545128 1.404069 0
M  V30 25 H 2.017399 -2.457484 -0.003343 0
M  V30 26 H 1.601539 -0.385417 -1.291367 0
M  V30 27 H 3.171914 -0.315286 -0.460013 0
M  V30 28 H -0.086959 1.245884 -0.686127 0
M  V30 29 H -0.598132 3.353573 0.412691 0
M  V30 30 H 2.957421 3.125782 2.723853 0
M  V30 31 H -2.398124 -1.312159 1.042424 0
M  V30 32 H -3.994014 -1.850034 -0.647103 0
M  V30 33 H -3.228768 -2.703912 -2.796542 0
M  V30 34 H -0.870474 -3.018273 -3.159880 0
M  V30 35 H 0.733745 -2.536937 -1.525012 0
M  V30 END ATOM
M  V30 BEGIN BOND
M  V30 1 2 1 2
M  V30 2 1 2 3
M  V30 3 1 2 4
M  V30 4 2 4 5
M  V30 5 1 5 6
M  V30 6 1 6 7
M  V30 7 1 7 8
M  V30 8 2 8 9
M  V30 9 1 9 10
M  V30 10 2 10 11
M  V30 11 1 11 12
M  V30 12 1 11 13
M  V30 13 2 13 14
M  V30 14 1 14 15
M  V30 15 1 5 16
M  V30 16 2 16 17
M  V30 17 1 17 18
M  V30 18 2 18 19
M  V30 19 1 19 20
M  V30 20 2 20 21
M  V30 21 1 14 8
M  V30 22 1 21 16
M  V30 23 1 3 22
M  V30 24 1 4 23
M  V30 25 1 6 24
M  V30 26 1 6 25
M  V30 27 1 7 26
M  V30 28 1 7 27
M  V30 29 1 9 28
M  V30 30 1 10 29
M  V30 31 1 13 30
M  V30 32 1 17 31
M  V30 33 1 18 32
M  V30 34 1 19 33
M  V30 35 1 20 34
M  V30 36 1 21 35
M  V30 END BOND
M  V30 END CTAB
M  END
>  <Dataset>  (764) 
ChEMBL_Kinases

>  <Ligand_Instance>  (764) 
nan

>  <PDB_ID>  (764) 
nan

>  <Standardized_SMILES>  (764) 
O=C(O)/C=C(/CCc1ccc(Br)cc1F)c1ccccc1

>  <Name>  (764) 
nan

>  <Pocket>  (764) 
nan

>  <ATP_Site>  (764) 
nan

>  <Peripheral>  (764) 
nan

>  <Num_H_Atoms_ProtBoundConf>  (764) 
nan

>  <Num_Resolved_Atoms>  (764) 
nan

>  <Num_Not_Resolved_Atoms>  (764) 
nan

$$$$
CHEMBL572793
     RDKit          3D

  0  0  0  0  0  0  0  0  0  0999 V3000
M  V30 BEGIN CTAB
M  V30 COUNTS 38 41 0 0 0
M  V30 BEGIN ATOM
M  V30 1 C 2.379725 -6.203524 4.662940 0
M  V30 2 C 1.917414 -5.160812 3.746920 0
M  V30 3 N 1.818569 -3.883581 3.784004 0
M  V30 4 N 1.366082 -3.196779 2.815731 0
M  V30 5 C 0.971254 -3.672848 1.733651 0
M  V30 6 C 0.421174 -3.301953 0.454324 0
M  V30 7 C 0.096538 -4.190604 -0.544485 0
M  V30 8 C -0.420125 -3.647523 -1.703354 0
M  V30 9 C -0.597200 -2.284237 -1.841418 0
M  V30 10 O -1.081423 -1.630178 -2.895777 0
M  V30 11 C -1.083102 -0.329942 -2.613810 0
M  V30 12 C -0.584268 -0.148203 -1.339314 0
M  V30 13 C -0.387288 1.080930 -0.578721 0
M  V30 14 C 0.212218 2.071914 -1.365154 0
M  V30 15 C 0.465165 3.313947 -0.770458 0
M  V30 16 C 0.130549 3.542834 0.547843 0
M  V30 17 S 0.422855 5.073882 1.342995 0 CHG=1 VAL=3
M  V30 18 C -0.990875 6.131761 1.137562 0
M  V30 19 O 0.692501 4.838258 2.988345 0 CHG=-1 VAL=1
M  V30 20 C -0.466536 2.544716 1.318524 0
M  V30 21 C -0.718696 1.318608 0.739197 0
M  V30 22 C -0.269458 -1.393215 -0.834291 0
M  V30 23 C 0.254425 -1.941130 0.341260 0
M  V30 24 S 1.258486 -5.523915 2.036187 0
M  V30 25 H 1.957019 -7.204699 4.442999 0
M  V30 26 H 3.488652 -6.204866 4.675902 0
M  V30 27 H 2.003886 -5.956427 5.684100 0
M  V30 28 H 0.255852 -5.243194 -0.381921 0
M  V30 29 H -0.693172 -4.322280 -2.527497 0
M  V30 30 H -1.384570 0.539178 -3.168639 0
M  V30 31 H 0.503841 1.977387 -2.396017 0
M  V30 32 H 0.932679 4.115212 -1.351737 0
M  V30 33 H -1.660944 5.787250 0.323084 0
M  V30 34 H -1.616872 6.154506 2.062712 0
M  V30 35 H -0.696595 7.173542 0.862594 0
M  V30 36 H -0.747081 2.672762 2.351998 0
M  V30 37 H -1.170532 0.499277 1.248320 0
M  V30 38 H 0.494574 -1.217188 1.093580 0
M  V30 END ATOM
M  V30 BEGIN BOND
M  V30 1 1 1 2
M  V30 2 2 2 3
M  V30 3 1 3 4
M  V30 4 2 4 5
M  V30 5 1 5 6
M  V30 6 2 6 7
M  V30 7 1 7 8
M  V30 8 2 8 9
M  V30 9 1 9 10
M  V30 10 1 10 11
M  V30 11 2 11 12
M  V30 12 1 12 13
M  V30 13 2 13 14
M  V30 14 1 14 15
M  V30 15 2 15 16
M  V30 16 1 16 17
M  V30 17 1 17 18
M  V30 18 1 17 19
M  V30 19 1 16 20
M  V30 20 2 20 21
M  V30 21 1 12 22
M  V30 22 2 22 23
M  V30 23 1 5 24
M  V30 24 1 24 2
M  V30 25 1 23 6
M  V30 26 1 22 9
M  V30 27 1 21 13
M  V30 28 1 1 25
M  V30 29 1 1 26
M  V30 30 1 1 27
M  V30 31 1 7 28
M  V30 32 1 8 29
M  V30 33 1 11 30
M  V30 34 1 14 31
M  V30 35 1 15 32
M  V30 36 1 18 33
M  V30 37 1 18 34
M  V30 38 1 18 35
M  V30 39 1 20 36
M  V30 40 1 21 37
M  V30 41 1 23 38
M  V30 END BOND
M  V30 END CTAB
M  END
>  <Dataset>  (765) 
ChEMBL_Kinases

>  <Ligand_Instance>  (765) 
nan

>  <PDB_ID>  (765) 
nan

>  <Standardized_SMILES>  (765) 
Cc1nnc(-c2ccc3occ(-c4ccc([S+](C)[O-])cc4)c3c2)s1

>  <Name>  (765) 
nan

>  <Pocket>  (765) 
nan

>  <ATP_Site>  (765) 
nan

>  <Peripheral>  (765) 
nan

>  <Num_H_Atoms_ProtBoundConf>  (765) 
nan

>  <Num_Resolved_Atoms>  (765) 
nan

>  <Num_Not_Resolved_Atoms>  (765) 
nan

$$$$
CHEMBL572823
     RDKit          3D

  0  0  0  0  0  0  0  0  0  0999 V3000
M  V30 BEGIN CTAB
M  V30 COUNTS 48 50 0 0 0
M  V30 BEGIN ATOM
M  V30 1 C -3.261843 -1.700538 -2.354603 0
M  V30 2 O -3.848022 -2.307108 -1.221126 0
M  V30 3 C -3.288911 -2.205143 0.041677 0
M  V30 4 C -2.122643 -1.508862 0.281593 0
M  V30 5 C -1.510996 -1.366660 1.515896 0
M  V30 6 N -0.338697 -0.655646 1.760854 0
M  V30 7 C 0.312139 0.258647 0.901243 0
M  V30 8 C 1.506274 0.835898 1.250065 0
M  V30 9 C 2.203733 1.736624 0.493458 0
M  V30 10 O 3.409192 2.329733 0.824983 0
M  V30 11 C 4.633964 1.866772 0.393415 0
M  V30 12 C 5.247604 2.888573 -0.349258 0
M  V30 13 C 6.511496 2.714922 -0.922286 0
M  V30 14 C 7.133873 1.510618 -0.734722 0
M  V30 15 N 6.552174 0.521207 -0.022230 0
M  V30 16 C 5.325912 0.691567 0.533274 0
M  V30 17 C 4.590989 -0.306327 1.328659 0
M  V30 18 C 1.686338 2.118060 -0.732499 0
M  V30 19 C 0.487344 1.542912 -1.090344 0
M  V30 20 N -0.149860 0.661950 -0.301093 0
M  V30 21 C -2.200103 -2.008506 2.516231 0
M  V30 22 C -3.365107 -2.723167 2.370059 0
M  V30 23 O -4.013325 -3.348567 3.418889 0
M  V30 24 C -3.605555 -3.358812 4.757114 0
M  V30 25 C -3.924309 -2.825439 1.108245 0
M  V30 26 O -5.096320 -3.520324 0.849380 0
M  V30 27 C -6.303758 -2.778878 0.946156 0
M  V30 28 H -3.687408 -2.123869 -3.303554 0
M  V30 29 H -2.175700 -1.806669 -2.423088 0
M  V30 30 H -3.530394 -0.603420 -2.395122 0
M  V30 31 H -1.689957 -1.060721 -0.595871 0
M  V30 32 H 0.117981 -0.821398 2.702218 0
M  V30 33 H 1.940889 0.565164 2.199962 0
M  V30 34 H 4.868975 3.899899 -0.578262 0
M  V30 35 H 7.040588 3.456696 -1.504059 0
M  V30 36 H 8.111715 1.198252 -1.104210 0
M  V30 37 H 3.796593 -0.815457 0.772555 0
M  V30 38 H 4.283444 0.156992 2.285309 0
M  V30 39 H 5.277107 -1.148772 1.656139 0
M  V30 40 H 2.120955 2.818463 -1.438962 0
M  V30 41 H -0.072540 1.721232 -2.015519 0
M  V30 42 H -1.776825 -1.941222 3.532190 0
M  V30 43 H -2.514962 -3.233231 4.914917 0
M  V30 44 H -4.081934 -2.494057 5.275664 0
M  V30 45 H -3.998593 -4.314794 5.204751 0
M  V30 46 H -6.097719 -1.758263 0.553288 0
M  V30 47 H -6.691565 -2.731016 1.968331 0
M  V30 48 H -7.068207 -3.194526 0.225017 0
M  V30 END ATOM
M  V30 BEGIN BOND
M  V30 1 1 1 2
M  V30 2 1 2 3
M  V30 3 2 3 4
M  V30 4 1 4 5
M  V30 5 1 5 6
M  V30 6 1 6 7
M  V30 7 2 7 8
M  V30 8 1 8 9
M  V30 9 1 9 10
M  V30 10 1 10 11
M  V30 11 2 11 12
M  V30 12 1 12 13
M  V30 13 2 13 14
M  V30 14 1 14 15
M  V30 15 2 15 16
M  V30 16 1 16 17
M  V30 17 2 9 18
M  V30 18 1 18 19
M  V30 19 2 19 20
M  V30 20 2 5 21
M  V30 21 1 21 22
M  V30 22 1 22 23
M  V30 23 1 23 24
M  V30 24 2 22 25
M  V30 25 1 25 26
M  V30 26 1 26 27
M  V30 27 1 25 3
M  V30 28 1 20 7
M  V30 29 1 16 11
M  V30 30 1 1 28
M  V30 31 1 1 29
M  V30 32 1 1 30
M  V30 33 1 4 31
M  V30 34 1 6 32
M  V30 35 1 8 33
M  V30 36 1 12 34
M  V30 37 1 13 35
M  V30 38 1 14 36
M  V30 39 1 17 37
M  V30 40 1 17 38
M  V30 41 1 17 39
M  V30 42 1 18 40
M  V30 43 1 19 41
M  V30 44 1 21 42
M  V30 45 1 24 43
M  V30 46 1 24 44
M  V30 47 1 24 45
M  V30 48 1 27 46
M  V30 49 1 27 47
M  V30 50 1 27 48
M  V30 END BOND
M  V30 END CTAB
M  END
>  <Dataset>  (766) 
ChEMBL_Kinases

>  <Ligand_Instance>  (766) 
nan

>  <PDB_ID>  (766) 
nan

>  <Standardized_SMILES>  (766) 
COc1cc(Nc2cc(Oc3cccnc3C)ccn2)cc(OC)c1OC

>  <Name>  (766) 
nan

>  <Pocket>  (766) 
nan

>  <ATP_Site>  (766) 
nan

>  <Peripheral>  (766) 
nan

>  <Num_H_Atoms_ProtBoundConf>  (766) 
nan

>  <Num_Resolved_Atoms>  (766) 
nan

>  <Num_Not_Resolved_Atoms>  (766) 
nan

$$$$
CHEMBL3728175
     RDKit          3D

  0  0  0  0  0  0  0  0  0  0999 V3000
M  V30 BEGIN CTAB
M  V30 COUNTS 63 68 0 0 0
M  V30 BEGIN ATOM
M  V30 1 O -0.178026 -1.985894 3.042569 0
M  V30 2 C -0.556598 -2.413897 1.923643 0
M  V30 3 N 0.381737 -2.741715 0.917491 0
M  V30 4 C 1.803205 -2.674174 0.929834 0
M  V30 5 C 2.420212 -1.519344 0.520548 0
M  V30 6 C 3.795382 -1.546820 0.565418 0
M  V30 7 C 4.486981 -0.330348 0.133749 0
M  V30 8 N 3.801494 0.751722 -0.278291 0
M  V30 9 C 4.459040 1.846455 -0.667212 0
M  V30 10 N 3.932359 3.065236 -1.125607 0
M  V30 11 C 2.525908 3.216527 -1.206866 0 CFG=2
M  V30 12 C 1.795656 3.065332 0.128316 0
M  V30 13 C 0.352589 3.078957 -0.398596 0
M  V30 14 N 0.400159 2.461888 -1.704165 0
M  V30 15 C 1.791682 2.189083 -2.018171 0
M  V30 16 C 5.844516 1.773698 -0.611873 0
M  V30 17 S 7.131206 2.995229 -1.033770 0
M  V30 18 C 8.611301 1.887803 -0.595767 0
M  V30 19 C 7.966707 0.684878 -0.167265 0
M  V30 20 C 6.620963 0.620846 -0.171879 0
M  V30 21 N 5.805688 -0.375005 0.177474 0
M  V30 22 C 4.448828 -2.679784 0.998838 0
M  V30 23 C 3.799374 -3.827096 1.404607 0
M  V30 24 N 2.436829 -3.785470 1.354797 0
M  V30 25 C -1.987555 -2.562100 1.694959 0
M  V30 26 C -2.850816 -2.232543 2.720033 0
M  V30 27 C -4.221383 -2.337279 2.606921 0
M  V30 28 C -4.812035 -2.783851 1.445749 0
M  V30 29 N -6.204143 -2.930173 1.229022 0
M  V30 30 C -6.916722 -3.336582 0.061052 0
M  V30 31 C -7.951692 -2.317763 -0.393498 0
M  V30 32 O -8.862038 -2.032923 0.610527 0
M  V30 33 C -8.175383 -1.567685 1.712676 0
M  V30 34 C -7.257015 -2.690761 2.193315 0
M  V30 35 C -3.958112 -3.113212 0.422177 0
M  V30 36 C -2.585207 -3.008147 0.535588 0
M  V30 37 H 0.121218 -3.100250 -0.026439 0
M  V30 38 H 1.809645 -0.684504 0.198055 0
M  V30 39 H 4.540900 3.862949 -1.407974 0
M  V30 40 H 2.276329 4.205257 -1.658763 0
M  V30 41 H 1.999597 2.064293 0.499349 0
M  V30 42 H 1.980168 3.894848 0.819360 0
M  V30 43 H -0.352022 2.634131 0.302536 0
M  V30 44 H 0.139996 4.169983 -0.570273 0
M  V30 45 H -0.218533 1.639218 -1.756138 0
M  V30 46 H 1.913207 2.348378 -3.107176 0
M  V30 47 H 1.998929 1.148162 -1.758636 0
M  V30 48 H 9.692694 2.036588 -0.627603 0
M  V30 49 H 8.595564 -0.127863 0.144646 0
M  V30 50 H 5.537278 -2.656876 1.017939 0
M  V30 51 H 4.345420 -4.698015 1.738821 0
M  V30 52 H -2.465417 -1.871588 3.670517 0
M  V30 53 H -4.833675 -2.066761 3.434592 0
M  V30 54 H -7.482275 -4.281544 0.190830 0
M  V30 55 H -6.208567 -3.445019 -0.779223 0
M  V30 56 H -8.530734 -2.722046 -1.247061 0
M  V30 57 H -7.463714 -1.373245 -0.723894 0
M  V30 58 H -8.859827 -1.291311 2.531697 0
M  V30 59 H -7.517248 -0.710514 1.459844 0
M  V30 60 H -7.872062 -3.620701 2.373788 0
M  V30 61 H -6.790394 -2.388090 3.164326 0
M  V30 62 H -4.225543 -3.479737 -0.556708 0
M  V30 63 H -1.881492 -3.263400 -0.262463 0
M  V30 END ATOM
M  V30 BEGIN BOND
M  V30 1 2 1 2
M  V30 2 1 2 3
M  V30 3 1 3 4
M  V30 4 2 4 5
M  V30 5 1 5 6
M  V30 6 1 6 7
M  V30 7 2 7 8
M  V30 8 1 8 9
M  V30 9 1 9 10
M  V30 10 1 10 11
M  V30 11 1 11 12
M  V30 12 1 12 13
M  V30 13 1 13 14
M  V30 14 1 14 15
M  V30 15 2 9 16
M  V30 16 1 16 17
M  V30 17 1 17 18
M  V30 18 2 18 19
M  V30 19 1 19 20
M  V30 20 2 20 21
M  V30 21 2 6 22
M  V30 22 1 22 23
M  V30 23 2 23 24
M  V30 24 1 2 25
M  V30 25 2 25 26
M  V30 26 1 26 27
M  V30 27 2 27 28
M  V30 28 1 28 29
M  V30 29 1 29 30
M  V30 30 1 30 31
M  V30 31 1 31 32
M  V30 32 1 32 33
M  V30 33 1 33 34
M  V30 34 1 28 35
M  V30 35 2 35 36
M  V30 36 1 24 4
M  V30 37 1 36 25
M  V30 38 1 21 7
M  V30 39 1 34 29
M  V30 40 1 15 11
M  V30 41 1 20 16
M  V30 42 1 3 37
M  V30 43 1 5 38
M  V30 44 1 10 39
M  V30 45 1 11 40 CFG=3
M  V30 46 1 12 41
M  V30 47 1 12 42
M  V30 48 1 13 43
M  V30 49 1 13 44
M  V30 50 1 14 45
M  V30 51 1 15 46
M  V30 52 1 15 47
M  V30 53 1 18 48
M  V30 54 1 19 49
M  V30 55 1 22 50
M  V30 56 1 23 51
M  V30 57 1 26 52
M  V30 58 1 27 53
M  V30 59 1 30 54
M  V30 60 1 30 55
M  V30 61 1 31 56
M  V30 62 1 31 57
M  V30 63 1 33 58
M  V30 64 1 33 59
M  V30 65 1 34 60
M  V30 66 1 34 61
M  V30 67 1 35 62
M  V30 68 1 36 63
M  V30 END BOND
M  V30 END CTAB
M  END
>  <Dataset>  (767) 
ChEMBL_Kinases

>  <Ligand_Instance>  (767) 
nan

>  <PDB_ID>  (767) 
nan

>  <Standardized_SMILES>  (767) 
O=C(Nc1cc(-c2nc(N[C@@H]3CCNC3)c3sccc3n2)ccn1)c1ccc(N2CCOCC2)cc1

>  <Name>  (767) 
nan

>  <Pocket>  (767) 
nan

>  <ATP_Site>  (767) 
nan

>  <Peripheral>  (767) 
nan

>  <Num_H_Atoms_ProtBoundConf>  (767) 
nan

>  <Num_Resolved_Atoms>  (767) 
nan

>  <Num_Not_Resolved_Atoms>  (767) 
nan

$$$$
CHEMBL3728164
     RDKit          3D

  0  0  0  0  0  0  0  0  0  0999 V3000
M  V30 BEGIN CTAB
M  V30 COUNTS 59 63 0 0 0
M  V30 BEGIN ATOM
M  V30 1 C 3.599019 3.784009 2.936224 0
M  V30 2 O 3.175651 2.580495 2.341132 0
M  V30 3 C 4.107731 1.795149 1.694813 0
M  V30 4 C 5.465125 2.009747 1.527258 0
M  V30 5 C 6.245705 1.101186 0.844222 0
M  V30 6 C 5.714490 -0.044986 0.305876 0
M  V30 7 C 4.361002 -0.267116 0.468098 0
M  V30 8 C 3.564552 0.637378 1.152091 0
M  V30 9 C 2.138446 0.231853 1.216304 0
M  V30 10 C 1.287031 0.989035 0.236082 0 CFG=2
M  V30 11 N 1.307015 2.407768 0.450493 0
M  V30 12 C -0.150690 0.560563 0.257804 0
M  V30 13 N -0.319020 -0.820491 -0.062396 0
M  V30 14 C -1.639644 -1.392583 -0.081659 0
M  V30 15 N -2.643963 -0.559017 0.208546 0
M  V30 16 C -3.931509 -0.808652 0.263823 0
M  V30 17 C -4.918346 0.198175 0.590742 0
M  V30 18 C -6.242680 -0.132826 0.627238 0
M  V30 19 C -7.231547 0.803258 0.935692 0
M  V30 20 N -6.853613 2.068707 1.203578 0
M  V30 21 C -5.553070 2.415019 1.172816 0
M  V30 22 C -4.560579 1.481487 0.864645 0
M  V30 23 N -4.260658 -2.071216 -0.009915 0
M  V30 24 C -3.285453 -2.937466 -0.305285 0
M  V30 25 S -3.437507 -4.696610 -0.711637 0
M  V30 26 C -1.668186 -4.960951 -0.933209 0
M  V30 27 C -1.100473 -3.728412 -0.689800 0
M  V30 28 C -1.938227 -2.704498 -0.370182 0
M  V30 29 C 0.328250 -4.002119 -0.884083 0
M  V30 30 C 0.657599 -5.202627 -0.014932 0
M  V30 31 C 0.264923 -6.429873 -0.790473 0
M  V30 32 C -1.126953 -6.273686 -1.302320 0
M  V30 33 H 4.603587 3.745336 3.388620 0
M  V30 34 H 2.868850 3.996276 3.769874 0
M  V30 35 H 3.609978 4.606901 2.188980 0
M  V30 36 H 5.815419 2.921282 1.970859 0
M  V30 37 H 7.304996 1.356592 0.763570 0
M  V30 38 H 6.353773 -0.754366 -0.234124 0
M  V30 39 H 4.007065 -1.186060 0.020504 0
M  V30 40 H 1.788200 0.573101 2.235094 0
M  V30 41 H 1.999533 -0.846213 1.212676 0
M  V30 42 H 1.763834 0.819988 -0.762390 0
M  V30 43 H 0.599254 2.738503 1.154221 0
M  V30 44 H 1.144775 2.959965 -0.427975 0
M  V30 45 H -0.747730 1.143993 -0.474281 0
M  V30 46 H -0.595618 0.798970 1.248128 0
M  V30 47 H 0.621208 -1.189999 -0.238300 0
M  V30 48 H -6.510438 -1.173894 0.403174 0
M  V30 49 H -8.244790 0.408701 0.930086 0
M  V30 50 H -5.362052 3.472471 1.407706 0
M  V30 51 H -3.547839 1.811622 0.854751 0
M  V30 52 H 0.491339 -4.366495 -1.955517 0
M  V30 53 H 1.037498 -3.203977 -0.779015 0
M  V30 54 H 0.088315 -5.207176 0.924027 0
M  V30 55 H 1.741920 -5.169288 0.213131 0
M  V30 56 H 1.002991 -6.537610 -1.622398 0
M  V30 57 H 0.377953 -7.286844 -0.062721 0
M  V30 58 H -1.731584 -7.101935 -0.838437 0
M  V30 59 H -1.165989 -6.375484 -2.422282 0
M  V30 END ATOM
M  V30 BEGIN BOND
M  V30 1 1 1 2
M  V30 2 1 2 3
M  V30 3 2 3 4
M  V30 4 1 4 5
M  V30 5 2 5 6
M  V30 6 1 6 7
M  V30 7 2 7 8
M  V30 8 1 8 9
M  V30 9 1 9 10
M  V30 10 1 10 11
M  V30 11 1 10 12
M  V30 12 1 12 13
M  V30 13 1 13 14
M  V30 14 2 14 15
M  V30 15 1 15 16
M  V30 16 1 16 17
M  V30 17 2 17 18
M  V30 18 1 18 19
M  V30 19 2 19 20
M  V30 20 1 20 21
M  V30 21 2 21 22
M  V30 22 2 16 23
M  V30 23 1 23 24
M  V30 24 1 24 25
M  V30 25 1 25 26
M  V30 26 2 26 27
M  V30 27 1 27 28
M  V30 28 1 27 29
M  V30 29 1 29 30
M  V30 30 1 30 31
M  V30 31 1 31 32
M  V30 32 1 8 3
M  V30 33 1 28 14
M  V30 34 1 22 17
M  V30 35 2 28 24
M  V30 36 1 32 26
M  V30 37 1 1 33
M  V30 38 1 1 34
M  V30 39 1 1 35
M  V30 40 1 4 36
M  V30 41 1 5 37
M  V30 42 1 6 38
M  V30 43 1 7 39
M  V30 44 1 9 40
M  V30 45 1 9 41
M  V30 46 1 10 42 CFG=3
M  V30 47 1 11 43
M  V30 48 1 11 44
M  V30 49 1 12 45
M  V30 50 1 12 46
M  V30 51 1 13 47
M  V30 52 1 18 48
M  V30 53 1 19 49
M  V30 54 1 21 50
M  V30 55 1 22 51
M  V30 56 1 29 52
M  V30 57 1 29 53
M  V30 58 1 30 54
M  V30 59 1 30 55
M  V30 60 1 31 56
M  V30 61 1 31 57
M  V30 62 1 32 58
M  V30 63 1 32 59
M  V30 END BOND
M  V30 END CTAB
M  END
>  <Dataset>  (768) 
ChEMBL_Kinases

>  <Ligand_Instance>  (768) 
nan

>  <PDB_ID>  (768) 
nan

>  <Standardized_SMILES>  (768) 
COc1ccccc1C[C@H](N)CNc1nc(-c2ccncc2)nc2sc3c(c12)CCCC3

>  <Name>  (768) 
nan

>  <Pocket>  (768) 
nan

>  <ATP_Site>  (768) 
nan

>  <Peripheral>  (768) 
nan

>  <Num_H_Atoms_ProtBoundConf>  (768) 
nan

>  <Num_Resolved_Atoms>  (768) 
nan

>  <Num_Not_Resolved_Atoms>  (768) 
nan

$$$$
CHEMBL3728146
     RDKit          3D

  0  0  0  0  0  0  0  0  0  0999 V3000
M  V30 BEGIN CTAB
M  V30 COUNTS 42 45 0 0 0
M  V30 BEGIN ATOM
M  V30 1 N 1.395486 -6.403429 -1.274785 0
M  V30 2 C 0.628712 -5.500884 -0.448002 0
M  V30 3 C 1.158835 -4.072688 -0.595858 0
M  V30 4 N 0.413735 -3.157691 0.215679 0
M  V30 5 C 0.831561 -1.811475 0.144746 0
M  V30 6 N 1.839846 -1.344468 -0.601140 0
M  V30 7 C 2.095385 -0.004565 -0.537796 0
M  V30 8 C 3.201203 0.568538 -1.343250 0
M  V30 9 C 3.931619 -0.294516 -2.131788 0
M  V30 10 C 4.967957 0.173465 -2.900920 0
M  V30 11 N 5.291032 1.479441 -2.901022 0
M  V30 12 C 4.586892 2.333378 -2.136321 0
M  V30 13 C 3.522966 1.908892 -1.335154 0
M  V30 14 N 1.418511 0.880213 0.210504 0
M  V30 15 C 0.386283 0.525618 0.999619 0
M  V30 16 C -0.440799 1.216233 1.833298 0
M  V30 17 C -1.396804 0.609998 2.506744 0
M  V30 18 C -2.370414 1.243149 3.450978 0
M  V30 19 C -2.328158 2.595180 3.695023 0
M  V30 20 C -3.253234 3.147913 4.582104 0
M  V30 21 C -4.169762 2.303552 5.173383 0
M  V30 22 C -4.187138 0.949921 4.908220 0
M  V30 23 C -3.282283 0.390650 4.036682 0
M  V30 24 S -1.312870 -1.087683 2.085862 0
M  V30 25 C 0.152104 -0.856490 0.909707 0
M  V30 26 H 0.835482 -7.203940 -1.618413 0
M  V30 27 H 1.954939 -5.914593 -1.986459 0
M  V30 28 H 0.784567 -5.805514 0.613518 0
M  V30 29 H -0.438907 -5.536963 -0.719454 0
M  V30 30 H 0.983281 -3.787829 -1.667151 0
M  V30 31 H 2.248715 -4.036582 -0.435513 0
M  V30 32 H -0.380709 -3.436757 0.821740 0
M  V30 33 H 3.712438 -1.342237 -2.165125 0
M  V30 34 H 5.534370 -0.516045 -3.516587 0
M  V30 35 H 4.839154 3.387769 -2.129242 0
M  V30 36 H 2.936253 2.559146 -0.710641 0
M  V30 37 H -0.289466 2.305881 1.932000 0
M  V30 38 H -1.602385 3.202008 3.214037 0
M  V30 39 H -3.205812 4.209710 4.761866 0
M  V30 40 H -4.901469 2.711318 5.868959 0
M  V30 41 H -4.907355 0.292237 5.374057 0
M  V30 42 H -3.318869 -0.672407 3.847605 0
M  V30 END ATOM
M  V30 BEGIN BOND
M  V30 1 1 1 2
M  V30 2 1 2 3
M  V30 3 1 3 4
M  V30 4 1 4 5
M  V30 5 2 5 6
M  V30 6 1 6 7
M  V30 7 1 7 8
M  V30 8 2 8 9
M  V30 9 1 9 10
M  V30 10 2 10 11
M  V30 11 1 11 12
M  V30 12 2 12 13
M  V30 13 2 7 14
M  V30 14 1 14 15
M  V30 15 1 15 16
M  V30 16 2 16 17
M  V30 17 1 17 18
M  V30 18 2 18 19
M  V30 19 1 19 20
M  V30 20 2 20 21
M  V30 21 1 21 22
M  V30 22 2 22 23
M  V30 23 1 17 24
M  V30 24 1 24 25
M  V30 25 1 25 5
M  V30 26 1 13 8
M  V30 27 2 25 15
M  V30 28 1 23 18
M  V30 29 1 1 26
M  V30 30 1 1 27
M  V30 31 1 2 28
M  V30 32 1 2 29
M  V30 33 1 3 30
M  V30 34 1 3 31
M  V30 35 1 4 32
M  V30 36 1 9 33
M  V30 37 1 10 34
M  V30 38 1 12 35
M  V30 39 1 13 36
M  V30 40 1 16 37
M  V30 41 1 19 38
M  V30 42 1 20 39
M  V30 43 1 21 40
M  V30 44 1 22 41
M  V30 45 1 23 42
M  V30 END BOND
M  V30 END CTAB
M  END
>  <Dataset>  (769) 
ChEMBL_Kinases

>  <Ligand_Instance>  (769) 
nan

>  <PDB_ID>  (769) 
nan

>  <Standardized_SMILES>  (769) 
NCCNc1nc(-c2ccncc2)nc2cc(-c3ccccc3)sc12

>  <Name>  (769) 
nan

>  <Pocket>  (769) 
nan

>  <ATP_Site>  (769) 
nan

>  <Peripheral>  (769) 
nan

>  <Num_H_Atoms_ProtBoundConf>  (769) 
nan

>  <Num_Resolved_Atoms>  (769) 
nan

>  <Num_Not_Resolved_Atoms>  (769) 
nan

$$$$
CHEMBL3728140
     RDKit          3D

  0  0  0  0  0  0  0  0  0  0999 V3000
M  V30 BEGIN CTAB
M  V30 COUNTS 50 53 0 0 0
M  V30 BEGIN ATOM
M  V30 1 C 0.876427 -3.866714 3.036624 0
M  V30 2 C 1.754252 -2.993473 2.197017 0
M  V30 3 C 1.328960 -3.048069 0.749131 0
M  V30 4 C 1.845993 -1.574437 2.709577 0 CFG=1
M  V30 5 N 2.699898 -0.821676 1.847232 0
M  V30 6 C 0.532792 -0.965520 3.028071 0
M  V30 7 O -0.332078 -0.697789 1.996530 0
M  V30 8 C -0.169764 0.127565 0.900870 0
M  V30 9 N 0.916112 0.835537 0.663441 0
M  V30 10 C 1.159118 1.642590 -0.344723 0
M  V30 11 C 2.343570 2.424975 -0.609336 0
M  V30 12 C 2.481057 3.228813 -1.715251 0
M  V30 13 C 3.651153 3.934972 -1.878407 0
M  V30 14 N 4.677393 3.884848 -1.012150 0
M  V30 15 C 4.586615 3.100518 0.100378 0
M  V30 16 C 3.409884 2.401246 0.247995 0
M  V30 17 N 0.168543 1.747367 -1.233513 0
M  V30 18 C -0.995144 1.051184 -1.070916 0
M  V30 19 S -2.536605 0.962119 -2.078423 0
M  V30 20 C -3.334154 -0.189998 -0.971446 0
M  V30 21 C -2.453645 -0.412305 0.006140 0
M  V30 22 C -1.228275 0.196181 0.015615 0
M  V30 23 C -3.091399 -1.372481 0.944926 0
M  V30 24 C -3.461630 -2.576709 0.110308 0
M  V30 25 C -4.600417 -2.250996 -0.800540 0
M  V30 26 C -4.687760 -0.794358 -1.076081 0
M  V30 27 H 1.242287 -4.906340 2.967954 0
M  V30 28 H 0.986054 -3.527276 4.095159 0
M  V30 29 H -0.180936 -3.865076 2.711404 0
M  V30 30 H 2.782522 -3.413812 2.246108 0
M  V30 31 H 1.973255 -2.420144 0.105275 0
M  V30 32 H 1.468031 -4.093422 0.405005 0
M  V30 33 H 0.264994 -2.790043 0.590105 0
M  V30 34 H 2.383249 -1.676516 3.699659 0
M  V30 35 H 3.338023 -1.450536 1.284446 0
M  V30 36 H 3.365824 -0.229008 2.416417 0
M  V30 37 H 0.750301 0.003912 3.550735 0
M  V30 38 H 0.025905 -1.591654 3.788127 0
M  V30 39 H 1.645295 3.263639 -2.411461 0
M  V30 40 H 3.775580 4.567783 -2.736511 0
M  V30 41 H 5.412588 3.073913 0.777121 0
M  V30 42 H 3.367884 1.794173 1.132933 0
M  V30 43 H -2.447957 -1.704146 1.764958 0
M  V30 44 H -4.051202 -0.963524 1.360331 0
M  V30 45 H -3.749204 -3.409637 0.778425 0
M  V30 46 H -2.587148 -2.908199 -0.482768 0
M  V30 47 H -4.432709 -2.792073 -1.777359 0
M  V30 48 H -5.556128 -2.641169 -0.383456 0
M  V30 49 H -5.080498 -0.659421 -2.128097 0
M  V30 50 H -5.335383 -0.276253 -0.348314 0
M  V30 END ATOM
M  V30 BEGIN BOND
M  V30 1 1 1 2
M  V30 2 1 2 3
M  V30 3 1 2 4
M  V30 4 1 4 5
M  V30 5 1 4 6
M  V30 6 1 6 7
M  V30 7 1 7 8
M  V30 8 2 8 9
M  V30 9 1 9 10
M  V30 10 1 10 11
M  V30 11 2 11 12
M  V30 12 1 12 13
M  V30 13 2 13 14
M  V30 14 1 14 15
M  V30 15 2 15 16
M  V30 16 2 10 17
M  V30 17 1 17 18
M  V30 18 1 18 19
M  V30 19 1 19 20
M  V30 20 2 20 21
M  V30 21 1 21 22
M  V30 22 1 21 23
M  V30 23 1 23 24
M  V30 24 1 24 25
M  V30 25 1 25 26
M  V30 26 1 22 8
M  V30 27 1 16 11
M  V30 28 2 22 18
M  V30 29 1 26 20
M  V30 30 1 1 27
M  V30 31 1 1 28
M  V30 32 1 1 29
M  V30 33 1 2 30
M  V30 34 1 3 31
M  V30 35 1 3 32
M  V30 36 1 3 33
M  V30 37 1 4 34 CFG=1
M  V30 38 1 5 35
M  V30 39 1 5 36
M  V30 40 1 6 37
M  V30 41 1 6 38
M  V30 42 1 12 39
M  V30 43 1 13 40
M  V30 44 1 15 41
M  V30 45 1 16 42
M  V30 46 1 23 43
M  V30 47 1 23 44
M  V30 48 1 24 45
M  V30 49 1 24 46
M  V30 50 1 25 47
M  V30 51 1 25 48
M  V30 52 1 26 49
M  V30 53 1 26 50
M  V30 END BOND
M  V30 END CTAB
M  END
>  <Dataset>  (770) 
ChEMBL_Kinases

>  <Ligand_Instance>  (770) 
nan

>  <PDB_ID>  (770) 
nan

>  <Standardized_SMILES>  (770) 
CC(C)[C@@H](N)COc1nc(-c2ccncc2)nc2sc3c(c12)CCCC3

>  <Name>  (770) 
nan

>  <Pocket>  (770) 
nan

>  <ATP_Site>  (770) 
nan

>  <Peripheral>  (770) 
nan

>  <Num_H_Atoms_ProtBoundConf>  (770) 
nan

>  <Num_Resolved_Atoms>  (770) 
nan

>  <Num_Not_Resolved_Atoms>  (770) 
nan

$$$$
CHEMBL3728136
     RDKit          3D

  0  0  0  0  0  0  0  0  0  0999 V3000
M  V30 BEGIN CTAB
M  V30 COUNTS 64 67 0 0 0
M  V30 BEGIN ATOM
M  V30 1 C 2.605514 0.516895 6.200138 0
M  V30 2 C 1.239538 1.129003 6.217829 0
M  V30 3 C 1.113446 2.234793 5.176145 0
M  V30 4 C 2.147448 3.304524 5.496899 0
M  V30 5 C -0.250958 2.880420 5.233515 0
M  V30 6 C 1.450991 1.667616 3.870490 0
M  V30 7 O 1.792041 0.479495 3.605861 0
M  V30 8 N 1.420997 2.473246 2.690177 0
M  V30 9 C 1.758849 1.866754 1.448049 0
M  V30 10 C 3.092216 1.927291 1.120670 0
M  V30 11 S 3.153210 1.037970 -0.555877 0
M  V30 12 C 1.408304 0.712667 -0.585851 0
M  V30 13 C 0.651999 0.075369 -1.521203 0
M  V30 14 N 1.297618 -0.413258 -2.689790 0
M  V30 15 C 0.652276 -1.120694 -3.764802 0
M  V30 16 C 0.156190 -2.496294 -3.392757 0 CFG=1
M  V30 17 N -0.805072 -2.541649 -2.348499 0
M  V30 18 C -0.361516 -3.253796 -4.588560 0
M  V30 19 C -0.820726 -4.588095 -4.133771 0
M  V30 20 C -2.065818 -4.955838 -3.731218 0
M  V30 21 C -2.336414 -6.261447 -3.323865 0
M  V30 22 C -1.357236 -7.240542 -3.309638 0
M  V30 23 C -0.093555 -6.905301 -3.708487 0
M  V30 24 C 0.139714 -5.603692 -4.105534 0
M  V30 25 N -0.679354 -0.056768 -1.326364 0
M  V30 26 C -1.177077 0.467981 -0.185613 0
M  V30 27 C -2.611685 0.393391 0.118367 0
M  V30 28 C -3.151849 0.885419 1.284744 0
M  V30 29 C -4.530416 0.769999 1.497927 0
M  V30 30 N -5.313946 0.186267 0.574924 0
M  V30 31 C -4.772348 -0.298788 -0.577986 0
M  V30 32 C -3.409751 -0.204240 -0.828250 0
M  V30 33 N -0.417630 1.094242 0.728852 0
M  V30 34 C 0.908874 1.248452 0.576963 0
M  V30 35 H 3.399589 1.231669 5.894091 0
M  V30 36 H 2.638693 -0.418990 5.590515 0
M  V30 37 H 2.832616 0.163758 7.246763 0
M  V30 38 H 0.494973 0.328201 6.034358 0
M  V30 39 H 1.036590 1.521641 7.234606 0
M  V30 40 H 1.804353 4.283551 5.103125 0
M  V30 41 H 2.282580 3.436512 6.601994 0
M  V30 42 H 3.122239 3.082740 5.024788 0
M  V30 43 H -1.078147 2.164949 5.360592 0
M  V30 44 H -0.405888 3.419159 4.255061 0
M  V30 45 H -0.275851 3.699025 6.001229 0
M  V30 46 H 1.159892 3.489441 2.711544 0
M  V30 47 H 3.956198 2.316320 1.559814 0
M  V30 48 H 2.344787 -0.257585 -2.804795 0
M  V30 49 H 1.369091 -1.225544 -4.601228 0
M  V30 50 H -0.229621 -0.522333 -4.087811 0
M  V30 51 H 1.055817 -3.091792 -3.041374 0
M  V30 52 H -0.672986 -3.301823 -1.644248 0
M  V30 53 H -1.775234 -2.377363 -2.637855 0
M  V30 54 H -1.231411 -2.675027 -4.979857 0
M  V30 55 H 0.412045 -3.413277 -5.364235 0
M  V30 56 H -2.824196 -4.195534 -3.747000 0
M  V30 57 H -3.346835 -6.515112 -3.008704 0
M  V30 58 H -1.531211 -8.261536 -3.000296 0
M  V30 59 H 0.701232 -7.634047 -3.714274 0
M  V30 60 H 1.161918 -5.385265 -4.414326 0
M  V30 61 H -2.511601 1.351876 2.017304 0
M  V30 62 H -4.948988 1.162770 2.424899 0
M  V30 63 H -5.450747 -0.749777 -1.267471 0
M  V30 64 H -3.113306 -0.623378 -1.776981 0
M  V30 END ATOM
M  V30 BEGIN BOND
M  V30 1 1 1 2
M  V30 2 1 2 3
M  V30 3 1 3 4
M  V30 4 1 3 5
M  V30 5 1 3 6
M  V30 6 2 6 7
M  V30 7 1 6 8
M  V30 8 1 8 9
M  V30 9 2 9 10
M  V30 10 1 10 11
M  V30 11 1 11 12
M  V30 12 2 12 13
M  V30 13 1 13 14
M  V30 14 1 14 15
M  V30 15 1 15 16
M  V30 16 1 16 17
M  V30 17 1 16 18
M  V30 18 1 18 19
M  V30 19 2 19 20
M  V30 20 1 20 21
M  V30 21 2 21 22
M  V30 22 1 22 23
M  V30 23 2 23 24
M  V30 24 1 13 25
M  V30 25 2 25 26
M  V30 26 1 26 27
M  V30 27 2 27 28
M  V30 28 1 28 29
M  V30 29 2 29 30
M  V30 30 1 30 31
M  V30 31 2 31 32
M  V30 32 1 26 33
M  V30 33 2 33 34
M  V30 34 1 34 9
M  V30 35 1 34 12
M  V30 36 1 24 19
M  V30 37 1 32 27
M  V30 38 1 1 35
M  V30 39 1 1 36
M  V30 40 1 1 37
M  V30 41 1 2 38
M  V30 42 1 2 39
M  V30 43 1 4 40
M  V30 44 1 4 41
M  V30 45 1 4 42
M  V30 46 1 5 43
M  V30 47 1 5 44
M  V30 48 1 5 45
M  V30 49 1 8 46
M  V30 50 1 10 47
M  V30 51 1 14 48
M  V30 52 1 15 49
M  V30 53 1 15 50
M  V30 54 1 16 51 CFG=1
M  V30 55 1 17 52
M  V30 56 1 17 53
M  V30 57 1 18 54
M  V30 58 1 18 55
M  V30 59 1 20 56
M  V30 60 1 21 57
M  V30 61 1 22 58
M  V30 62 1 23 59
M  V30 63 1 24 60
M  V30 64 1 28 61
M  V30 65 1 29 62
M  V30 66 1 31 63
M  V30 67 1 32 64
M  V30 END BOND
M  V30 END CTAB
M  END
>  <Dataset>  (771) 
ChEMBL_Kinases

>  <Ligand_Instance>  (771) 
nan

>  <PDB_ID>  (771) 
nan

>  <Standardized_SMILES>  (771) 
CCC(C)(C)C(=O)Nc1csc2c(NC[C@@H](N)Cc3ccccc3)nc(-c3ccncc3)nc12

>  <Name>  (771) 
nan

>  <Pocket>  (771) 
nan

>  <ATP_Site>  (771) 
nan

>  <Peripheral>  (771) 
nan

>  <Num_H_Atoms_ProtBoundConf>  (771) 
nan

>  <Num_Resolved_Atoms>  (771) 
nan

>  <Num_Not_Resolved_Atoms>  (771) 
nan

$$$$
CHEMBL3728132
     RDKit          3D

  0  0  0  0  0  0  0  0  0  0999 V3000
M  V30 BEGIN CTAB
M  V30 COUNTS 67 71 0 0 0
M  V30 BEGIN ATOM
M  V30 1 C 3.902989 0.322872 2.709881 0
M  V30 2 C 3.272876 -1.050963 2.724643 0
M  V30 3 C 4.249061 -1.979807 2.037806 0
M  V30 4 C 3.186726 -1.503674 4.165517 0
M  V30 5 C 1.953254 -1.091396 2.128176 0
M  V30 6 S 1.613264 -2.175175 0.662170 0
M  V30 7 C -0.103004 -1.709759 0.523840 0
M  V30 8 C -1.079049 -2.100619 -0.356771 0
M  V30 9 N -0.710116 -3.046506 -1.345528 0
M  V30 10 C -1.535408 -3.599546 -2.368955 0
M  V30 11 C -2.064514 -2.659815 -3.397281 0 CFG=1
M  V30 12 N -2.880846 -1.617550 -2.855037 0
M  V30 13 C -1.100248 -2.208345 -4.435987 0
M  V30 14 C 0.088535 -1.492051 -3.994896 0
M  V30 15 C 0.071090 -0.098405 -3.871246 0
M  V30 16 C 1.166337 0.634117 -3.463331 0
M  V30 17 C 2.340782 0.013528 -3.156238 0
M  V30 18 C 2.426678 -1.342256 -3.255239 0
M  V30 19 C 1.316174 -2.032671 -3.663936 0
M  V30 20 N -2.320487 -1.596385 -0.251797 0
M  V30 21 C -2.509472 -0.716492 0.746620 0
M  V30 22 C -3.833034 -0.124361 0.926744 0
M  V30 23 C -4.125158 0.786607 1.916636 0
M  V30 24 C -5.407737 1.324282 2.046448 0
M  V30 25 N -6.366542 0.936302 1.181466 0
M  V30 26 C -6.069179 0.045721 0.218528 0
M  V30 27 C -4.814523 -0.515649 0.048450 0
M  V30 28 N -1.559293 -0.329502 1.611795 0
M  V30 29 C -0.300381 -0.799295 1.556169 0
M  V30 30 C 0.762263 -0.501309 2.358781 0
M  V30 31 C 0.724855 0.430834 3.480644 0
M  V30 32 C 0.438548 0.198034 4.809222 0
M  V30 33 C 0.457127 1.233040 5.709941 0
M  V30 34 C 0.753368 2.532301 5.359684 0
M  V30 35 C 1.041123 2.773361 4.031346 0
M  V30 36 C 1.027164 1.747885 3.114628 0
M  V30 37 H 5.023445 0.221169 2.642867 0
M  V30 38 H 3.701024 0.800082 3.684529 0
M  V30 39 H 3.511589 0.929888 1.864877 0
M  V30 40 H 3.845268 -2.975295 1.820067 0
M  V30 41 H 5.075956 -2.141484 2.789550 0
M  V30 42 H 4.746801 -1.516173 1.166569 0
M  V30 43 H 4.030424 -2.177595 4.435887 0
M  V30 44 H 3.214698 -0.625704 4.815802 0
M  V30 45 H 2.227971 -2.038959 4.363409 0
M  V30 46 H 0.276446 -3.427872 -1.378688 0
M  V30 47 H -1.114626 -4.517395 -2.834062 0
M  V30 48 H -2.454830 -3.994480 -1.826441 0
M  V30 49 H -2.811657 -3.299878 -3.985025 0
M  V30 50 H -2.535292 -0.661162 -2.945028 0
M  V30 51 H -3.900770 -1.734226 -2.959394 0
M  V30 52 H -0.829518 -3.122678 -5.042079 0
M  V30 53 H -1.651358 -1.564147 -5.145773 0
M  V30 54 H -0.792322 0.504235 -4.085630 0
M  V30 55 H 1.153747 1.710402 -3.367531 0
M  V30 56 H 3.203847 0.577608 -2.836165 0
M  V30 57 H 3.354396 -1.833117 -3.012731 0
M  V30 58 H 1.392155 -3.128527 -3.741923 0
M  V30 59 H -3.289818 1.052712 2.582663 0
M  V30 60 H -5.467175 2.022814 2.872790 0
M  V30 61 H -6.890576 -0.224336 -0.446492 0
M  V30 62 H -4.725144 -1.217242 -0.768986 0
M  V30 63 H 0.215702 -0.839767 5.013836 0
M  V30 64 H 0.215458 0.916282 6.715343 0
M  V30 65 H 0.727119 3.229965 6.177013 0
M  V30 66 H 1.269751 3.802535 3.786025 0
M  V30 67 H 1.274828 2.084777 2.096599 0
M  V30 END ATOM
M  V30 BEGIN BOND
M  V30 1 1 1 2
M  V30 2 1 2 3
M  V30 3 1 2 4
M  V30 4 1 2 5
M  V30 5 1 5 6
M  V30 6 1 6 7
M  V30 7 2 7 8
M  V30 8 1 8 9
M  V30 9 1 9 10
M  V30 10 1 10 11
M  V30 11 1 11 12
M  V30 12 1 11 13
M  V30 13 1 13 14
M  V30 14 2 14 15
M  V30 15 1 15 16
M  V30 16 2 16 17
M  V30 17 1 17 18
M  V30 18 2 18 19
M  V30 19 1 8 20
M  V30 20 2 20 21
M  V30 21 1 21 22
M  V30 22 2 22 23
M  V30 23 1 23 24
M  V30 24 2 24 25
M  V30 25 1 25 26
M  V30 26 2 26 27
M  V30 27 1 21 28
M  V30 28 2 28 29
M  V30 29 1 29 30
M  V30 30 1 30 31
M  V30 31 2 31 32
M  V30 32 1 32 33
M  V30 33 2 33 34
M  V30 34 1 34 35
M  V30 35 2 35 36
M  V30 36 2 30 5
M  V30 37 1 36 31
M  V30 38 1 29 7
M  V30 39 1 19 14
M  V30 40 1 27 22
M  V30 41 1 1 37
M  V30 42 1 1 38
M  V30 43 1 1 39
M  V30 44 1 3 40
M  V30 45 1 3 41
M  V30 46 1 3 42
M  V30 47 1 4 43
M  V30 48 1 4 44
M  V30 49 1 4 45
M  V30 50 1 9 46
M  V30 51 1 10 47
M  V30 52 1 10 48
M  V30 53 1 11 49 CFG=3
M  V30 54 1 12 50
M  V30 55 1 12 51
M  V30 56 1 13 52
M  V30 57 1 13 53
M  V30 58 1 15 54
M  V30 59 1 16 55
M  V30 60 1 17 56
M  V30 61 1 18 57
M  V30 62 1 19 58
M  V30 63 1 23 59
M  V30 64 1 24 60
M  V30 65 1 26 61
M  V30 66 1 27 62
M  V30 67 1 32 63
M  V30 68 1 33 64
M  V30 69 1 34 65
M  V30 70 1 35 66
M  V30 71 1 36 67
M  V30 END BOND
M  V30 END CTAB
M  END
>  <Dataset>  (772) 
ChEMBL_Kinases

>  <Ligand_Instance>  (772) 
nan

>  <PDB_ID>  (772) 
nan

>  <Standardized_SMILES>  (772) 
CC(C)(C)c1sc2c(NC[C@@H](N)Cc3ccccc3)nc(-c3ccncc3)nc2c1-c1ccccc1

>  <Name>  (772) 
nan

>  <Pocket>  (772) 
nan

>  <ATP_Site>  (772) 
nan

>  <Peripheral>  (772) 
nan

>  <Num_H_Atoms_ProtBoundConf>  (772) 
nan

>  <Num_Resolved_Atoms>  (772) 
nan

>  <Num_Not_Resolved_Atoms>  (772) 
nan

$$$$
CHEMBL3728097
     RDKit          3D

  0  0  0  0  0  0  0  0  0  0999 V3000
M  V30 BEGIN CTAB
M  V30 COUNTS 35 36 0 0 0
M  V30 BEGIN ATOM
M  V30 1 O -0.691781 -0.798427 -0.200914 0
M  V30 2 C -1.018226 -1.527913 0.768269 0
M  V30 3 C -0.836412 -2.864302 1.386006 0
M  V30 4 N 0.073622 -3.609971 0.537589 0
M  V30 5 C 1.402688 -3.162684 0.321215 0
M  V30 6 C 1.927499 -2.023743 0.889488 0
M  V30 7 C 3.234079 -1.598157 0.663481 0
M  V30 8 C 4.064153 -2.320238 -0.155670 0
M  V30 9 C 3.569331 -3.454582 -0.732513 0
M  V30 10 N 4.383036 -4.244018 -1.590980 0 CHG=1 VAL=4
M  V30 11 O 5.562523 -3.906775 -1.826880 0
M  V30 12 O 3.871071 -5.380815 -2.162740 0 CHG=-1 VAL=1
M  V30 13 C 2.270396 -3.851023 -0.489751 0
M  V30 14 N -1.902482 -0.750727 1.564825 0
M  V30 15 N -2.288059 0.580940 1.252749 0
M  V30 16 C -1.556395 1.583020 1.524029 0
M  V30 17 C -2.019462 2.921612 1.172943 0
M  V30 18 C -3.239888 3.093534 0.552757 0
M  V30 19 Cl -4.275862 1.719114 0.164560 0
M  V30 20 C -3.699082 4.347289 0.211285 0
M  V30 21 N -2.953275 5.431780 0.482116 0
M  V30 22 C -1.743506 5.309869 1.092476 0
M  V30 23 C -1.286674 4.060909 1.432341 0
M  V30 24 Cl 0.272956 3.821465 2.226700 0
M  V30 25 H -0.330159 -2.794921 2.377820 0
M  V30 26 H -1.788764 -3.375865 1.536965 0
M  V30 27 H -0.233461 -4.489590 0.070838 0
M  V30 28 H 1.323507 -1.418754 1.542855 0
M  V30 29 H 3.578176 -0.696707 1.141280 0
M  V30 30 H 5.070478 -1.965918 -0.311679 0
M  V30 31 H 1.904461 -4.765619 -0.967878 0
M  V30 32 H -2.444611 -0.898878 2.468072 0
M  V30 33 H -0.598451 1.459928 2.009691 0
M  V30 34 H -4.631437 4.571037 -0.270913 0
M  V30 35 H -1.075828 6.127676 1.348859 0
M  V30 END ATOM
M  V30 BEGIN BOND
M  V30 1 2 1 2
M  V30 2 1 2 3
M  V30 3 1 3 4
M  V30 4 1 4 5
M  V30 5 2 5 6
M  V30 6 1 6 7
M  V30 7 2 7 8
M  V30 8 1 8 9
M  V30 9 1 9 10
M  V30 10 2 10 11
M  V30 11 1 10 12
M  V30 12 2 9 13
M  V30 13 1 2 14
M  V30 14 1 14 15
M  V30 15 2 15 16
M  V30 16 1 16 17
M  V30 17 2 17 18
M  V30 18 1 18 19
M  V30 19 1 18 20
M  V30 20 2 20 21
M  V30 21 1 21 22
M  V30 22 2 22 23
M  V30 23 1 23 24
M  V30 24 1 13 5
M  V30 25 1 23 17
M  V30 26 1 3 25
M  V30 27 1 3 26
M  V30 28 1 4 27
M  V30 29 1 6 28
M  V30 30 1 7 29
M  V30 31 1 8 30
M  V30 32 1 13 31
M  V30 33 1 14 32
M  V30 34 1 16 33
M  V30 35 1 20 34
M  V30 36 1 22 35
M  V30 END BOND
M  V30 END CTAB
M  END
>  <Dataset>  (773) 
ChEMBL_Kinases

>  <Ligand_Instance>  (773) 
nan

>  <PDB_ID>  (773) 
nan

>  <Standardized_SMILES>  (773) 
O=C(CNc1cccc([N+](=O)[O-])c1)N/N=C/c1c(Cl)cncc1Cl

>  <Name>  (773) 
nan

>  <Pocket>  (773) 
nan

>  <ATP_Site>  (773) 
nan

>  <Peripheral>  (773) 
nan

>  <Num_H_Atoms_ProtBoundConf>  (773) 
nan

>  <Num_Resolved_Atoms>  (773) 
nan

>  <Num_Not_Resolved_Atoms>  (773) 
nan

$$$$
CHEMBL3728090
     RDKit          3D

  0  0  0  0  0  0  0  0  0  0999 V3000
M  V30 BEGIN CTAB
M  V30 COUNTS 55 60 0 0 0
M  V30 BEGIN ATOM
M  V30 1 C -3.471472 -1.179305 3.790893 0
M  V30 2 C -2.360922 -0.362172 3.932034 0
M  V30 3 C -1.725505 0.028234 2.763897 0
M  V30 4 C -0.549545 0.888250 2.870974 0
M  V30 5 N 0.016604 1.220735 1.696524 0
M  V30 6 C 1.123683 2.027174 1.757703 0
M  V30 7 N 1.841362 2.489349 0.625266 0
M  V30 8 C 3.001465 3.274437 0.364384 0 CFG=2
M  V30 9 C 3.244208 3.592990 -1.092131 0
M  V30 10 C 4.074651 2.434598 -1.583957 0
M  V30 11 N 4.821879 1.948798 -0.453954 0
M  V30 12 C 4.238127 2.490245 0.751418 0
M  V30 13 C 1.612051 2.463493 2.991577 0
M  V30 14 S 2.939492 3.467814 3.436898 0
M  V30 15 C 2.593072 3.344273 5.295536 0
M  V30 16 C 1.445311 2.508918 5.376823 0
M  V30 17 C 1.010666 2.104452 4.149816 0
M  V30 18 N -0.090649 1.299798 4.059555 0
M  V30 19 C -2.162441 -0.366583 1.518660 0
M  V30 20 C -3.284397 -1.188365 1.437842 0
M  V30 21 N -3.718445 -1.581895 0.141789 0
M  V30 22 C -3.287604 -2.726694 -0.582999 0
M  V30 23 C -2.352592 -3.555965 0.001685 0
M  V30 24 C -1.940876 -4.668499 -0.719236 0
M  V30 25 C -2.502550 -4.870242 -1.986641 0
M  V30 26 C -2.044304 -6.046344 -2.717335 0
M  V30 27 C -0.792925 -6.548806 -2.603937 0
M  V30 28 C -0.422810 -7.643090 -3.306605 0
M  V30 29 S -1.883710 -8.129041 -4.273925 0
M  V30 30 C -2.916592 -6.714833 -3.589412 0
M  V30 31 C -3.436280 -4.019011 -2.540078 0
M  V30 32 C -3.854840 -2.904158 -1.828366 0
M  V30 33 N -3.906702 -1.571641 2.568981 0
M  V30 34 H -3.957300 -1.475796 4.713800 0
M  V30 35 H -1.963628 -0.014655 4.875201 0
M  V30 36 H 1.383618 2.154899 -0.273500 0
M  V30 37 H 2.938350 4.214281 0.943853 0
M  V30 38 H 3.863645 4.511522 -1.152201 0
M  V30 39 H 2.347239 3.700359 -1.698534 0
M  V30 40 H 4.805237 2.759778 -2.351622 0
M  V30 41 H 3.441451 1.656910 -2.023595 0
M  V30 42 H 5.837604 2.173288 -0.530888 0
M  V30 43 H 3.942519 1.607116 1.358558 0
M  V30 44 H 4.979006 3.075768 1.302101 0
M  V30 45 H 3.146943 3.814261 6.210857 0
M  V30 46 H 1.097349 2.324066 6.377032 0
M  V30 47 H -1.671182 -0.066118 0.587891 0
M  V30 48 H -4.415971 -0.892125 -0.205251 0
M  V30 49 H -1.965711 -3.336332 0.980640 0
M  V30 50 H -1.212640 -5.353237 -0.314613 0
M  V30 51 H -0.012500 -6.144293 -1.974700 0
M  V30 52 H 0.458997 -8.225718 -3.404885 0
M  V30 53 H -3.961067 -6.447124 -3.801997 0
M  V30 54 H -3.813273 -4.254911 -3.521956 0
M  V30 55 H -4.581016 -2.229785 -2.242621 0
M  V30 END ATOM
M  V30 BEGIN BOND
M  V30 1 2 1 2
M  V30 2 1 2 3
M  V30 3 1 3 4
M  V30 4 2 4 5
M  V30 5 1 5 6
M  V30 6 1 6 7
M  V30 7 1 7 8
M  V30 8 1 8 9
M  V30 9 1 9 10
M  V30 10 1 10 11
M  V30 11 1 11 12
M  V30 12 2 6 13
M  V30 13 1 13 14
M  V30 14 1 14 15
M  V30 15 2 15 16
M  V30 16 1 16 17
M  V30 17 2 17 18
M  V30 18 2 3 19
M  V30 19 1 19 20
M  V30 20 1 20 21
M  V30 21 1 21 22
M  V30 22 2 22 23
M  V30 23 1 23 24
M  V30 24 2 24 25
M  V30 25 1 25 26
M  V30 26 1 26 27
M  V30 27 2 27 28
M  V30 28 1 28 29
M  V30 29 1 29 30
M  V30 30 1 25 31
M  V30 31 2 31 32
M  V30 32 2 20 33
M  V30 33 1 33 1
M  V30 34 1 18 4
M  V30 35 1 32 22
M  V30 36 1 12 8
M  V30 37 1 17 13
M  V30 38 2 30 26
M  V30 39 1 1 34
M  V30 40 1 2 35
M  V30 41 1 7 36
M  V30 42 1 8 37 CFG=1
M  V30 43 1 9 38
M  V30 44 1 9 39
M  V30 45 1 10 40
M  V30 46 1 10 41
M  V30 47 1 11 42
M  V30 48 1 12 43
M  V30 49 1 12 44
M  V30 50 1 15 45
M  V30 51 1 16 46
M  V30 52 1 19 47
M  V30 53 1 21 48
M  V30 54 1 23 49
M  V30 55 1 24 50
M  V30 56 1 27 51
M  V30 57 1 28 52
M  V30 58 1 30 53
M  V30 59 1 31 54
M  V30 60 1 32 55
M  V30 END BOND
M  V30 END CTAB
M  END
>  <Dataset>  (774) 
ChEMBL_Kinases

>  <Ligand_Instance>  (774) 
nan

>  <PDB_ID>  (774) 
nan

>  <Standardized_SMILES>  (774) 
c1cc(-c2nc(N[C@@H]3CCNC3)c3sccc3n2)cc(Nc2ccc(-c3ccsc3)cc2)n1

>  <Name>  (774) 
nan

>  <Pocket>  (774) 
nan

>  <ATP_Site>  (774) 
nan

>  <Peripheral>  (774) 
nan

>  <Num_H_Atoms_ProtBoundConf>  (774) 
nan

>  <Num_Resolved_Atoms>  (774) 
nan

>  <Num_Not_Resolved_Atoms>  (774) 
nan

$$$$
CHEMBL3728087
     RDKit          3D

  0  0  0  0  0  0  0  0  0  0999 V3000
M  V30 BEGIN CTAB
M  V30 COUNTS 51 55 0 0 0
M  V30 BEGIN ATOM
M  V30 1 C 3.482461 -1.260687 -2.548289 0
M  V30 2 C 3.666424 -2.216590 -1.414004 0
M  V30 3 C 3.751100 -3.596009 -1.617755 0
M  V30 4 C 3.921551 -4.469553 -0.557544 0
M  V30 5 C 4.013026 -3.991500 0.742962 0
M  V30 6 C 3.926168 -2.624771 0.914708 0
M  V30 7 C 3.755184 -1.717615 -0.124973 0
M  V30 8 N 3.679172 -0.335798 0.168543 0
M  V30 9 C 2.588157 0.508491 -0.120886 0
M  V30 10 C 2.846224 1.598115 -0.965691 0
M  V30 11 S 1.246805 2.478735 -1.137048 0
M  V30 12 C 0.340978 1.257212 -0.015591 0
M  V30 13 C -0.992381 1.271031 0.351789 0
M  V30 14 N -1.800509 2.297013 -0.143322 0
M  V30 15 C -3.179972 2.372097 0.188164 0 CFG=2
M  V30 16 C -3.469862 2.475777 1.672486 0
M  V30 17 C -4.745474 1.716844 1.866225 0
M  V30 18 N -4.921456 0.851178 0.731825 0
M  V30 19 C -3.894678 1.104947 -0.228201 0
M  V30 20 N -1.396344 0.286781 1.163265 0
M  V30 21 C -0.456963 -0.622295 1.541505 0
M  V30 22 C -0.793503 -1.750683 2.436925 0
M  V30 23 C 0.099098 -2.709625 2.861173 0
M  V30 24 C -0.297458 -3.722210 3.692117 0
M  V30 25 N -1.577267 -3.794227 4.109160 0
M  V30 26 C -2.469855 -2.856985 3.700293 0
M  V30 27 C -2.098541 -1.824840 2.862715 0
M  V30 28 F -3.000461 -0.915230 2.476443 0
M  V30 29 N 0.830687 -0.598509 1.160395 0
M  V30 30 C 1.320161 0.351026 0.349315 0
M  V30 31 H 2.461681 -0.825757 -2.548175 0
M  V30 32 H 4.277745 -0.482495 -2.526762 0
M  V30 33 H 3.558674 -1.833341 -3.489186 0
M  V30 34 H 3.682366 -3.997267 -2.627471 0
M  V30 35 H 3.980368 -5.523595 -0.773132 0
M  V30 36 H 4.146359 -4.665395 1.579575 0
M  V30 37 H 3.993629 -2.220404 1.913831 0
M  V30 38 H 4.536102 0.062412 0.647525 0
M  V30 39 H 3.689805 1.937855 -1.444949 0
M  V30 40 H -1.427680 3.038364 -0.767537 0
M  V30 41 H -3.686955 3.244696 -0.276232 0
M  V30 42 H -2.680834 2.084882 2.313473 0
M  V30 43 H -3.653799 3.545235 1.960914 0
M  V30 44 H -4.729668 1.124326 2.821315 0
M  V30 45 H -5.638198 2.401210 1.888625 0
M  V30 46 H -5.085378 -0.143844 0.953137 0
M  V30 47 H -4.390072 1.322551 -1.209221 0
M  V30 48 H -3.208112 0.249015 -0.365293 0
M  V30 49 H 1.118452 -2.622073 2.507606 0
M  V30 50 H 0.425220 -4.465994 4.012502 0
M  V30 51 H -3.494473 -2.919207 4.037410 0
M  V30 END ATOM
M  V30 BEGIN BOND
M  V30 1 1 1 2
M  V30 2 2 2 3
M  V30 3 1 3 4
M  V30 4 2 4 5
M  V30 5 1 5 6
M  V30 6 2 6 7
M  V30 7 1 7 8
M  V30 8 1 8 9
M  V30 9 2 9 10
M  V30 10 1 10 11
M  V30 11 1 11 12
M  V30 12 2 12 13
M  V30 13 1 13 14
M  V30 14 1 14 15
M  V30 15 1 15 16
M  V30 16 1 16 17
M  V30 17 1 17 18
M  V30 18 1 18 19
M  V30 19 1 13 20
M  V30 20 2 20 21
M  V30 21 1 21 22
M  V30 22 2 22 23
M  V30 23 1 23 24
M  V30 24 2 24 25
M  V30 25 1 25 26
M  V30 26 2 26 27
M  V30 27 1 27 28
M  V30 28 1 21 29
M  V30 29 2 29 30
M  V30 30 1 7 2
M  V30 31 1 30 9
M  V30 32 1 30 12
M  V30 33 1 19 15
M  V30 34 1 27 22
M  V30 35 1 1 31
M  V30 36 1 1 32
M  V30 37 1 1 33
M  V30 38 1 3 34
M  V30 39 1 4 35
M  V30 40 1 5 36
M  V30 41 1 6 37
M  V30 42 1 8 38
M  V30 43 1 10 39
M  V30 44 1 14 40
M  V30 45 1 15 41 CFG=3
M  V30 46 1 16 42
M  V30 47 1 16 43
M  V30 48 1 17 44
M  V30 49 1 17 45
M  V30 50 1 18 46
M  V30 51 1 19 47
M  V30 52 1 19 48
M  V30 53 1 23 49
M  V30 54 1 24 50
M  V30 55 1 26 51
M  V30 END BOND
M  V30 END CTAB
M  END
>  <Dataset>  (775) 
ChEMBL_Kinases

>  <Ligand_Instance>  (775) 
nan

>  <PDB_ID>  (775) 
nan

>  <Standardized_SMILES>  (775) 
Cc1ccccc1Nc1csc2c(N[C@@H]3CCNC3)nc(-c3ccncc3F)nc12

>  <Name>  (775) 
nan

>  <Pocket>  (775) 
nan

>  <ATP_Site>  (775) 
nan

>  <Peripheral>  (775) 
nan

>  <Num_H_Atoms_ProtBoundConf>  (775) 
nan

>  <Num_Resolved_Atoms>  (775) 
nan

>  <Num_Not_Resolved_Atoms>  (775) 
nan

$$$$
CHEMBL3728079
     RDKit          3D

  0  0  0  0  0  0  0  0  0  0999 V3000
M  V30 BEGIN CTAB
M  V30 COUNTS 44 48 0 0 0
M  V30 BEGIN ATOM
M  V30 1 C -1.245166 -4.541542 -1.823506 0
M  V30 2 N -1.665259 -5.806883 -2.014509 0
M  V30 3 N -2.173288 -6.264643 -0.871502 0
M  V30 4 C -2.111351 -5.338689 0.104044 0
M  V30 5 C -1.514513 -4.229760 -0.507185 0
M  V30 6 C -1.257277 -2.990515 0.201100 0
M  V30 7 N -0.357866 -2.106700 -0.138482 0
M  V30 8 C -0.008434 -0.934961 0.404397 0
M  V30 9 N 1.035620 -0.115933 -0.182145 0
M  V30 10 C 2.047090 0.677515 -0.750398 0 CFG=2
M  V30 11 C 1.904266 1.042308 -2.219112 0
M  V30 12 C 3.308776 1.167513 -2.698219 0
M  V30 13 N 4.154909 0.401064 -1.840745 0
M  V30 14 C 3.407740 0.026415 -0.686682 0
M  V30 15 C -0.694015 -0.542463 1.533717 0
M  V30 16 C -0.588374 0.567810 2.317260 0
M  V30 17 C -1.442783 0.688025 3.420294 0
M  V30 18 S -2.441475 -0.844184 3.345076 0
M  V30 19 C -1.636795 -1.454719 1.900104 0
M  V30 20 N -1.909301 -2.601852 1.285780 0
M  V30 21 C -1.531880 1.796765 4.427324 0
M  V30 22 C -0.151514 2.299523 4.786228 0
M  V30 23 C 0.866392 1.869073 3.754774 0
M  V30 24 C 0.241227 1.790951 2.367426 0
M  V30 25 H -0.786741 -3.823005 -2.463721 0
M  V30 26 H -2.597542 -7.208692 -0.637098 0
M  V30 27 H -2.435901 -5.398765 1.132686 0
M  V30 28 H 1.328036 -0.710936 -0.987997 0
M  V30 29 H 2.133195 1.695202 -0.251671 0
M  V30 30 H 1.336522 1.956796 -2.396228 0
M  V30 31 H 1.456964 0.123083 -2.692202 0
M  V30 32 H 3.463709 0.783561 -3.743004 0
M  V30 33 H 3.690933 2.209208 -2.694260 0
M  V30 34 H 5.059927 0.862953 -1.610460 0
M  V30 35 H 3.934988 0.192738 0.276066 0
M  V30 36 H 3.212292 -1.081928 -0.787426 0
M  V30 37 H -1.985326 1.389617 5.353388 0
M  V30 38 H -2.219122 2.576184 4.072889 0
M  V30 39 H -0.184695 3.396848 4.795718 0
M  V30 40 H 0.127319 1.935035 5.793038 0
M  V30 41 H 1.737965 2.541920 3.673621 0
M  V30 42 H 1.245386 0.854209 3.985597 0
M  V30 43 H -0.418587 2.692499 2.275950 0
M  V30 44 H 1.061833 1.788536 1.667663 0
M  V30 END ATOM
M  V30 BEGIN BOND
M  V30 1 2 1 2
M  V30 2 1 2 3
M  V30 3 1 3 4
M  V30 4 2 4 5
M  V30 5 1 5 6
M  V30 6 2 6 7
M  V30 7 1 7 8
M  V30 8 1 8 9
M  V30 9 1 9 10
M  V30 10 1 10 11
M  V30 11 1 11 12
M  V30 12 1 12 13
M  V30 13 1 13 14
M  V30 14 2 8 15
M  V30 15 1 15 16
M  V30 16 2 16 17
M  V30 17 1 17 18
M  V30 18 1 18 19
M  V30 19 2 19 20
M  V30 20 1 17 21
M  V30 21 1 21 22
M  V30 22 1 22 23
M  V30 23 1 23 24
M  V30 24 1 5 1
M  V30 25 1 20 6
M  V30 26 1 14 10
M  V30 27 1 19 15
M  V30 28 1 24 16
M  V30 29 1 1 25
M  V30 30 1 3 26
M  V30 31 1 4 27
M  V30 32 1 9 28
M  V30 33 1 10 29 CFG=1
M  V30 34 1 11 30
M  V30 35 1 11 31
M  V30 36 1 12 32
M  V30 37 1 12 33
M  V30 38 1 13 34
M  V30 39 1 14 35
M  V30 40 1 14 36
M  V30 41 1 21 37
M  V30 42 1 21 38
M  V30 43 1 22 39
M  V30 44 1 22 40
M  V30 45 1 23 41
M  V30 46 1 23 42
M  V30 47 1 24 43
M  V30 48 1 24 44
M  V30 END BOND
M  V30 END CTAB
M  END
>  <Dataset>  (776) 
ChEMBL_Kinases

>  <Ligand_Instance>  (776) 
nan

>  <PDB_ID>  (776) 
nan

>  <Standardized_SMILES>  (776) 
c1n[nH]cc1-c1nc(N[C@@H]2CCNC2)c2c3c(sc2n1)CCCC3

>  <Name>  (776) 
nan

>  <Pocket>  (776) 
nan

>  <ATP_Site>  (776) 
nan

>  <Peripheral>  (776) 
nan

>  <Num_H_Atoms_ProtBoundConf>  (776) 
nan

>  <Num_Resolved_Atoms>  (776) 
nan

>  <Num_Not_Resolved_Atoms>  (776) 
nan

$$$$
CHEMBL3728413
     RDKit          3D

  0  0  0  0  0  0  0  0  0  0999 V3000
M  V30 BEGIN CTAB
M  V30 COUNTS 54 58 0 0 0
M  V30 BEGIN ATOM
M  V30 1 N 1.436833 -4.969092 0.116638 0
M  V30 2 C 0.382050 -3.951208 0.386513 0 CFG=1
M  V30 3 C 1.103238 -2.646438 0.328808 0
M  V30 4 O 0.265147 -1.562134 0.663014 0
M  V30 5 C 0.757580 -0.241964 0.648293 0
M  V30 6 N 2.022749 -0.102122 0.279095 0
M  V30 7 C 2.732389 1.021595 0.173638 0
M  V30 8 C 4.123329 1.136830 -0.236174 0
M  V30 9 C 4.839788 -0.012724 -0.564819 0
M  V30 10 C 6.169580 0.123665 -0.954008 0
M  V30 11 N 6.776227 1.318859 -1.021352 0
M  V30 12 C 6.076277 2.436749 -0.700782 0
M  V30 13 C 4.756499 2.361884 -0.308643 0
M  V30 14 N 2.057059 2.126314 0.485639 0
M  V30 15 C 0.756173 2.083738 0.876031 0
M  V30 16 S -0.417114 3.352866 1.376272 0
M  V30 17 C -1.795946 2.198002 1.691219 0
M  V30 18 C -1.251113 0.999121 1.395265 0
M  V30 19 C 0.046689 0.886571 0.974407 0
M  V30 20 C -2.341568 0.019813 1.654069 0
M  V30 21 C -2.848588 0.166092 3.073771 0
M  V30 22 C -3.484190 1.515313 3.254246 0
M  V30 23 C -3.124283 2.469271 2.141785 0
M  V30 24 C -0.589061 -4.153469 -0.764749 0
M  V30 25 C -1.758683 -3.275188 -0.770628 0
M  V30 26 C -1.791771 -2.059671 -1.419796 0
M  V30 27 C -2.997614 -1.395935 -1.343432 0
M  V30 28 C -4.102188 -1.904637 -0.665263 0
M  V30 29 C -4.043747 -3.120727 -0.023743 0
M  V30 30 C -2.843530 -3.822053 -0.077939 0
M  V30 31 H 0.963371 -5.867317 -0.037138 0
M  V30 32 H 2.114452 -4.997594 0.884577 0
M  V30 33 H -0.043592 -4.213340 1.359762 0
M  V30 34 H 2.001426 -2.686766 1.009763 0
M  V30 35 H 1.500293 -2.547569 -0.718469 0
M  V30 36 H 4.386353 -0.998771 -0.523500 0
M  V30 37 H 6.784381 -0.738555 -1.223934 0
M  V30 38 H 6.552480 3.386192 -0.752536 0
M  V30 39 H 4.169039 3.212906 -0.048085 0
M  V30 40 H -2.061473 -1.024040 1.505688 0
M  V30 41 H -3.222101 0.260812 0.997933 0
M  V30 42 H -2.060879 -0.046536 3.828276 0
M  V30 43 H -3.630088 -0.603206 3.219275 0
M  V30 44 H -3.202916 1.964115 4.208355 0
M  V30 45 H -4.583124 1.391245 3.237841 0
M  V30 46 H -3.857291 2.343664 1.320832 0
M  V30 47 H -3.223203 3.510179 2.508912 0
M  V30 48 H -0.853541 -5.234064 -0.827932 0
M  V30 49 H 0.024329 -3.965172 -1.697311 0
M  V30 50 H -0.915969 -1.724246 -1.919935 0
M  V30 51 H -3.079643 -0.433755 -1.837686 0
M  V30 52 H -5.010885 -1.317750 -0.655242 0
M  V30 53 H -4.929981 -3.436384 0.470540 0
M  V30 54 H -2.842690 -4.756823 0.431341 0
M  V30 END ATOM
M  V30 BEGIN BOND
M  V30 1 1 1 2
M  V30 2 1 2 3
M  V30 3 1 3 4
M  V30 4 1 4 5
M  V30 5 2 5 6
M  V30 6 1 6 7
M  V30 7 1 7 8
M  V30 8 2 8 9
M  V30 9 1 9 10
M  V30 10 2 10 11
M  V30 11 1 11 12
M  V30 12 2 12 13
M  V30 13 2 7 14
M  V30 14 1 14 15
M  V30 15 1 15 16
M  V30 16 1 16 17
M  V30 17 2 17 18
M  V30 18 1 18 19
M  V30 19 1 18 20
M  V30 20 1 20 21
M  V30 21 1 21 22
M  V30 22 1 22 23
M  V30 23 1 2 24
M  V30 24 1 24 25
M  V30 25 2 25 26
M  V30 26 1 26 27
M  V30 27 2 27 28
M  V30 28 1 28 29
M  V30 29 2 29 30
M  V30 30 1 19 5
M  V30 31 1 30 25
M  V30 32 1 13 8
M  V30 33 2 19 15
M  V30 34 1 23 17
M  V30 35 1 1 31
M  V30 36 1 1 32
M  V30 37 1 2 33 CFG=1
M  V30 38 1 3 34
M  V30 39 1 3 35
M  V30 40 1 9 36
M  V30 41 1 10 37
M  V30 42 1 12 38
M  V30 43 1 13 39
M  V30 44 1 20 40
M  V30 45 1 20 41
M  V30 46 1 21 42
M  V30 47 1 21 43
M  V30 48 1 22 44
M  V30 49 1 22 45
M  V30 50 1 23 46
M  V30 51 1 23 47
M  V30 52 1 24 48
M  V30 53 1 24 49
M  V30 54 1 26 50
M  V30 55 1 27 51
M  V30 56 1 28 52
M  V30 57 1 29 53
M  V30 58 1 30 54
M  V30 END BOND
M  V30 END CTAB
M  END
>  <Dataset>  (777) 
ChEMBL_Kinases

>  <Ligand_Instance>  (777) 
nan

>  <PDB_ID>  (777) 
nan

>  <Standardized_SMILES>  (777) 
N[C@@H](COc1nc(-c2ccncc2)nc2sc3c(c12)CCCC3)Cc1ccccc1

>  <Name>  (777) 
nan

>  <Pocket>  (777) 
nan

>  <ATP_Site>  (777) 
nan

>  <Peripheral>  (777) 
nan

>  <Num_H_Atoms_ProtBoundConf>  (777) 
nan

>  <Num_Resolved_Atoms>  (777) 
nan

>  <Num_Not_Resolved_Atoms>  (777) 
nan

$$$$
CHEMBL3728075
     RDKit          3D

  0  0  0  0  0  0  0  0  0  0999 V3000
M  V30 BEGIN CTAB
M  V30 COUNTS 67 72 0 0 0
M  V30 BEGIN ATOM
M  V30 1 C 4.483426 3.178303 7.840201 0
M  V30 2 N 5.135389 3.831610 6.726800 0
M  V30 3 C 5.804803 2.951244 5.827051 0
M  V30 4 C 5.231333 2.861179 4.452414 0
M  V30 5 N 3.833280 3.175121 4.350119 0
M  V30 6 C 2.997213 2.597316 3.363193 0
M  V30 7 C 3.433788 1.741146 2.374159 0
M  V30 8 C 2.610863 1.175621 1.414211 0
M  V30 9 C 1.264707 1.477606 1.433855 0
M  V30 10 C 0.438521 0.858044 0.404313 0
M  V30 11 O 0.965188 0.103231 -0.452195 0
M  V30 12 N -0.966287 1.039164 0.278167 0
M  V30 13 C -1.417565 0.264189 -0.858840 0
M  V30 14 C -1.801758 -1.058808 -0.634502 0
M  V30 15 C -2.230406 -1.787892 -1.723258 0
M  V30 16 C -2.652990 -3.182134 -1.589747 0
M  V30 17 N -3.059027 -3.813877 -2.738826 0
M  V30 18 C -3.446076 -5.114295 -2.572433 0
M  V30 19 N -3.893826 -5.914442 -3.654072 0
M  V30 20 C -3.923243 -5.307926 -4.947320 0 CFG=2
M  V30 21 C -2.601284 -4.832102 -5.453739 0
M  V30 22 C -2.884216 -3.565336 -6.224267 0
M  V30 23 N -4.184355 -3.116361 -5.850943 0
M  V30 24 C -4.831913 -4.108448 -5.058462 0
M  V30 25 C -3.413113 -5.700874 -1.326789 0
M  V30 26 S -3.841268 -7.316430 -0.823357 0
M  V30 27 C -3.410963 -6.980413 0.996134 0
M  V30 28 C -2.992107 -5.683251 1.014959 0
M  V30 29 C -3.004018 -5.051201 -0.193467 0
M  V30 30 N -2.623470 -3.754169 -0.389842 0
M  V30 31 C -2.272084 -1.219167 -2.976833 0
M  V30 32 C -1.882161 0.107307 -3.175116 0
M  V30 33 N -1.462928 0.818574 -2.106616 0
M  V30 34 C 0.758955 2.316024 2.380399 0
M  V30 35 C 1.639884 2.837687 3.299732 0
M  V30 36 C 3.199812 4.118950 5.265812 0
M  V30 37 C 4.270155 4.793138 6.108475 0
M  V30 38 H 4.924473 3.585351 8.761916 0
M  V30 39 H 4.670159 2.084184 7.730752 0
M  V30 40 H 3.367320 3.325129 7.802605 0
M  V30 41 H 6.884191 3.284709 5.794875 0
M  V30 42 H 5.851213 1.942182 6.301639 0
M  V30 43 H 5.370344 1.795240 4.099597 0
M  V30 44 H 5.801986 3.526116 3.744866 0
M  V30 45 H 4.479393 1.474927 2.315178 0
M  V30 46 H 3.039238 0.500221 0.658045 0
M  V30 47 H -1.448124 1.659893 0.971085 0
M  V30 48 H -1.767510 -1.503620 0.351397 0
M  V30 49 H -4.192326 -6.902901 -3.532852 0
M  V30 50 H -4.302626 -6.040338 -5.719990 0
M  V30 51 H -1.901173 -4.696975 -4.620327 0
M  V30 52 H -2.107020 -5.595809 -6.122576 0
M  V30 53 H -2.139167 -2.790600 -5.953417 0
M  V30 54 H -2.800389 -3.814666 -7.321609 0
M  V30 55 H -4.260975 -2.147822 -5.529157 0
M  V30 56 H -5.794954 -4.358495 -5.557516 0
M  V30 57 H -5.070313 -3.702721 -4.060525 0
M  V30 58 H -3.475173 -7.697975 1.928534 0
M  V30 59 H -2.693419 -5.279813 1.971002 0
M  V30 60 H -2.596430 -1.742974 -3.849732 0
M  V30 61 H -1.917884 0.552576 -4.169777 0
M  V30 62 H -0.293706 2.558335 2.403271 0
M  V30 63 H 1.188772 3.507756 4.043402 0
M  V30 64 H 2.558856 3.536193 5.941986 0
M  V30 65 H 2.674089 4.877582 4.656123 0
M  V30 66 H 3.819836 5.416814 6.882145 0
M  V30 67 H 4.869821 5.408954 5.404465 0
M  V30 END ATOM
M  V30 BEGIN BOND
M  V30 1 1 1 2
M  V30 2 1 2 3
M  V30 3 1 3 4
M  V30 4 1 4 5
M  V30 5 1 5 6
M  V30 6 2 6 7
M  V30 7 1 7 8
M  V30 8 2 8 9
M  V30 9 1 9 10
M  V30 10 2 10 11
M  V30 11 1 10 12
M  V30 12 1 12 13
M  V30 13 2 13 14
M  V30 14 1 14 15
M  V30 15 1 15 16
M  V30 16 2 16 17
M  V30 17 1 17 18
M  V30 18 1 18 19
M  V30 19 1 19 20
M  V30 20 1 20 21
M  V30 21 1 21 22
M  V30 22 1 22 23
M  V30 23 1 23 24
M  V30 24 2 18 25
M  V30 25 1 25 26
M  V30 26 1 26 27
M  V30 27 2 27 28
M  V30 28 1 28 29
M  V30 29 2 29 30
M  V30 30 2 15 31
M  V30 31 1 31 32
M  V30 32 2 32 33
M  V30 33 1 9 34
M  V30 34 2 34 35
M  V30 35 1 5 36
M  V30 36 1 36 37
M  V30 37 1 37 2
M  V30 38 1 35 6
M  V30 39 1 33 13
M  V30 40 1 30 16
M  V30 41 1 24 20
M  V30 42 1 29 25
M  V30 43 1 1 38
M  V30 44 1 1 39
M  V30 45 1 1 40
M  V30 46 1 3 41
M  V30 47 1 3 42
M  V30 48 1 4 43
M  V30 49 1 4 44
M  V30 50 1 7 45
M  V30 51 1 8 46
M  V30 52 1 12 47
M  V30 53 1 14 48
M  V30 54 1 19 49
M  V30 55 1 20 50 CFG=3
M  V30 56 1 21 51
M  V30 57 1 21 52
M  V30 58 1 22 53
M  V30 59 1 22 54
M  V30 60 1 23 55
M  V30 61 1 24 56
M  V30 62 1 24 57
M  V30 63 1 27 58
M  V30 64 1 28 59
M  V30 65 1 31 60
M  V30 66 1 32 61
M  V30 67 1 34 62
M  V30 68 1 35 63
M  V30 69 1 36 64
M  V30 70 1 36 65
M  V30 71 1 37 66
M  V30 72 1 37 67
M  V30 END BOND
M  V30 END CTAB
M  END
>  <Dataset>  (778) 
ChEMBL_Kinases

>  <Ligand_Instance>  (778) 
nan

>  <PDB_ID>  (778) 
nan

>  <Standardized_SMILES>  (778) 
CN1CCN(c2ccc(C(=O)Nc3cc(-c4nc(N[C@@H]5CCNC5)c5sccc5n4)ccn3)cc2)CC1

>  <Name>  (778) 
nan

>  <Pocket>  (778) 
nan

>  <ATP_Site>  (778) 
nan

>  <Peripheral>  (778) 
nan

>  <Num_H_Atoms_ProtBoundConf>  (778) 
nan

>  <Num_Resolved_Atoms>  (778) 
nan

>  <Num_Not_Resolved_Atoms>  (778) 
nan

$$$$
CHEMBL3728069
     RDKit          3D

  0  0  0  0  0  0  0  0  0  0999 V3000
M  V30 BEGIN CTAB
M  V30 COUNTS 47 51 0 0 0
M  V30 BEGIN ATOM
M  V30 1 F -1.010733 -3.315709 2.438930 0
M  V30 2 C 0.236455 -3.106345 2.885307 0
M  V30 3 C 0.817026 -4.122067 3.622083 0
M  V30 4 N 2.083024 -3.958231 4.100376 0
M  V30 5 C 2.689378 -2.794407 3.814683 0
M  V30 6 C 2.131805 -1.751172 3.075038 0
M  V30 7 C 0.853279 -1.917192 2.592171 0
M  V30 8 C 0.250852 -0.839155 1.817703 0
M  V30 9 N 1.023596 0.275231 1.643693 0
M  V30 10 C 0.428727 1.243941 0.924102 0
M  V30 11 N 1.087841 2.467014 0.648246 0
M  V30 12 C 2.415145 2.625973 1.168945 0 CFG=2
M  V30 13 C 3.017151 3.969925 0.813166 0
M  V30 14 C 4.492609 3.720038 1.012299 0
M  V30 15 N 4.681207 2.288784 0.933028 0
M  V30 16 C 3.431381 1.696054 0.516263 0
M  V30 17 C -0.849947 1.114889 0.410591 0
M  V30 18 S -1.838936 2.173799 -0.525773 0
M  V30 19 C -3.310050 0.977454 -0.626344 0
M  V30 20 C -2.851062 -0.119379 0.090347 0
M  V30 21 N -3.798384 -1.171216 0.155689 0
M  V30 22 C -3.646289 -2.495048 -0.328554 0
M  V30 23 C -4.063193 -2.563850 -1.657491 0
M  V30 24 C -4.015818 -3.762729 -2.364705 0
M  V30 25 C -3.533616 -4.860895 -1.665257 0
M  V30 26 C -3.122947 -4.786599 -0.351605 0
M  V30 27 N -3.192418 -3.607395 0.273584 0
M  V30 28 C -1.592836 -0.026322 0.610306 0
M  V30 29 N -0.993461 -0.993143 1.331098 0
M  V30 30 H 0.252141 -5.048601 3.813194 0
M  V30 31 H 3.692602 -2.677329 4.200207 0
M  V30 32 H 2.727330 -0.860322 2.913953 0
M  V30 33 H 0.681607 3.244549 0.102629 0
M  V30 34 H 2.502861 2.464758 2.264995 0
M  V30 35 H 2.611789 4.792168 1.414902 0
M  V30 36 H 2.777877 4.141792 -0.270811 0
M  V30 37 H 5.108062 4.285737 0.279536 0
M  V30 38 H 4.737056 4.059108 2.043859 0
M  V30 39 H 4.926813 1.884092 1.863498 0
M  V30 40 H 3.306600 1.640285 -0.576679 0
M  V30 41 H 3.363619 0.658512 0.910537 0
M  V30 42 H -4.184267 1.252332 -1.145762 0
M  V30 43 H -4.737007 -1.045254 0.591755 0
M  V30 44 H -4.454256 -1.746356 -2.277676 0
M  V30 45 H -4.315548 -3.902289 -3.385382 0
M  V30 46 H -3.481527 -5.825639 -2.191268 0
M  V30 47 H -2.745452 -5.624064 0.212189 0
M  V30 END ATOM
M  V30 BEGIN BOND
M  V30 1 1 1 2
M  V30 2 2 2 3
M  V30 3 1 3 4
M  V30 4 2 4 5
M  V30 5 1 5 6
M  V30 6 2 6 7
M  V30 7 1 7 8
M  V30 8 2 8 9
M  V30 9 1 9 10
M  V30 10 1 10 11
M  V30 11 1 11 12
M  V30 12 1 12 13
M  V30 13 1 13 14
M  V30 14 1 14 15
M  V30 15 1 15 16
M  V30 16 2 10 17
M  V30 17 1 17 18
M  V30 18 1 18 19
M  V30 19 2 19 20
M  V30 20 1 20 21
M  V30 21 1 21 22
M  V30 22 2 22 23
M  V30 23 1 23 24
M  V30 24 2 24 25
M  V30 25 1 25 26
M  V30 26 2 26 27
M  V30 27 1 20 28
M  V30 28 2 28 29
M  V30 29 1 7 2
M  V30 30 1 29 8
M  V30 31 1 16 12
M  V30 32 1 28 17
M  V30 33 1 27 22
M  V30 34 1 3 30
M  V30 35 1 5 31
M  V30 36 1 6 32
M  V30 37 1 11 33
M  V30 38 1 12 34 CFG=1
M  V30 39 1 13 35
M  V30 40 1 13 36
M  V30 41 1 14 37
M  V30 42 1 14 38
M  V30 43 1 15 39
M  V30 44 1 16 40
M  V30 45 1 16 41
M  V30 46 1 19 42
M  V30 47 1 21 43
M  V30 48 1 23 44
M  V30 49 1 24 45
M  V30 50 1 25 46
M  V30 51 1 26 47
M  V30 END BOND
M  V30 END CTAB
M  END
>  <Dataset>  (779) 
ChEMBL_Kinases

>  <Ligand_Instance>  (779) 
nan

>  <PDB_ID>  (779) 
nan

>  <Standardized_SMILES>  (779) 
Fc1cnccc1-c1nc(N[C@@H]2CCNC2)c2scc(Nc3ccccn3)c2n1

>  <Name>  (779) 
nan

>  <Pocket>  (779) 
nan

>  <ATP_Site>  (779) 
nan

>  <Peripheral>  (779) 
nan

>  <Num_H_Atoms_ProtBoundConf>  (779) 
nan

>  <Num_Resolved_Atoms>  (779) 
nan

>  <Num_Not_Resolved_Atoms>  (779) 
nan

$$$$
CHEMBL3728068
     RDKit          3D

  0  0  0  0  0  0  0  0  0  0999 V3000
M  V30 BEGIN CTAB
M  V30 COUNTS 60 65 0 0 0
M  V30 BEGIN ATOM
M  V30 1 N 1.587508 -3.607876 1.962116 0
M  V30 2 C 0.723552 -2.540058 1.428554 0 CFG=2
M  V30 3 C -0.054540 -2.005735 2.601697 0
M  V30 4 O -0.939133 -0.976966 2.313130 0
M  V30 5 C -0.665504 0.252016 1.784129 0
M  V30 6 N 0.615354 0.515280 1.501757 0
M  V30 7 C 1.100650 1.636220 0.986772 0
M  V30 8 C 2.487275 1.940655 0.673402 0
M  V30 9 C 3.401273 0.933426 0.948608 0
M  V30 10 C 4.726157 1.247314 0.640161 0
M  V30 11 N 5.142642 2.415654 0.116647 0
M  V30 12 C 4.225884 3.367868 -0.136273 0
M  V30 13 C 2.872962 3.162237 0.132876 0
M  V30 14 N 0.183125 2.584416 0.734877 0
M  V30 15 C -1.125896 2.398956 0.990031 0
M  V30 16 S -2.606088 3.411872 0.789972 0
M  V30 17 C -3.737975 2.175098 1.440619 0
M  V30 18 C -2.972888 1.132345 1.751488 0
M  V30 19 C -1.622731 1.212021 1.532951 0
M  V30 20 C -3.808258 0.034049 2.306368 0
M  V30 21 C -4.999795 0.647811 2.963316 0
M  V30 22 C -5.927279 1.318212 1.969243 0
M  V30 23 C -5.177108 2.540174 1.494993 0
M  V30 24 C -0.217755 -3.242247 0.474810 0
M  V30 25 C 0.555426 -3.904004 -0.606424 0
M  V30 26 C 0.797644 -5.281303 -0.527536 0
M  V30 27 C 1.509323 -6.003090 -1.443656 0
M  V30 28 C 2.034103 -5.358069 -2.525833 0
M  V30 29 C 1.825007 -4.001029 -2.652827 0
M  V30 30 C 2.342180 -3.323054 -3.745381 0
M  V30 31 C 2.137984 -1.966639 -3.892132 0
M  V30 32 C 1.406244 -1.267468 -2.937072 0
M  V30 33 C 0.897488 -1.956454 -1.854095 0
M  V30 34 C 1.102935 -3.292816 -1.715331 0
M  V30 35 H 0.926297 -4.366910 2.224563 0
M  V30 36 H 2.117023 -3.940669 1.122307 0
M  V30 37 H 1.364499 -1.828742 0.923103 0
M  V30 38 H -0.611692 -2.853490 3.050771 0
M  V30 39 H 0.647036 -1.677652 3.414408 0
M  V30 40 H 3.149593 -0.020666 1.363820 0
M  V30 41 H 5.470986 0.495064 0.837271 0
M  V30 42 H 4.418207 4.360615 -0.558713 0
M  V30 43 H 2.113347 3.903634 -0.057670 0
M  V30 44 H -3.269959 -0.537966 3.101779 0
M  V30 45 H -4.113807 -0.714389 1.555806 0
M  V30 46 H -5.519633 -0.036667 3.659387 0
M  V30 47 H -4.617017 1.486854 3.606419 0
M  V30 48 H -6.859135 1.565316 2.509832 0
M  V30 49 H -6.103339 0.672597 1.071245 0
M  V30 50 H -5.580313 2.786337 0.484449 0
M  V30 51 H -5.352965 3.419340 2.155562 0
M  V30 52 H -0.808234 -4.020991 0.992809 0
M  V30 53 H -0.961878 -2.519643 0.058064 0
M  V30 54 H 0.399823 -5.832124 0.314227 0
M  V30 55 H 1.662543 -7.068410 -1.326241 0
M  V30 56 H 2.604975 -5.874028 -3.281632 0
M  V30 57 H 2.920129 -3.873682 -4.500671 0
M  V30 58 H 2.565141 -1.476219 -4.769706 0
M  V30 59 H 1.241586 -0.210823 -3.042751 0
M  V30 60 H 0.333695 -1.380466 -1.145522 0
M  V30 END ATOM
M  V30 BEGIN BOND
M  V30 1 1 1 2
M  V30 2 1 2 3
M  V30 3 1 3 4
M  V30 4 1 4 5
M  V30 5 2 5 6
M  V30 6 1 6 7
M  V30 7 1 7 8
M  V30 8 2 8 9
M  V30 9 1 9 10
M  V30 10 2 10 11
M  V30 11 1 11 12
M  V30 12 2 12 13
M  V30 13 2 7 14
M  V30 14 1 14 15
M  V30 15 1 15 16
M  V30 16 1 16 17
M  V30 17 2 17 18
M  V30 18 1 18 19
M  V30 19 1 18 20
M  V30 20 1 20 21
M  V30 21 1 21 22
M  V30 22 1 22 23
M  V30 23 1 2 24
M  V30 24 1 24 25
M  V30 25 2 25 26
M  V30 26 1 26 27
M  V30 27 2 27 28
M  V30 28 1 28 29
M  V30 29 2 29 30
M  V30 30 1 30 31
M  V30 31 2 31 32
M  V30 32 1 32 33
M  V30 33 2 33 34
M  V30 34 1 19 5
M  V30 35 1 34 25
M  V30 36 1 13 8
M  V30 37 2 19 15
M  V30 38 1 34 29
M  V30 39 1 23 17
M  V30 40 1 1 35
M  V30 41 1 1 36
M  V30 42 1 2 37 CFG=3
M  V30 43 1 3 38
M  V30 44 1 3 39
M  V30 45 1 9 40
M  V30 46 1 10 41
M  V30 47 1 12 42
M  V30 48 1 13 43
M  V30 49 1 20 44
M  V30 50 1 20 45
M  V30 51 1 21 46
M  V30 52 1 21 47
M  V30 53 1 22 48
M  V30 54 1 22 49
M  V30 55 1 23 50
M  V30 56 1 23 51
M  V30 57 1 24 52
M  V30 58 1 24 53
M  V30 59 1 26 54
M  V30 60 1 27 55
M  V30 61 1 28 56
M  V30 62 1 30 57
M  V30 63 1 31 58
M  V30 64 1 32 59
M  V30 65 1 33 60
M  V30 END BOND
M  V30 END CTAB
M  END
>  <Dataset>  (780) 
ChEMBL_Kinases

>  <Ligand_Instance>  (780) 
nan

>  <PDB_ID>  (780) 
nan

>  <Standardized_SMILES>  (780) 
N[C@H](COc1nc(-c2ccncc2)nc2sc3c(c12)CCCC3)Cc1cccc2ccccc12

>  <Name>  (780) 
nan

>  <Pocket>  (780) 
nan

>  <ATP_Site>  (780) 
nan

>  <Peripheral>  (780) 
nan

>  <Num_H_Atoms_ProtBoundConf>  (780) 
nan

>  <Num_Resolved_Atoms>  (780) 
nan

>  <Num_Not_Resolved_Atoms>  (780) 
nan

$$$$
CHEMBL3728051
     RDKit          3D

  0  0  0  0  0  0  0  0  0  0999 V3000
M  V30 BEGIN CTAB
M  V30 COUNTS 52 56 0 0 0
M  V30 BEGIN ATOM
M  V30 1 N 0.661946 -3.529124 2.385937 0
M  V30 2 C -0.626518 -2.830194 2.354395 0 CFG=2
M  V30 3 C -0.543580 -1.681088 3.308010 0
M  V30 4 N 0.515738 -0.739483 2.922831 0
M  V30 5 C 0.063111 -0.002303 1.887307 0
M  V30 6 N 1.385105 0.530552 1.785794 0
M  V30 7 C 1.724659 1.440777 0.857583 0
M  V30 8 C 3.093119 2.061516 0.647781 0
M  V30 9 C 3.436880 3.048775 -0.237116 0
M  V30 10 C 4.759307 3.422674 -0.232936 0
M  V30 11 N 5.686125 2.898483 0.552902 0
M  V30 12 C 5.401604 1.927185 1.438988 0
M  V30 13 C 4.086346 1.514089 1.475649 0
M  V30 14 F 3.810333 0.527460 2.375560 0
M  V30 15 N 0.905112 1.974353 -0.085523 0
M  V30 16 C -0.363403 1.622745 -0.171842 0
M  V30 17 C -1.544635 1.768414 -0.777010 0
M  V30 18 C -1.473116 2.732284 -1.869990 0
M  V30 19 C -2.454335 3.717653 -1.983555 0
M  V30 20 C -2.170589 4.491626 -3.084553 0
M  V30 21 O -1.084984 4.006434 -3.605982 0
M  V30 22 C -0.615754 2.979449 -2.956669 0
M  V30 23 C -2.743607 1.106124 -0.447302 0
M  V30 24 S -2.077368 0.088287 0.986176 0
M  V30 25 C -0.392420 0.739813 0.844918 0
M  V30 26 C -1.721847 -3.811957 2.646166 0
M  V30 27 C -1.683527 -4.878685 1.579620 0
M  V30 28 C -0.944239 -6.038417 1.651503 0
M  V30 29 C -1.040695 -6.879682 0.575480 0
M  V30 30 C -1.807723 -6.655386 -0.549097 0
M  V30 31 C -2.539695 -5.466566 -0.574990 0
M  V30 32 C -2.475450 -4.579066 0.492393 0
M  V30 33 H 1.236885 -3.312788 1.536979 0
M  V30 34 H 1.189537 -3.288637 3.267885 0
M  V30 35 H -0.789904 -2.442861 1.328891 0
M  V30 36 H -0.362652 -2.076054 4.316242 0
M  V30 37 H -1.537356 -1.151889 3.399332 0
M  V30 38 H 1.273825 -0.926777 3.551046 0
M  V30 39 H 2.629621 3.415036 -0.829595 0
M  V30 40 H 4.953949 4.219391 -0.969702 0
M  V30 41 H 6.150863 1.497865 2.079352 0
M  V30 42 H -3.353507 3.989469 -1.406531 0
M  V30 43 H -2.682911 5.343010 -3.505354 0
M  V30 44 H 0.204689 2.269167 -2.983980 0
M  V30 45 H -3.690557 1.243442 -0.958244 0
M  V30 46 H -1.547496 -4.343398 3.612021 0
M  V30 47 H -2.712580 -3.348558 2.723192 0
M  V30 48 H -0.350042 -6.200593 2.535601 0
M  V30 49 H -0.447021 -7.805984 0.635486 0
M  V30 50 H -1.815255 -7.388394 -1.348617 0
M  V30 51 H -3.114977 -5.372423 -1.500280 0
M  V30 52 H -3.096673 -3.722310 0.307537 0
M  V30 END ATOM
M  V30 BEGIN BOND
M  V30 1 1 1 2
M  V30 2 1 2 3
M  V30 3 1 3 4
M  V30 4 1 4 5
M  V30 5 2 5 6
M  V30 6 1 6 7
M  V30 7 1 7 8
M  V30 8 2 8 9
M  V30 9 1 9 10
M  V30 10 2 10 11
M  V30 11 1 11 12
M  V30 12 2 12 13
M  V30 13 1 13 14
M  V30 14 2 7 15
M  V30 15 1 15 16
M  V30 16 1 16 17
M  V30 17 1 17 18
M  V30 18 1 18 19
M  V30 19 2 19 20
M  V30 20 1 20 21
M  V30 21 1 21 22
M  V30 22 2 17 23
M  V30 23 1 23 24
M  V30 24 1 24 25
M  V30 25 1 2 26
M  V30 26 1 26 27
M  V30 27 2 27 28
M  V30 28 1 28 29
M  V30 29 2 29 30
M  V30 30 1 30 31
M  V30 31 2 31 32
M  V30 32 1 25 5
M  V30 33 1 32 27
M  V30 34 1 13 8
M  V30 35 2 25 16
M  V30 36 2 22 18
M  V30 37 1 1 33
M  V30 38 1 1 34
M  V30 39 1 2 35 CFG=3
M  V30 40 1 3 36
M  V30 41 1 3 37
M  V30 42 1 4 38
M  V30 43 1 9 39
M  V30 44 1 10 40
M  V30 45 1 12 41
M  V30 46 1 19 42
M  V30 47 1 20 43
M  V30 48 1 22 44
M  V30 49 1 23 45
M  V30 50 1 26 46
M  V30 51 1 26 47
M  V30 52 1 28 48
M  V30 53 1 29 49
M  V30 54 1 30 50
M  V30 55 1 31 51
M  V30 56 1 32 52
M  V30 END BOND
M  V30 END CTAB
M  END
>  <Dataset>  (781) 
ChEMBL_Kinases

>  <Ligand_Instance>  (781) 
nan

>  <PDB_ID>  (781) 
nan

>  <Standardized_SMILES>  (781) 
N[C@H](CNc1nc(-c2ccncc2F)nc2c(-c3ccoc3)csc12)Cc1ccccc1

>  <Name>  (781) 
nan

>  <Pocket>  (781) 
nan

>  <ATP_Site>  (781) 
nan

>  <Peripheral>  (781) 
nan

>  <Num_H_Atoms_ProtBoundConf>  (781) 
nan

>  <Num_Resolved_Atoms>  (781) 
nan

>  <Num_Not_Resolved_Atoms>  (781) 
nan

$$$$
CHEMBL3728050
     RDKit          3D

  0  0  0  0  0  0  0  0  0  0999 V3000
M  V30 BEGIN CTAB
M  V30 COUNTS 38 40 0 0 0
M  V30 BEGIN ATOM
M  V30 1 C -0.035866 -3.009381 5.566165 0
M  V30 2 C 0.174216 -2.480475 4.229908 0
M  V30 3 S 1.165211 -3.441432 2.970549 0
M  V30 4 C 0.965527 -2.211871 1.720789 0
M  V30 5 N 1.442096 -2.219044 0.456184 0
M  V30 6 C 1.207443 -1.202858 -0.387908 0
M  V30 7 C 1.712118 -1.196976 -1.747363 0
M  V30 8 C 1.433107 -0.118862 -2.562238 0
M  V30 9 C 1.935342 -0.147538 -3.865013 0
M  V30 10 N 2.658544 -1.178736 -4.307052 0
M  V30 11 C 2.913837 -2.215223 -3.488993 0
M  V30 12 C 2.457996 -2.271139 -2.187861 0
M  V30 13 N 0.480958 -0.226085 0.141324 0
M  V30 14 C -0.018738 -0.155302 1.375693 0
M  V30 15 N -0.748695 1.032631 1.634461 0
M  V30 16 C -0.936002 2.065355 0.632542 0
M  V30 17 C -1.714196 1.598172 -0.574749 0
M  V30 18 N -1.850373 2.713656 -1.526143 0
M  V30 19 C 0.206316 -1.180908 2.258050 0
M  V30 20 C -0.190796 -1.342799 3.555910 0
M  V30 21 C -1.010267 -0.382833 4.342907 0
M  V30 22 H -0.044461 -2.203131 6.308585 0
M  V30 23 H -0.933459 -3.660190 5.564584 0
M  V30 24 H 0.820497 -3.673835 5.871357 0
M  V30 25 H 0.860443 0.720370 -2.245030 0
M  V30 26 H 1.717143 0.696868 -4.504115 0
M  V30 27 H 3.502086 -3.083586 -3.805676 0
M  V30 28 H 2.649732 -3.092201 -1.511725 0
M  V30 29 H -1.243162 1.376372 2.480268 0
M  V30 30 H 0.106395 2.265527 0.242904 0
M  V30 31 H -1.290109 3.011453 1.024331 0
M  V30 32 H -2.751212 1.311014 -0.304541 0
M  V30 33 H -1.267028 0.764689 -1.108683 0
M  V30 34 H -1.966918 2.371255 -2.501772 0
M  V30 35 H -1.117864 3.425878 -1.403646 0
M  V30 36 H -0.528799 0.583174 4.524947 0
M  V30 37 H -2.027854 -0.287164 3.861629 0
M  V30 38 H -1.258490 -0.775979 5.351601 0
M  V30 END ATOM
M  V30 BEGIN BOND
M  V30 1 1 1 2
M  V30 2 1 2 3
M  V30 3 1 3 4
M  V30 4 2 4 5
M  V30 5 1 5 6
M  V30 6 1 6 7
M  V30 7 2 7 8
M  V30 8 1 8 9
M  V30 9 2 9 10
M  V30 10 1 10 11
M  V30 11 2 11 12
M  V30 12 2 6 13
M  V30 13 1 13 14
M  V30 14 1 14 15
M  V30 15 1 15 16
M  V30 16 1 16 17
M  V30 17 1 17 18
M  V30 18 2 14 19
M  V30 19 1 19 20
M  V30 20 1 20 21
M  V30 21 2 20 2
M  V30 22 1 19 4
M  V30 23 1 12 7
M  V30 24 1 1 22
M  V30 25 1 1 23
M  V30 26 1 1 24
M  V30 27 1 8 25
M  V30 28 1 9 26
M  V30 29 1 11 27
M  V30 30 1 12 28
M  V30 31 1 15 29
M  V30 32 1 16 30
M  V30 33 1 16 31
M  V30 34 1 17 32
M  V30 35 1 17 33
M  V30 36 1 18 34
M  V30 37 1 18 35
M  V30 38 1 21 36
M  V30 39 1 21 37
M  V30 40 1 21 38
M  V30 END BOND
M  V30 END CTAB
M  END
>  <Dataset>  (782) 
ChEMBL_Kinases

>  <Ligand_Instance>  (782) 
nan

>  <PDB_ID>  (782) 
nan

>  <Standardized_SMILES>  (782) 
Cc1sc2nc(-c3ccncc3)nc(NCCN)c2c1C

>  <Name>  (782) 
nan

>  <Pocket>  (782) 
nan

>  <ATP_Site>  (782) 
nan

>  <Peripheral>  (782) 
nan

>  <Num_H_Atoms_ProtBoundConf>  (782) 
nan

>  <Num_Resolved_Atoms>  (782) 
nan

>  <Num_Not_Resolved_Atoms>  (782) 
nan

$$$$
CHEMBL3728045
     RDKit          3D

  0  0  0  0  0  0  0  0  0  0999 V3000
M  V30 BEGIN CTAB
M  V30 COUNTS 55 59 0 0 0
M  V30 BEGIN ATOM
M  V30 1 N 1.447127 -2.529758 -0.269286 0
M  V30 2 C 1.231489 -3.639074 0.620514 0 CFG=2
M  V30 3 C 1.037261 -3.155226 2.016472 0
M  V30 4 N -0.064880 -2.281195 2.240893 0
M  V30 5 C -0.142542 -0.962189 1.760184 0
M  V30 6 N 0.808809 -0.341256 1.052675 0
M  V30 7 C 0.562422 0.929445 0.693374 0
M  V30 8 C 1.542662 1.718590 -0.090905 0
M  V30 9 C 2.705212 1.059163 -0.413325 0
M  V30 10 C 3.635078 1.753838 -1.136276 0
M  V30 11 N 3.462198 3.035486 -1.538715 0
M  V30 12 C 2.320507 3.676095 -1.219397 0
M  V30 13 C 1.349080 3.023016 -0.491794 0
M  V30 14 N -0.551758 1.583077 0.998594 0
M  V30 15 C -1.561668 1.058405 1.698662 0
M  V30 16 C -2.707852 1.674385 2.033966 0
M  V30 17 N -3.076822 2.993590 1.717041 0
M  V30 18 C -4.297559 3.564525 2.106372 0
M  V30 19 N -5.371816 3.459028 1.298290 0
M  V30 20 C -6.572428 3.994055 1.631081 0
M  V30 21 C -6.687377 4.667916 2.841511 0
M  V30 22 C -5.580527 4.777457 3.675691 0
M  V30 23 N -4.393357 4.221333 3.295367 0
M  V30 24 C -3.644203 0.825774 2.820196 0
M  V30 25 S -2.705894 -0.798515 2.970171 0
M  V30 26 C -1.280966 -0.273945 2.064326 0
M  V30 27 C 2.389250 -4.635024 0.546512 0
M  V30 28 C 2.534986 -5.172867 -0.827948 0
M  V30 29 C 1.811412 -6.330387 -1.130201 0
M  V30 30 C 1.861569 -6.920444 -2.355580 0
M  V30 31 C 2.631369 -6.411663 -3.377752 0
M  V30 32 C 3.339325 -5.282157 -3.087642 0
M  V30 33 C 3.301304 -4.667237 -1.847052 0
M  V30 34 H 2.460999 -2.281735 -0.356820 0
M  V30 35 H 1.076666 -2.740137 -1.229952 0
M  V30 36 H 0.294764 -4.171747 0.292472 0
M  V30 37 H 1.986761 -2.583850 2.290154 0
M  V30 38 H 1.031392 -4.010918 2.744952 0
M  V30 39 H -0.819515 -2.726416 2.803842 0
M  V30 40 H 2.951398 0.055651 -0.152576 0
M  V30 41 H 4.570426 1.292350 -1.421982 0
M  V30 42 H 2.071920 4.705274 -1.488403 0
M  V30 43 H 0.426875 3.468981 -0.206655 0
M  V30 44 H -2.449498 3.611086 1.171776 0
M  V30 45 H -7.454310 3.935182 1.020253 0
M  V30 46 H -7.625335 5.127977 3.181157 0
M  V30 47 H -5.640131 5.298136 4.627502 0
M  V30 48 H -4.704172 1.250524 3.185266 0
M  V30 49 H 2.173407 -5.458417 1.237697 0
M  V30 50 H 3.332342 -4.182787 0.860686 0
M  V30 51 H 1.176340 -6.800216 -0.380197 0
M  V30 52 H 1.282118 -7.828920 -2.563273 0
M  V30 53 H 2.643069 -6.908231 -4.330873 0
M  V30 54 H 3.969809 -4.832819 -3.864012 0
M  V30 55 H 3.858345 -3.774144 -1.609784 0
M  V30 END ATOM
M  V30 BEGIN BOND
M  V30 1 1 1 2
M  V30 2 1 2 3
M  V30 3 1 3 4
M  V30 4 1 4 5
M  V30 5 2 5 6
M  V30 6 1 6 7
M  V30 7 1 7 8
M  V30 8 2 8 9
M  V30 9 1 9 10
M  V30 10 2 10 11
M  V30 11 1 11 12
M  V30 12 2 12 13
M  V30 13 2 7 14
M  V30 14 1 14 15
M  V30 15 1 15 16
M  V30 16 1 16 17
M  V30 17 1 17 18
M  V30 18 2 18 19
M  V30 19 1 19 20
M  V30 20 2 20 21
M  V30 21 1 21 22
M  V30 22 2 22 23
M  V30 23 2 16 24
M  V30 24 1 24 25
M  V30 25 1 25 26
M  V30 26 1 2 27
M  V30 27 1 27 28
M  V30 28 2 28 29
M  V30 29 1 29 30
M  V30 30 2 30 31
M  V30 31 1 31 32
M  V30 32 2 32 33
M  V30 33 1 26 5
M  V30 34 1 33 28
M  V30 35 1 13 8
M  V30 36 2 26 15
M  V30 37 1 23 18
M  V30 38 1 1 34
M  V30 39 1 1 35
M  V30 40 1 2 36 CFG=3
M  V30 41 1 3 37
M  V30 42 1 3 38
M  V30 43 1 4 39
M  V30 44 1 9 40
M  V30 45 1 10 41
M  V30 46 1 12 42
M  V30 47 1 13 43
M  V30 48 1 17 44
M  V30 49 1 20 45
M  V30 50 1 21 46
M  V30 51 1 22 47
M  V30 52 1 24 48
M  V30 53 1 27 49
M  V30 54 1 27 50
M  V30 55 1 29 51
M  V30 56 1 30 52
M  V30 57 1 31 53
M  V30 58 1 32 54
M  V30 59 1 33 55
M  V30 END BOND
M  V30 END CTAB
M  END
>  <Dataset>  (783) 
ChEMBL_Kinases

>  <Ligand_Instance>  (783) 
nan

>  <PDB_ID>  (783) 
nan

>  <Standardized_SMILES>  (783) 
N[C@H](CNc1nc(-c2ccncc2)nc2c(Nc3ncccn3)csc12)Cc1ccccc1

>  <Name>  (783) 
nan

>  <Pocket>  (783) 
nan

>  <ATP_Site>  (783) 
nan

>  <Peripheral>  (783) 
nan

>  <Num_H_Atoms_ProtBoundConf>  (783) 
nan

>  <Num_Resolved_Atoms>  (783) 
nan

>  <Num_Not_Resolved_Atoms>  (783) 
nan

$$$$
CHEMBL3728040
     RDKit          3D

  0  0  0  0  0  0  0  0  0  0999 V3000
M  V30 BEGIN CTAB
M  V30 COUNTS 57 61 0 0 0
M  V30 BEGIN ATOM
M  V30 1 C 4.570532 3.744984 -2.207492 0
M  V30 2 C 4.655679 2.924072 -0.937152 0
M  V30 3 C 4.107261 1.567370 -1.203937 0 CFG=2
M  V30 4 N 2.727895 1.721874 -1.619625 0
M  V30 5 C 1.642452 0.923244 -1.981106 0
M  V30 6 C 0.778671 0.579281 -0.934243 0
M  V30 7 C -0.323515 -0.193831 -1.106949 0
M  V30 8 C -1.218915 -0.546952 -0.015596 0
M  V30 9 N -2.277033 -1.316719 -0.297445 0
M  V30 10 C -3.118372 -1.652996 0.692988 0
M  V30 11 N -4.261878 -2.434165 0.534245 0
M  V30 12 C -5.293301 -2.974836 1.353848 0 CFG=2
M  V30 13 C -4.770692 -4.037360 2.317422 0
M  V30 14 C -5.309292 -5.357014 1.791808 0
M  V30 15 N -5.914823 -5.094148 0.518998 0
M  V30 16 C -6.374361 -3.703353 0.626477 0
M  V30 17 C -2.839041 -1.180696 1.949746 0
M  V30 18 S -3.674509 -1.351109 3.589415 0
M  V30 19 C -2.415346 -0.292147 4.537254 0
M  V30 20 C -1.520323 0.067846 3.535807 0
M  V30 21 C -1.701896 -0.351424 2.261061 0
M  V30 22 N -0.924634 -0.073245 1.204752 0
M  V30 23 C -0.621053 -0.670024 -2.360146 0
M  V30 24 C 0.231916 -0.331748 -3.401183 0
M  V30 25 N 1.326762 0.442826 -3.199876 0
M  V30 26 C 4.345785 0.553389 -0.191115 0
M  V30 27 C 3.793520 -0.679249 -0.345094 0
M  V30 28 C 3.957549 -1.712104 0.561431 0
M  V30 29 C 4.734851 -1.477133 1.701439 0
M  V30 30 C 5.314906 -0.239283 1.897996 0
M  V30 31 C 5.112108 0.757339 0.949676 0
M  V30 32 H 4.011655 4.703282 -2.036958 0
M  V30 33 H 4.063460 3.198574 -3.026367 0
M  V30 34 H 5.580502 4.070306 -2.565239 0
M  V30 35 H 3.963623 3.409971 -0.192326 0
M  V30 36 H 5.640817 2.963430 -0.493623 0
M  V30 37 H 4.634280 1.200037 -2.140786 0
M  V30 38 H 2.277778 2.681219 -1.722478 0
M  V30 39 H 0.947013 0.915545 0.078840 0
M  V30 40 H -4.410571 -2.705290 -0.480798 0
M  V30 41 H -5.711491 -2.135747 1.991373 0
M  V30 42 H -5.207878 -3.880985 3.314597 0
M  V30 43 H -3.671994 -4.022502 2.303007 0
M  V30 44 H -6.069073 -5.777923 2.469847 0
M  V30 45 H -4.489749 -6.109459 1.751793 0
M  V30 46 H -6.716507 -5.723147 0.364826 0
M  V30 47 H -6.503296 -3.375131 -0.428444 0
M  V30 48 H -7.328874 -3.691928 1.155651 0
M  V30 49 H -2.554210 -0.153407 5.522970 0
M  V30 50 H -0.724107 0.683817 3.906654 0
M  V30 51 H -1.480498 -1.289007 -2.566557 0
M  V30 52 H 0.000969 -0.704972 -4.389895 0
M  V30 53 H 3.168401 -1.017899 -1.175580 0
M  V30 54 H 3.541194 -2.709698 0.486818 0
M  V30 55 H 4.878938 -2.281830 2.434519 0
M  V30 56 H 5.908850 -0.093399 2.788882 0
M  V30 57 H 5.571880 1.719705 1.116961 0
M  V30 END ATOM
M  V30 BEGIN BOND
M  V30 1 1 1 2
M  V30 2 1 2 3
M  V30 3 1 3 4
M  V30 4 1 4 5
M  V30 5 2 5 6
M  V30 6 1 6 7
M  V30 7 1 7 8
M  V30 8 2 8 9
M  V30 9 1 9 10
M  V30 10 1 10 11
M  V30 11 1 11 12
M  V30 12 1 12 13
M  V30 13 1 13 14
M  V30 14 1 14 15
M  V30 15 1 15 16
M  V30 16 2 10 17
M  V30 17 1 17 18
M  V30 18 1 18 19
M  V30 19 2 19 20
M  V30 20 1 20 21
M  V30 21 2 21 22
M  V30 22 2 7 23
M  V30 23 1 23 24
M  V30 24 2 24 25
M  V30 25 1 3 26
M  V30 26 2 26 27
M  V30 27 1 27 28
M  V30 28 2 28 29
M  V30 29 1 29 30
M  V30 30 2 30 31
M  V30 31 1 25 5
M  V30 32 1 31 26
M  V30 33 1 22 8
M  V30 34 1 16 12
M  V30 35 1 21 17
M  V30 36 1 1 32
M  V30 37 1 1 33
M  V30 38 1 1 34
M  V30 39 1 2 35
M  V30 40 1 2 36
M  V30 41 1 3 37 CFG=3
M  V30 42 1 4 38
M  V30 43 1 6 39
M  V30 44 1 11 40
M  V30 45 1 12 41 CFG=1
M  V30 46 1 13 42
M  V30 47 1 13 43
M  V30 48 1 14 44
M  V30 49 1 14 45
M  V30 50 1 15 46
M  V30 51 1 16 47
M  V30 52 1 16 48
M  V30 53 1 19 49
M  V30 54 1 20 50
M  V30 55 1 23 51
M  V30 56 1 24 52
M  V30 57 1 27 53
M  V30 58 1 28 54
M  V30 59 1 29 55
M  V30 60 1 30 56
M  V30 61 1 31 57
M  V30 END BOND
M  V30 END CTAB
M  END
>  <Dataset>  (784) 
ChEMBL_Kinases

>  <Ligand_Instance>  (784) 
nan

>  <PDB_ID>  (784) 
nan

>  <Standardized_SMILES>  (784) 
CC[C@H](Nc1cc(-c2nc(N[C@@H]3CCNC3)c3sccc3n2)ccn1)c1ccccc1

>  <Name>  (784) 
nan

>  <Pocket>  (784) 
nan

>  <ATP_Site>  (784) 
nan

>  <Peripheral>  (784) 
nan

>  <Num_H_Atoms_ProtBoundConf>  (784) 
nan

>  <Num_Resolved_Atoms>  (784) 
nan

>  <Num_Not_Resolved_Atoms>  (784) 
nan

$$$$
CHEMBL3728039
     RDKit          3D

  0  0  0  0  0  0  0  0  0  0999 V3000
M  V30 BEGIN CTAB
M  V30 COUNTS 60 63 0 0 0
M  V30 BEGIN ATOM
M  V30 1 C 3.739092 -2.279755 4.805665 0
M  V30 2 C 5.014922 -1.606617 4.401445 0
M  V30 3 C 5.253933 -1.684307 2.887319 0 CFG=2
M  V30 4 C 5.327009 -3.148517 2.534139 0
M  V30 5 O 6.472319 -1.062967 2.574578 0
M  V30 6 C 4.230383 -0.958039 2.140681 0
M  V30 7 C 3.384497 -0.347978 1.543082 0
M  V30 8 C 2.392812 0.395523 0.844626 0
M  V30 9 C 2.473037 1.798158 0.859424 0
M  V30 10 S 0.986911 2.389315 -0.138425 0
M  V30 11 C 0.393859 0.770616 -0.486039 0
M  V30 12 C -0.723169 0.293961 -1.204806 0
M  V30 13 N -1.404532 1.380534 -1.677276 0
M  V30 14 C -2.120641 2.521777 -2.173806 0
M  V30 15 C -3.335689 2.952182 -1.473992 0 CFG=1
M  V30 16 N -3.887811 4.176885 -2.150956 0
M  V30 17 C -4.495527 2.044152 -1.418382 0
M  V30 18 C -4.371762 0.743108 -0.797759 0
M  V30 19 C -4.297218 -0.544465 -1.341456 0
M  V30 20 C -4.164097 -1.703345 -0.606367 0
M  V30 21 C -4.096020 -1.610003 0.771855 0
M  V30 22 C -4.165782 -0.360314 1.344693 0
M  V30 23 C -4.299760 0.792800 0.598583 0
M  V30 24 N -0.916277 -1.030228 -1.293298 0
M  V30 25 C -0.019971 -1.822329 -0.682546 0
M  V30 26 C -0.230557 -3.266143 -0.803544 0
M  V30 27 C -1.280820 -3.748517 -1.546801 0
M  V30 28 C -1.373800 -5.150846 -1.593354 0
M  V30 29 N -0.490896 -5.960564 -0.950343 0
M  V30 30 C 0.536001 -5.446538 -0.223820 0
M  V30 31 C 0.682627 -4.056001 -0.139291 0
M  V30 32 N 1.016470 -1.329073 -0.015754 0
M  V30 33 C 1.311037 -0.036869 0.141152 0
M  V30 34 H 3.956425 -3.340096 5.020378 0
M  V30 35 H 3.320448 -1.870287 5.750265 0
M  V30 36 H 2.991486 -2.213953 4.003897 0
M  V30 37 H 5.857321 -2.147093 4.888628 0
M  V30 38 H 4.998116 -0.532570 4.660655 0
M  V30 39 H 4.586624 -3.319731 1.705127 0
M  V30 40 H 5.014099 -3.825463 3.355097 0
M  V30 41 H 6.322666 -3.423823 2.127538 0
M  V30 42 H 7.163876 -1.654114 2.988904 0
M  V30 43 H 3.279925 2.490848 1.373406 0
M  V30 44 H -2.178981 0.873403 -2.151106 0
M  V30 45 H -2.222798 2.530541 -3.299465 0
M  V30 46 H -1.362840 3.402062 -1.965005 0
M  V30 47 H -3.094981 3.339248 -0.426978 0
M  V30 48 H -4.418976 4.678394 -1.414459 0
M  V30 49 H -3.114399 4.777090 -2.459245 0
M  V30 50 H -4.986326 1.951898 -2.447311 0
M  V30 51 H -5.319283 2.603325 -0.845490 0
M  V30 52 H -4.365863 -0.405393 -2.435891 0
M  V30 53 H -4.148850 -2.511533 -1.323831 0
M  V30 54 H -3.992440 -2.595555 1.201912 0
M  V30 55 H -4.099029 -0.444400 2.440877 0
M  V30 56 H -4.327436 1.639939 1.299476 0
M  V30 57 H -1.979737 -3.115403 -2.060413 0
M  V30 58 H -2.207163 -5.575620 -2.179401 0
M  V30 59 H 1.239465 -6.114459 0.287071 0
M  V30 60 H 1.504747 -3.647814 0.441005 0
M  V30 END ATOM
M  V30 BEGIN BOND
M  V30 1 1 1 2
M  V30 2 1 2 3
M  V30 3 1 3 4
M  V30 4 1 3 5
M  V30 5 1 3 6 CFG=3
M  V30 6 3 6 7
M  V30 7 1 7 8
M  V30 8 2 8 9
M  V30 9 1 9 10
M  V30 10 1 10 11
M  V30 11 2 11 12
M  V30 12 1 12 13
M  V30 13 1 13 14
M  V30 14 1 14 15
M  V30 15 1 15 16
M  V30 16 1 15 17
M  V30 17 1 17 18
M  V30 18 2 18 19
M  V30 19 1 19 20
M  V30 20 2 20 21
M  V30 21 1 21 22
M  V30 22 2 22 23
M  V30 23 1 12 24
M  V30 24 2 24 25
M  V30 25 1 25 26
M  V30 26 2 26 27
M  V30 27 1 27 28
M  V30 28 2 28 29
M  V30 29 1 29 30
M  V30 30 2 30 31
M  V30 31 1 25 32
M  V30 32 2 32 33
M  V30 33 1 33 8
M  V30 34 1 33 11
M  V30 35 1 23 18
M  V30 36 1 31 26
M  V30 37 1 1 34
M  V30 38 1 1 35
M  V30 39 1 1 36
M  V30 40 1 2 37
M  V30 41 1 2 38
M  V30 42 1 4 39
M  V30 43 1 4 40
M  V30 44 1 4 41
M  V30 45 1 5 42
M  V30 46 1 9 43
M  V30 47 1 13 44
M  V30 48 1 14 45
M  V30 49 1 14 46
M  V30 50 1 15 47 CFG=1
M  V30 51 1 16 48
M  V30 52 1 16 49
M  V30 53 1 17 50
M  V30 54 1 17 51
M  V30 55 1 19 52
M  V30 56 1 20 53
M  V30 57 1 21 54
M  V30 58 1 22 55
M  V30 59 1 23 56
M  V30 60 1 27 57
M  V30 61 1 28 58
M  V30 62 1 30 59
M  V30 63 1 31 60
M  V30 END BOND
M  V30 END CTAB
M  END
>  <Dataset>  (785) 
ChEMBL_Kinases

>  <Ligand_Instance>  (785) 
nan

>  <PDB_ID>  (785) 
nan

>  <Standardized_SMILES>  (785) 
CC[C@](C)(O)C#Cc1csc2c(NC[C@@H](N)Cc3ccccc3)nc(-c3ccncc3)nc12

>  <Name>  (785) 
nan

>  <Pocket>  (785) 
nan

>  <ATP_Site>  (785) 
nan

>  <Peripheral>  (785) 
nan

>  <Num_H_Atoms_ProtBoundConf>  (785) 
nan

>  <Num_Resolved_Atoms>  (785) 
nan

>  <Num_Not_Resolved_Atoms>  (785) 
nan

$$$$
CHEMBL3728024
     RDKit          3D

  0  0  0  0  0  0  0  0  0  0999 V3000
M  V30 BEGIN CTAB
M  V30 COUNTS 45 48 0 0 0
M  V30 BEGIN ATOM
M  V30 1 N 0.342651 -4.997826 -0.009062 0
M  V30 2 C 1.660776 -4.395870 0.248596 0
M  V30 3 C 1.658534 -2.957214 -0.135087 0
M  V30 4 N 0.701946 -2.135055 0.564115 0
M  V30 5 C 0.594920 -0.765803 0.300843 0
M  V30 6 N 1.389709 -0.307141 -0.663406 0
M  V30 7 C 1.487475 0.904953 -1.156514 0
M  V30 8 C 2.375033 1.342958 -2.208161 0
M  V30 9 C 3.245178 0.440387 -2.807327 0
M  V30 10 C 4.094511 0.827346 -3.803232 0
M  V30 11 N 4.072104 2.113286 -4.197171 0
M  V30 12 C 3.239861 3.005790 -3.633586 0
M  V30 13 C 2.361761 2.664682 -2.623066 0
M  V30 14 N 0.645266 1.762990 -0.570821 0
M  V30 15 C -0.185972 1.351888 0.416344 0
M  V30 16 S -1.393753 2.361269 1.313452 0
M  V30 17 C -1.968154 0.983833 2.349482 0
M  V30 18 C -1.204973 -0.095039 1.928794 0
M  V30 19 C -0.284144 0.065938 0.935841 0
M  V30 20 C -1.339805 -1.424513 2.574789 0
M  V30 21 C -2.237284 -1.329188 3.812140 0
M  V30 22 C -1.709486 -0.278364 4.759387 0
M  V30 23 C -2.528768 0.984043 4.710552 0
M  V30 24 C -3.017470 1.241114 3.308757 0
M  V30 25 H -0.032204 -5.421902 0.869718 0
M  V30 26 H -0.337567 -4.315467 -0.393397 0
M  V30 27 H 2.378510 -4.983644 -0.344137 0
M  V30 28 H 1.950316 -4.539115 1.305936 0
M  V30 29 H 1.471579 -2.834724 -1.236388 0
M  V30 30 H 2.680559 -2.549955 0.093742 0
M  V30 31 H 0.260075 -2.849808 1.162377 0
M  V30 32 H 3.300453 -0.607235 -2.524321 0
M  V30 33 H 4.812356 0.244258 -4.349885 0
M  V30 34 H 3.173189 4.067842 -3.909572 0
M  V30 35 H 1.676381 3.317389 -2.132248 0
M  V30 36 H -0.354773 -1.782710 2.964475 0
M  V30 37 H -1.807749 -2.194191 1.948449 0
M  V30 38 H -3.284165 -1.117964 3.577489 0
M  V30 39 H -2.208400 -2.307756 4.348155 0
M  V30 40 H -1.736551 -0.645260 5.824635 0
M  V30 41 H -0.662224 -0.004982 4.474838 0
M  V30 42 H -1.832154 1.841609 4.939736 0
M  V30 43 H -3.362329 0.959636 5.447704 0
M  V30 44 H -3.331480 2.326800 3.206159 0
M  V30 45 H -3.924905 0.659711 3.031019 0
M  V30 END ATOM
M  V30 BEGIN BOND
M  V30 1 1 1 2
M  V30 2 1 2 3
M  V30 3 1 3 4
M  V30 4 1 4 5
M  V30 5 2 5 6
M  V30 6 1 6 7
M  V30 7 1 7 8
M  V30 8 2 8 9
M  V30 9 1 9 10
M  V30 10 2 10 11
M  V30 11 1 11 12
M  V30 12 2 12 13
M  V30 13 2 7 14
M  V30 14 1 14 15
M  V30 15 1 15 16
M  V30 16 1 16 17
M  V30 17 2 17 18
M  V30 18 1 18 19
M  V30 19 1 18 20
M  V30 20 1 20 21
M  V30 21 1 21 22
M  V30 22 1 22 23
M  V30 23 1 23 24
M  V30 24 1 19 5
M  V30 25 1 13 8
M  V30 26 2 19 15
M  V30 27 1 24 17
M  V30 28 1 1 25
M  V30 29 1 1 26
M  V30 30 1 2 27
M  V30 31 1 2 28
M  V30 32 1 3 29
M  V30 33 1 3 30
M  V30 34 1 4 31
M  V30 35 1 9 32
M  V30 36 1 10 33
M  V30 37 1 12 34
M  V30 38 1 13 35
M  V30 39 1 20 36
M  V30 40 1 20 37
M  V30 41 1 21 38
M  V30 42 1 21 39
M  V30 43 1 22 40
M  V30 44 1 22 41
M  V30 45 1 23 42
M  V30 46 1 23 43
M  V30 47 1 24 44
M  V30 48 1 24 45
M  V30 END BOND
M  V30 END CTAB
M  END
>  <Dataset>  (786) 
ChEMBL_Kinases

>  <Ligand_Instance>  (786) 
nan

>  <PDB_ID>  (786) 
nan

>  <Standardized_SMILES>  (786) 
NCCNc1nc(-c2ccncc2)nc2sc3c(c12)CCCCC3

>  <Name>  (786) 
nan

>  <Pocket>  (786) 
nan

>  <ATP_Site>  (786) 
nan

>  <Peripheral>  (786) 
nan

>  <Num_H_Atoms_ProtBoundConf>  (786) 
nan

>  <Num_Resolved_Atoms>  (786) 
nan

>  <Num_Not_Resolved_Atoms>  (786) 
nan

$$$$
CHEMBL3728018
     RDKit          3D

  0  0  0  0  0  0  0  0  0  0999 V3000
M  V30 BEGIN CTAB
M  V30 COUNTS 39 42 0 0 0
M  V30 BEGIN ATOM
M  V30 1 C -3.373128 -3.723058 -0.448730 0
M  V30 2 C -2.498909 -2.807589 0.245965 0
M  V30 3 S -1.307331 -1.797403 -0.732146 0
M  V30 4 C -0.599742 -0.958539 0.620004 0
M  V30 5 C 0.396564 0.013811 0.713580 0
M  V30 6 N 1.075746 0.483612 -0.427712 0
M  V30 7 C 1.111125 0.208040 -1.820245 0 CFG=2
M  V30 8 C 1.806927 -1.070101 -2.211836 0
M  V30 9 C 1.867806 -0.873481 -3.735052 0
M  V30 10 N 2.063390 0.551809 -3.917345 0
M  V30 11 C 1.852185 1.205602 -2.664422 0
M  V30 12 N 0.729457 0.497678 1.932791 0
M  V30 13 C 0.061551 -0.006254 2.983648 0
M  V30 14 C 0.384673 0.484098 4.325063 0
M  V30 15 C 1.357751 1.443688 4.482114 0
M  V30 16 C 1.655118 1.899181 5.747685 0
M  V30 17 N 1.035950 1.446434 6.832248 0
M  V30 18 C 0.067641 0.497513 6.720776 0
M  V30 19 C -0.238843 0.033431 5.456742 0
M  V30 20 N -0.897332 -0.942092 2.899297 0
M  V30 21 C -1.261723 -1.451757 1.707898 0
M  V30 22 C -2.227398 -2.393917 1.504554 0
M  V30 23 Br -3.313864 -3.262654 2.821712 0
M  V30 24 H -2.856659 -4.692560 -0.602904 0
M  V30 25 H -4.251538 -3.921844 0.198876 0
M  V30 26 H -3.752390 -3.352245 -1.419816 0
M  V30 27 H 1.758931 1.253589 -0.244659 0
M  V30 28 H 0.077593 0.135333 -2.252037 0
M  V30 29 H 1.324146 -1.995912 -1.948836 0
M  V30 30 H 2.892084 -1.044740 -1.900060 0
M  V30 31 H 0.856022 -1.116739 -4.119667 0
M  V30 32 H 2.680378 -1.473662 -4.173492 0
M  V30 33 H 3.020769 0.680907 -4.313268 0
M  V30 34 H 1.360143 2.188544 -2.712180 0
M  V30 35 H 2.875821 1.335109 -2.206794 0
M  V30 36 H 1.869229 1.818563 3.592756 0
M  V30 37 H 2.438664 2.666848 5.836461 0
M  V30 38 H -0.444671 0.121972 7.611197 0
M  V30 39 H -1.009170 -0.722017 5.363945 0
M  V30 END ATOM
M  V30 BEGIN BOND
M  V30 1 1 1 2
M  V30 2 1 2 3
M  V30 3 1 3 4
M  V30 4 2 4 5
M  V30 5 1 5 6
M  V30 6 1 6 7
M  V30 7 1 7 8
M  V30 8 1 8 9
M  V30 9 1 9 10
M  V30 10 1 10 11
M  V30 11 1 5 12
M  V30 12 2 12 13
M  V30 13 1 13 14
M  V30 14 2 14 15
M  V30 15 1 15 16
M  V30 16 2 16 17
M  V30 17 1 17 18
M  V30 18 2 18 19
M  V30 19 1 13 20
M  V30 20 2 20 21
M  V30 21 1 21 22
M  V30 22 1 22 23
M  V30 23 2 22 2
M  V30 24 1 21 4
M  V30 25 1 11 7
M  V30 26 1 19 14
M  V30 27 1 1 24
M  V30 28 1 1 25
M  V30 29 1 1 26
M  V30 30 1 6 27
M  V30 31 1 7 28 CFG=3
M  V30 32 1 8 29
M  V30 33 1 8 30
M  V30 34 1 9 31
M  V30 35 1 9 32
M  V30 36 1 10 33
M  V30 37 1 11 34
M  V30 38 1 11 35
M  V30 39 1 15 36
M  V30 40 1 16 37
M  V30 41 1 18 38
M  V30 42 1 19 39
M  V30 END BOND
M  V30 END CTAB
M  END
>  <Dataset>  (787) 
ChEMBL_Kinases

>  <Ligand_Instance>  (787) 
nan

>  <PDB_ID>  (787) 
nan

>  <Standardized_SMILES>  (787) 
Cc1sc2c(N[C@@H]3CCNC3)nc(-c3ccncc3)nc2c1Br

>  <Name>  (787) 
nan

>  <Pocket>  (787) 
nan

>  <ATP_Site>  (787) 
nan

>  <Peripheral>  (787) 
nan

>  <Num_H_Atoms_ProtBoundConf>  (787) 
nan

>  <Num_Resolved_Atoms>  (787) 
nan

>  <Num_Not_Resolved_Atoms>  (787) 
nan

$$$$
CHEMBL3728004
     RDKit          3D

  0  0  0  0  0  0  0  0  0  0999 V3000
M  V30 BEGIN CTAB
M  V30 COUNTS 60 63 0 0 0
M  V30 BEGIN ATOM
M  V30 1 C 5.946688 0.939740 3.101371 0
M  V30 2 C 6.645734 0.004998 2.140649 0
M  V30 3 C 6.024246 -1.343959 2.251647 0
M  V30 4 O 8.013054 0.024486 2.404297 0
M  V30 5 C 6.478842 0.605158 0.742743 0
M  V30 6 C 5.069600 0.735983 0.363963 0
M  V30 7 C 3.912752 0.855252 0.042215 0
M  V30 8 C 2.538289 0.971948 -0.344307 0
M  V30 9 C 2.027188 2.243551 -0.613945 0
M  V30 10 S 0.219403 1.961345 -1.083819 0
M  V30 11 C 0.302762 0.235908 -0.886051 0
M  V30 12 C -0.640049 -0.807637 -1.042588 0
M  V30 13 N -1.873908 -0.255343 -1.440362 0
M  V30 14 C -3.113218 0.297380 -1.839689 0
M  V30 15 C -4.184668 0.006911 -0.785153 0 CFG=1
M  V30 16 N -3.695154 0.625048 0.437824 0
M  V30 17 C -5.503969 0.659544 -1.125496 0
M  V30 18 C -6.434405 0.274604 -0.003386 0
M  V30 19 C -7.158755 -0.911117 -0.193142 0
M  V30 20 C -8.044003 -1.355973 0.798500 0
M  V30 21 C -8.160268 -0.588400 1.935558 0
M  V30 22 C -7.455686 0.592580 2.153230 0
M  V30 23 C -6.587099 1.022753 1.172202 0
M  V30 24 N -0.273347 -2.085400 -0.813741 0
M  V30 25 C 0.995474 -2.303590 -0.441193 0
M  V30 26 C 1.345264 -3.699782 -0.205669 0
M  V30 27 C 2.645513 -3.931229 0.188681 0
M  V30 28 C 2.991671 -5.242461 0.417571 0
M  V30 29 N 2.092764 -6.258312 0.261674 0
M  V30 30 C 0.836074 -5.980216 -0.124820 0
M  V30 31 C 0.399885 -4.671827 -0.379088 0
M  V30 32 N 1.840435 -1.293588 -0.308561 0
M  V30 33 C 1.595746 0.003889 -0.505937 0
M  V30 34 H 5.972604 1.994911 2.759387 0
M  V30 35 H 4.898277 0.565714 3.209713 0
M  V30 36 H 6.420344 0.854687 4.090929 0
M  V30 37 H 5.801833 -1.782870 1.232422 0
M  V30 38 H 6.663516 -2.101874 2.734973 0
M  V30 39 H 5.022260 -1.244875 2.714962 0
M  V30 40 H 8.547510 -0.235193 1.614802 0
M  V30 41 H 7.026006 -0.046393 0.030502 0
M  V30 42 H 6.908581 1.630432 0.734679 0
M  V30 43 H 2.590921 3.259903 -0.561765 0
M  V30 44 H -2.384904 -1.201614 -1.514477 0
M  V30 45 H -3.053300 1.446538 -1.833195 0
M  V30 46 H -3.444421 0.025794 -2.865429 0
M  V30 47 H -4.331635 -1.084547 -0.666286 0
M  V30 48 H -4.235037 0.296226 1.277049 0
M  V30 49 H -2.694565 0.337946 0.549752 0
M  V30 50 H -5.935745 0.281683 -2.054749 0
M  V30 51 H -5.428384 1.764909 -1.088848 0
M  V30 52 H -7.026118 -1.484480 -1.121546 0
M  V30 53 H -8.583826 -2.272348 0.618646 0
M  V30 54 H -8.852233 -0.925969 2.724677 0
M  V30 55 H -7.571465 1.171971 3.059733 0
M  V30 56 H -5.988787 1.934993 1.247908 0
M  V30 57 H 3.355774 -3.125044 0.311532 0
M  V30 58 H 3.991689 -5.514936 0.729714 0
M  V30 59 H 0.118122 -6.772051 -0.251493 0
M  V30 60 H -0.627197 -4.450717 -0.693897 0
M  V30 END ATOM
M  V30 BEGIN BOND
M  V30 1 1 1 2
M  V30 2 1 2 3
M  V30 3 1 2 4
M  V30 4 1 2 5
M  V30 5 1 5 6
M  V30 6 3 6 7
M  V30 7 1 7 8
M  V30 8 2 8 9
M  V30 9 1 9 10
M  V30 10 1 10 11
M  V30 11 2 11 12
M  V30 12 1 12 13
M  V30 13 1 13 14
M  V30 14 1 14 15
M  V30 15 1 15 16
M  V30 16 1 15 17
M  V30 17 1 17 18
M  V30 18 2 18 19
M  V30 19 1 19 20
M  V30 20 2 20 21
M  V30 21 1 21 22
M  V30 22 2 22 23
M  V30 23 1 12 24
M  V30 24 2 24 25
M  V30 25 1 25 26
M  V30 26 2 26 27
M  V30 27 1 27 28
M  V30 28 2 28 29
M  V30 29 1 29 30
M  V30 30 2 30 31
M  V30 31 1 25 32
M  V30 32 2 32 33
M  V30 33 1 33 8
M  V30 34 1 33 11
M  V30 35 1 23 18
M  V30 36 1 31 26
M  V30 37 1 1 34
M  V30 38 1 1 35
M  V30 39 1 1 36
M  V30 40 1 3 37
M  V30 41 1 3 38
M  V30 42 1 3 39
M  V30 43 1 4 40
M  V30 44 1 5 41
M  V30 45 1 5 42
M  V30 46 1 9 43
M  V30 47 1 13 44
M  V30 48 1 14 45
M  V30 49 1 14 46
M  V30 50 1 15 47 CFG=1
M  V30 51 1 16 48
M  V30 52 1 16 49
M  V30 53 1 17 50
M  V30 54 1 17 51
M  V30 55 1 19 52
M  V30 56 1 20 53
M  V30 57 1 21 54
M  V30 58 1 22 55
M  V30 59 1 23 56
M  V30 60 1 27 57
M  V30 61 1 28 58
M  V30 62 1 30 59
M  V30 63 1 31 60
M  V30 END BOND
M  V30 END CTAB
M  END
>  <Dataset>  (788) 
ChEMBL_Kinases

>  <Ligand_Instance>  (788) 
nan

>  <PDB_ID>  (788) 
nan

>  <Standardized_SMILES>  (788) 
CC(C)(O)CC#Cc1csc2c(NC[C@@H](N)Cc3ccccc3)nc(-c3ccncc3)nc12

>  <Name>  (788) 
nan

>  <Pocket>  (788) 
nan

>  <ATP_Site>  (788) 
nan

>  <Peripheral>  (788) 
nan

>  <Num_H_Atoms_ProtBoundConf>  (788) 
nan

>  <Num_Resolved_Atoms>  (788) 
nan

>  <Num_Not_Resolved_Atoms>  (788) 
nan

$$$$
CHEMBL3728077
     RDKit          3D

  0  0  0  0  0  0  0  0  0  0999 V3000
M  V30 BEGIN CTAB
M  V30 COUNTS 54 58 0 0 0
M  V30 BEGIN ATOM
M  V30 1 N 1.324215 -2.119694 -2.785903 0
M  V30 2 C 0.588691 -1.518141 -1.659334 0 CFG=2
M  V30 3 C 1.039272 -2.081794 -0.359807 0
M  V30 4 N 0.356655 -1.525038 0.808093 0
M  V30 5 C 0.451107 -0.157475 1.155240 0
M  V30 6 N 1.145818 0.587009 0.321460 0
M  V30 7 C 1.385820 1.874973 0.327098 0
M  V30 8 C 2.163616 2.642301 -0.620556 0
M  V30 9 C 2.303233 4.004285 -0.453757 0
M  V30 10 C 3.026832 4.803385 -1.313252 0
M  V30 11 N 3.610302 4.202115 -2.349353 0
M  V30 12 C 3.502909 2.889148 -2.550703 0
M  V30 13 C 2.787364 2.071302 -1.708362 0
M  V30 14 N 0.807529 2.474579 1.367626 0
M  V30 15 C 0.076866 1.787834 2.273322 0
M  V30 16 S -0.772402 2.423297 3.706193 0
M  V30 17 C -1.426556 0.726919 4.206628 0
M  V30 18 C -0.930069 -0.120959 3.240023 0
M  V30 19 C -0.158321 0.410633 2.238293 0
M  V30 20 C -1.305701 -1.535751 3.498751 0
M  V30 21 C -1.565700 -1.696549 5.002242 0
M  V30 22 C -2.690327 -0.860672 5.508595 0
M  V30 23 C -2.254317 0.586855 5.355875 0
M  V30 24 C -0.900696 -1.689546 -1.873920 0
M  V30 25 C -1.282332 -3.113906 -1.976574 0
M  V30 26 C -1.686198 -4.000476 -1.004790 0
M  V30 27 C -1.988775 -5.302191 -1.341648 0
M  V30 28 C -1.910934 -5.796922 -2.641941 0
M  V30 29 N -1.519064 -4.950582 -3.609204 0
M  V30 30 C -1.223345 -3.667680 -3.261554 0
M  V30 31 H 2.288524 -1.727983 -2.844010 0
M  V30 32 H 1.300204 -3.145546 -2.659315 0
M  V30 33 H 0.804117 -0.418071 -1.779038 0
M  V30 34 H 2.139017 -1.787793 -0.268089 0
M  V30 35 H 1.064737 -3.162721 -0.416768 0
M  V30 36 H -0.144542 -2.339382 1.207016 0
M  V30 37 H 1.821723 4.478124 0.395129 0
M  V30 38 H 3.098074 5.875225 -1.124346 0
M  V30 39 H 3.982216 2.412771 -3.397007 0
M  V30 40 H 2.719373 1.014076 -1.897012 0
M  V30 41 H -0.421979 -2.215330 3.367650 0
M  V30 42 H -2.203470 -1.839896 2.968324 0
M  V30 43 H -1.762774 -2.753253 5.232134 0
M  V30 44 H -0.605636 -1.384284 5.484203 0
M  V30 45 H -2.843975 -1.104550 6.558949 0
M  V30 46 H -3.591918 -1.053871 4.924343 0
M  V30 47 H -1.728035 0.900342 6.277143 0
M  V30 48 H -3.173573 1.196321 5.279420 0
M  V30 49 H -1.479375 -1.202244 -1.060621 0
M  V30 50 H -1.211855 -1.174928 -2.806152 0
M  V30 51 H -1.736576 -3.585729 -0.027419 0
M  V30 52 H -2.303049 -5.959430 -0.529938 0
M  V30 53 H -2.159728 -6.823640 -2.845966 0
M  V30 54 H -0.916037 -3.068920 -4.128711 0
M  V30 END ATOM
M  V30 BEGIN BOND
M  V30 1 1 1 2
M  V30 2 1 2 3
M  V30 3 1 3 4
M  V30 4 1 4 5
M  V30 5 2 5 6
M  V30 6 1 6 7
M  V30 7 1 7 8
M  V30 8 2 8 9
M  V30 9 1 9 10
M  V30 10 2 10 11
M  V30 11 1 11 12
M  V30 12 2 12 13
M  V30 13 2 7 14
M  V30 14 1 14 15
M  V30 15 1 15 16
M  V30 16 1 16 17
M  V30 17 2 17 18
M  V30 18 1 18 19
M  V30 19 1 18 20
M  V30 20 1 20 21
M  V30 21 1 21 22
M  V30 22 1 22 23
M  V30 23 1 2 24
M  V30 24 1 24 25
M  V30 25 2 25 26
M  V30 26 1 26 27
M  V30 27 2 27 28
M  V30 28 1 28 29
M  V30 29 2 29 30
M  V30 30 1 19 5
M  V30 31 1 30 25
M  V30 32 1 13 8
M  V30 33 2 19 15
M  V30 34 1 23 17
M  V30 35 1 1 31
M  V30 36 1 1 32
M  V30 37 1 2 33 CFG=1
M  V30 38 1 3 34
M  V30 39 1 3 35
M  V30 40 1 4 36
M  V30 41 1 9 37
M  V30 42 1 10 38
M  V30 43 1 12 39
M  V30 44 1 13 40
M  V30 45 1 20 41
M  V30 46 1 20 42
M  V30 47 1 21 43
M  V30 48 1 21 44
M  V30 49 1 22 45
M  V30 50 1 22 46
M  V30 51 1 23 47
M  V30 52 1 23 48
M  V30 53 1 24 49
M  V30 54 1 24 50
M  V30 55 1 26 51
M  V30 56 1 27 52
M  V30 57 1 28 53
M  V30 58 1 30 54
M  V30 END BOND
M  V30 END CTAB
M  END
>  <Dataset>  (789) 
ChEMBL_Kinases

>  <Ligand_Instance>  (789) 
nan

>  <PDB_ID>  (789) 
nan

>  <Standardized_SMILES>  (789) 
N[C@H](CNc1nc(-c2ccncc2)nc2sc3c(c12)CCCC3)Cc1cccnc1

>  <Name>  (789) 
nan

>  <Pocket>  (789) 
nan

>  <ATP_Site>  (789) 
nan

>  <Peripheral>  (789) 
nan

>  <Num_H_Atoms_ProtBoundConf>  (789) 
nan

>  <Num_Resolved_Atoms>  (789) 
nan

>  <Num_Not_Resolved_Atoms>  (789) 
nan

$$$$
CHEMBL3728398
     RDKit          3D

  0  0  0  0  0  0  0  0  0  0999 V3000
M  V30 BEGIN CTAB
M  V30 COUNTS 46 50 0 0 0
M  V30 BEGIN ATOM
M  V30 1 F -1.499110 -0.508684 3.195472 0
M  V30 2 C -1.292988 -1.158090 2.029643 0
M  V30 3 C -0.305206 -0.755164 1.152117 0
M  V30 4 C 0.549892 0.394221 1.467007 0
M  V30 5 N 1.508766 0.730424 0.551052 0
M  V30 6 C 2.292684 1.801572 0.863353 0
M  V30 7 N 3.318792 2.290180 0.056921 0
M  V30 8 C 3.652898 1.705742 -1.189812 0 CFG=2
M  V30 9 C 2.531430 1.687038 -2.209098 0
M  V30 10 C 3.042145 0.681406 -3.219815 0
M  V30 11 N 3.982719 -0.183496 -2.538101 0
M  V30 12 C 4.034431 0.249747 -1.151135 0
M  V30 13 C 2.068219 2.451348 2.048443 0
M  V30 14 S 2.892257 3.850577 2.741492 0
M  V30 15 C 1.821061 3.879608 4.303973 0
M  V30 16 C 0.939812 2.812407 4.134875 0
M  V30 17 C 1.100490 2.117396 2.979881 0
M  V30 18 N 0.364631 1.045938 2.598851 0
M  V30 19 C -0.066285 -1.393938 -0.046393 0
M  V30 20 C -0.867312 -2.496096 -0.373427 0
M  V30 21 N -1.840190 -2.885498 0.500785 0
M  V30 22 C -2.051072 -2.247581 1.657940 0
M  V30 23 N -3.080534 -2.700821 2.529963 0
M  V30 24 C -3.939128 -3.800594 2.288751 0
M  V30 25 C -5.144713 -3.632409 1.637105 0
M  V30 26 N -5.986112 -4.673521 1.393716 0
M  V30 27 C -5.627334 -5.923234 1.806554 0
M  V30 28 C -4.415255 -6.031144 2.450564 0
M  V30 29 N -3.548011 -5.021801 2.713093 0
M  V30 30 H 3.904443 3.111480 0.314971 0
M  V30 31 H 4.516489 2.220555 -1.707702 0
M  V30 32 H 2.407336 2.698270 -2.680159 0
M  V30 33 H 1.600740 1.365417 -1.720869 0
M  V30 34 H 3.566261 1.195177 -4.036847 0
M  V30 35 H 2.217923 0.092083 -3.670575 0
M  V30 36 H 4.932379 -0.126368 -2.988684 0
M  V30 37 H 5.059041 0.070466 -0.740883 0
M  V30 38 H 3.254731 -0.323499 -0.621428 0
M  V30 39 H 1.778933 4.578560 5.295922 0
M  V30 40 H 0.217223 2.624427 4.911971 0
M  V30 41 H 0.691344 -1.118276 -0.763661 0
M  V30 42 H -0.717196 -3.030349 -1.304500 0
M  V30 43 H -3.271389 -2.226750 3.440298 0
M  V30 44 H -5.410493 -2.630979 1.317302 0
M  V30 45 H -6.209838 -6.823742 1.670787 0
M  V30 46 H -4.086605 -7.008472 2.798187 0
M  V30 END ATOM
M  V30 BEGIN BOND
M  V30 1 1 1 2
M  V30 2 2 2 3
M  V30 3 1 3 4
M  V30 4 2 4 5
M  V30 5 1 5 6
M  V30 6 1 6 7
M  V30 7 1 7 8
M  V30 8 1 8 9
M  V30 9 1 9 10
M  V30 10 1 10 11
M  V30 11 1 11 12
M  V30 12 2 6 13
M  V30 13 1 13 14
M  V30 14 1 14 15
M  V30 15 2 15 16
M  V30 16 1 16 17
M  V30 17 2 17 18
M  V30 18 1 3 19
M  V30 19 2 19 20
M  V30 20 1 20 21
M  V30 21 2 21 22
M  V30 22 1 22 23
M  V30 23 1 23 24
M  V30 24 2 24 25
M  V30 25 1 25 26
M  V30 26 2 26 27
M  V30 27 1 27 28
M  V30 28 2 28 29
M  V30 29 1 22 2
M  V30 30 1 29 24
M  V30 31 1 18 4
M  V30 32 1 12 8
M  V30 33 1 17 13
M  V30 34 1 7 30
M  V30 35 1 8 31 CFG=3
M  V30 36 1 9 32
M  V30 37 1 9 33
M  V30 38 1 10 34
M  V30 39 1 10 35
M  V30 40 1 11 36
M  V30 41 1 12 37
M  V30 42 1 12 38
M  V30 43 1 15 39
M  V30 44 1 16 40
M  V30 45 1 19 41
M  V30 46 1 20 42
M  V30 47 1 23 43
M  V30 48 1 25 44
M  V30 49 1 27 45
M  V30 50 1 28 46
M  V30 END BOND
M  V30 END CTAB
M  END
>  <Dataset>  (790) 
ChEMBL_Kinases

>  <Ligand_Instance>  (790) 
nan

>  <PDB_ID>  (790) 
nan

>  <Standardized_SMILES>  (790) 
Fc1c(-c2nc(N[C@@H]3CCNC3)c3sccc3n2)ccnc1Nc1cnccn1

>  <Name>  (790) 
nan

>  <Pocket>  (790) 
nan

>  <ATP_Site>  (790) 
nan

>  <Peripheral>  (790) 
nan

>  <Num_H_Atoms_ProtBoundConf>  (790) 
nan

>  <Num_Resolved_Atoms>  (790) 
nan

>  <Num_Not_Resolved_Atoms>  (790) 
nan

$$$$
CHEMBL3728395
     RDKit          3D

  0  0  0  0  0  0  0  0  0  0999 V3000
M  V30 BEGIN CTAB
M  V30 COUNTS 41 44 0 0 0
M  V30 BEGIN ATOM
M  V30 1 N -0.782656 -4.022988 0.076016 0
M  V30 2 C 0.620993 -3.754794 -0.263380 0
M  V30 3 C 1.272701 -3.315842 1.024415 0
M  V30 4 O 0.640263 -2.179023 1.499173 0
M  V30 5 C 0.593622 -0.988076 0.805503 0
M  V30 6 N 1.141212 -0.761178 -0.390907 0
M  V30 7 C 1.131871 0.352834 -1.102832 0
M  V30 8 C 1.762181 0.502762 -2.407490 0
M  V30 9 C 2.415622 -0.587950 -2.943816 0
M  V30 10 C 2.993068 -0.394094 -4.176351 0
M  V30 11 N 2.951133 0.764362 -4.855124 0
M  V30 12 C 2.304557 1.830549 -4.315849 0
M  V30 13 C 1.693583 1.711183 -3.067942 0
M  V30 14 N 0.486169 1.385413 -0.543728 0
M  V30 15 C -0.116529 1.286554 0.674242 0
M  V30 16 S -1.030527 2.443939 1.665162 0
M  V30 17 C -1.327667 1.240356 3.022298 0
M  V30 18 C -0.732963 0.144354 2.602138 0
M  V30 19 C -0.085907 0.087804 1.400935 0
M  V30 20 C -0.965792 -0.844033 3.694726 0
M  V30 21 C -0.435256 -0.292411 4.993012 0
M  V30 22 C -1.153667 0.942796 5.422379 0
M  V30 23 C -2.037019 1.371528 4.295312 0
M  V30 24 H -1.093988 -3.450277 0.882488 0
M  V30 25 H -1.356225 -3.728318 -0.753458 0
M  V30 26 H 1.045442 -4.719529 -0.632359 0
M  V30 27 H 0.718400 -2.952307 -1.011868 0
M  V30 28 H 2.378056 -3.144087 0.881825 0
M  V30 29 H 1.144246 -4.177600 1.735818 0
M  V30 30 H 2.442148 -1.511461 -2.389516 0
M  V30 31 H 3.512165 -1.244217 -4.613127 0
M  V30 32 H 2.183916 2.821593 -4.734265 0
M  V30 33 H 1.158529 2.521583 -2.574583 0
M  V30 34 H -0.493849 -1.813766 3.509068 0
M  V30 35 H -2.061821 -1.065214 3.817963 0
M  V30 36 H 0.653999 -0.150033 4.877092 0
M  V30 37 H -0.577564 -1.071117 5.769449 0
M  V30 38 H -0.407837 1.748958 5.576232 0
M  V30 39 H -1.716144 0.773574 6.338349 0
M  V30 40 H -2.379046 2.418035 4.486256 0
M  V30 41 H -2.936584 0.724085 4.281826 0
M  V30 END ATOM
M  V30 BEGIN BOND
M  V30 1 1 1 2
M  V30 2 1 2 3
M  V30 3 1 3 4
M  V30 4 1 4 5
M  V30 5 2 5 6
M  V30 6 1 6 7
M  V30 7 1 7 8
M  V30 8 2 8 9
M  V30 9 1 9 10
M  V30 10 2 10 11
M  V30 11 1 11 12
M  V30 12 2 12 13
M  V30 13 2 7 14
M  V30 14 1 14 15
M  V30 15 1 15 16
M  V30 16 1 16 17
M  V30 17 2 17 18
M  V30 18 1 18 19
M  V30 19 1 18 20
M  V30 20 1 20 21
M  V30 21 1 21 22
M  V30 22 1 22 23
M  V30 23 1 19 5
M  V30 24 1 13 8
M  V30 25 2 19 15
M  V30 26 1 23 17
M  V30 27 1 1 24
M  V30 28 1 1 25
M  V30 29 1 2 26
M  V30 30 1 2 27
M  V30 31 1 3 28
M  V30 32 1 3 29
M  V30 33 1 9 30
M  V30 34 1 10 31
M  V30 35 1 12 32
M  V30 36 1 13 33
M  V30 37 1 20 34
M  V30 38 1 20 35
M  V30 39 1 21 36
M  V30 40 1 21 37
M  V30 41 1 22 38
M  V30 42 1 22 39
M  V30 43 1 23 40
M  V30 44 1 23 41
M  V30 END BOND
M  V30 END CTAB
M  END
>  <Dataset>  (791) 
ChEMBL_Kinases

>  <Ligand_Instance>  (791) 
nan

>  <PDB_ID>  (791) 
nan

>  <Standardized_SMILES>  (791) 
NCCOc1nc(-c2ccncc2)nc2sc3c(c12)CCCC3

>  <Name>  (791) 
nan

>  <Pocket>  (791) 
nan

>  <ATP_Site>  (791) 
nan

>  <Peripheral>  (791) 
nan

>  <Num_H_Atoms_ProtBoundConf>  (791) 
nan

>  <Num_Resolved_Atoms>  (791) 
nan

>  <Num_Not_Resolved_Atoms>  (791) 
nan

$$$$
CHEMBL3728387
     RDKit          3D

  0  0  0  0  0  0  0  0  0  0999 V3000
M  V30 BEGIN CTAB
M  V30 COUNTS 39 42 0 0 0
M  V30 BEGIN ATOM
M  V30 1 C 0.744435 -4.589815 3.581693 0
M  V30 2 C 1.431563 -3.546721 2.799658 0
M  V30 3 C 2.918911 -3.693913 2.680220 0
M  V30 4 Br 3.970156 -5.211188 3.509615 0
M  V30 5 S 3.434395 -2.206645 1.644040 0
M  V30 6 C 1.753499 -1.566771 1.472550 0
M  V30 7 C 1.313193 -0.424610 0.796965 0
M  V30 8 N 2.343604 0.312128 0.172473 0
M  V30 9 C 1.873956 1.470943 -0.511089 0 CFG=2
M  V30 10 C 0.883475 1.177690 -1.618802 0
M  V30 11 C 0.934621 2.508374 -2.379482 0
M  V30 12 N 2.183957 3.127565 -2.060158 0
M  V30 13 C 2.958341 2.187525 -1.287542 0
M  V30 14 N -0.001960 -0.166040 0.818944 0
M  V30 15 C -0.792006 -1.049400 1.504154 0
M  V30 16 C -2.240254 -0.782681 1.539994 0
M  V30 17 C -3.089250 -1.635131 2.213664 0
M  V30 18 C -4.436787 -1.340494 2.216935 0
M  V30 19 N -4.902205 -0.252678 1.580116 0
M  V30 20 C -4.044512 0.575785 0.920713 0
M  V30 21 C -2.663669 0.343898 0.872050 0
M  V30 22 N -0.323167 -2.128130 2.134601 0
M  V30 23 C 0.978296 -2.454911 2.158733 0
M  V30 24 H 1.189265 -4.726878 4.589103 0
M  V30 25 H -0.297848 -4.224832 3.785012 0
M  V30 26 H 0.726914 -5.556593 3.082402 0
M  V30 27 H 3.335571 0.100631 0.167742 0
M  V30 28 H 1.463439 2.217830 0.201850 0
M  V30 29 H 1.363515 0.425813 -2.276227 0
M  V30 30 H -0.120953 0.936490 -1.283693 0
M  V30 31 H 0.097769 3.106488 -1.913270 0
M  V30 32 H 0.709707 2.395887 -3.444651 0
M  V30 33 H 2.041354 3.984251 -1.473849 0
M  V30 34 H 3.720493 2.648705 -0.660225 0
M  V30 35 H 3.377299 1.399244 -1.978998 0
M  V30 36 H -2.690262 -2.503944 2.718354 0
M  V30 37 H -5.136407 -1.999272 2.743812 0
M  V30 38 H -4.400067 1.471623 0.392291 0
M  V30 39 H -2.021419 1.028973 0.336415 0
M  V30 END ATOM
M  V30 BEGIN BOND
M  V30 1 1 1 2
M  V30 2 2 2 3
M  V30 3 1 3 4
M  V30 4 1 3 5
M  V30 5 1 5 6
M  V30 6 2 6 7
M  V30 7 1 7 8
M  V30 8 1 8 9
M  V30 9 1 9 10
M  V30 10 1 10 11
M  V30 11 1 11 12
M  V30 12 1 12 13
M  V30 13 1 7 14
M  V30 14 2 14 15
M  V30 15 1 15 16
M  V30 16 2 16 17
M  V30 17 1 17 18
M  V30 18 2 18 19
M  V30 19 1 19 20
M  V30 20 2 20 21
M  V30 21 1 15 22
M  V30 22 2 22 23
M  V30 23 1 23 2
M  V30 24 1 23 6
M  V30 25 1 13 9
M  V30 26 1 21 16
M  V30 27 1 1 24
M  V30 28 1 1 25
M  V30 29 1 1 26
M  V30 30 1 8 27
M  V30 31 1 9 28 CFG=1
M  V30 32 1 10 29
M  V30 33 1 10 30
M  V30 34 1 11 31
M  V30 35 1 11 32
M  V30 36 1 12 33
M  V30 37 1 13 34
M  V30 38 1 13 35
M  V30 39 1 17 36
M  V30 40 1 18 37
M  V30 41 1 20 38
M  V30 42 1 21 39
M  V30 END BOND
M  V30 END CTAB
M  END
>  <Dataset>  (792) 
ChEMBL_Kinases

>  <Ligand_Instance>  (792) 
nan

>  <PDB_ID>  (792) 
nan

>  <Standardized_SMILES>  (792) 
Cc1c(Br)sc2c(N[C@@H]3CCNC3)nc(-c3ccncc3)nc12

>  <Name>  (792) 
nan

>  <Pocket>  (792) 
nan

>  <ATP_Site>  (792) 
nan

>  <Peripheral>  (792) 
nan

>  <Num_H_Atoms_ProtBoundConf>  (792) 
nan

>  <Num_Resolved_Atoms>  (792) 
nan

>  <Num_Not_Resolved_Atoms>  (792) 
nan

$$$$
CHEMBL3728384
     RDKit          3D

  0  0  0  0  0  0  0  0  0  0999 V3000
M  V30 BEGIN CTAB
M  V30 COUNTS 37 40 0 0 0
M  V30 BEGIN ATOM
M  V30 1 N 3.715100 -5.303717 2.158204 0
M  V30 2 C 3.137786 -4.250760 1.375383 0
M  V30 3 C 2.354813 -3.300245 2.296540 0
M  V30 4 N 1.742345 -2.227781 1.674801 0
M  V30 5 C 1.117648 -1.133900 1.040646 0
M  V30 6 N 1.557732 -0.106291 0.311470 0
M  V30 7 C 0.675951 0.781384 -0.159235 0
M  V30 8 C 1.222791 1.874592 -0.943708 0
M  V30 9 C 2.559328 1.985924 -1.186764 0
M  V30 10 C 2.897231 3.074012 -1.938869 0
M  V30 11 N 2.037429 4.001130 -2.433885 0
M  V30 12 C 0.694859 3.890663 -2.191155 0
M  V30 13 C 0.338249 2.800773 -1.434819 0
M  V30 14 N -0.592101 0.644997 0.090222 0
M  V30 15 C -1.199315 -0.311626 0.794426 0
M  V30 16 C -0.246445 -1.216191 1.266927 0
M  V30 17 S -1.294838 -2.392147 2.172144 0
M  V30 18 C -2.916936 -1.513260 1.801292 0
M  V30 19 N -4.197304 -1.861569 2.192278 0
M  V30 20 C -5.222626 -1.091307 1.816512 0
M  V30 21 C -4.848765 -0.020412 1.066224 0
M  V30 22 C -3.617349 0.367024 0.655641 0
M  V30 23 C -2.534457 -0.382331 1.010431 0
M  V30 24 H 3.655734 -5.142824 3.188777 0
M  V30 25 H 3.500210 -6.252118 1.840750 0
M  V30 26 H 2.524051 -4.598546 0.527830 0
M  V30 27 H 3.974353 -3.662964 0.944691 0
M  V30 28 H 3.071569 -3.037516 3.115261 0
M  V30 29 H 1.612129 -3.941821 2.896772 0
M  V30 30 H 2.732850 -1.940308 1.354735 0
M  V30 31 H 3.281881 1.282864 -0.820989 0
M  V30 32 H 3.955745 3.247566 -2.185239 0
M  V30 33 H -0.050476 4.588327 -2.552874 0
M  V30 34 H -0.738478 2.697440 -1.230997 0
M  V30 35 H -6.177288 -1.395612 2.138069 0
M  V30 36 H -5.664616 0.646025 0.732818 0
M  V30 37 H -3.461145 1.244102 0.058659 0
M  V30 END ATOM
M  V30 BEGIN BOND
M  V30 1 1 1 2
M  V30 2 1 2 3
M  V30 3 1 3 4
M  V30 4 1 4 5
M  V30 5 2 5 6
M  V30 6 1 6 7
M  V30 7 1 7 8
M  V30 8 2 8 9
M  V30 9 1 9 10
M  V30 10 2 10 11
M  V30 11 1 11 12
M  V30 12 2 12 13
M  V30 13 2 7 14
M  V30 14 1 14 15
M  V30 15 2 15 16
M  V30 16 1 16 17
M  V30 17 1 17 18
M  V30 18 2 18 19
M  V30 19 1 19 20
M  V30 20 2 20 21
M  V30 21 1 21 22
M  V30 22 2 22 23
M  V30 23 1 16 5
M  V30 24 1 23 18
M  V30 25 1 13 8
M  V30 26 1 23 15
M  V30 27 1 1 24
M  V30 28 1 1 25
M  V30 29 1 2 26
M  V30 30 1 2 27
M  V30 31 1 3 28
M  V30 32 1 3 29
M  V30 33 1 4 30
M  V30 34 1 9 31
M  V30 35 1 10 32
M  V30 36 1 12 33
M  V30 37 1 13 34
M  V30 38 1 20 35
M  V30 39 1 21 36
M  V30 40 1 22 37
M  V30 END BOND
M  V30 END CTAB
M  END
>  <Dataset>  (793) 
ChEMBL_Kinases

>  <Ligand_Instance>  (793) 
nan

>  <PDB_ID>  (793) 
nan

>  <Standardized_SMILES>  (793) 
NCCNc1nc(-c2ccncc2)nc2c1sc1ncccc12

>  <Name>  (793) 
nan

>  <Pocket>  (793) 
nan

>  <ATP_Site>  (793) 
nan

>  <Peripheral>  (793) 
nan

>  <Num_H_Atoms_ProtBoundConf>  (793) 
nan

>  <Num_Resolved_Atoms>  (793) 
nan

>  <Num_Not_Resolved_Atoms>  (793) 
nan

$$$$
CHEMBL3728377
     RDKit          3D

  0  0  0  0  0  0  0  0  0  0999 V3000
M  V30 BEGIN CTAB
M  V30 COUNTS 43 44 0 0 0
M  V30 BEGIN ATOM
M  V30 1 C 1.239158 -2.442050 4.069532 0
M  V30 2 C 2.475133 -1.704174 3.621992 0
M  V30 3 C 3.136940 -1.064123 4.822717 0
M  V30 4 O 2.254963 -0.827686 2.573229 0
M  V30 5 C 2.777484 -0.820520 1.313973 0
M  V30 6 C 3.677083 -1.714346 0.775971 0
M  V30 7 C 4.187145 -1.679494 -0.504331 0
M  V30 8 C 3.731283 -0.639525 -1.289165 0
M  V30 9 C 2.817805 0.315935 -0.829946 0
M  V30 10 N 2.422534 1.352510 -1.717768 0
M  V30 11 C 1.452604 2.365497 -1.315850 0
M  V30 12 C 0.168698 1.597519 -1.117362 0
M  V30 13 O 0.139937 0.336905 -1.321119 0
M  V30 14 N -1.101344 2.107031 -0.708521 0
M  V30 15 N -1.943567 0.969651 -0.684136 0
M  V30 16 C -2.787108 0.816625 0.261339 0
M  V30 17 C -3.594552 -0.405866 0.160367 0
M  V30 18 C -3.416071 -1.280733 -0.885742 0
M  V30 19 C -4.167957 -2.448110 -1.008103 0
M  V30 20 N -5.085246 -2.692692 -0.056200 0
M  V30 21 C -5.284261 -1.855820 0.981023 0
M  V30 22 C -4.534667 -0.694660 1.100471 0
M  V30 23 C 2.356536 0.211078 0.461208 0
M  V30 24 H 0.966995 -2.075219 5.082745 0
M  V30 25 H 1.429570 -3.520690 4.162739 0
M  V30 26 H 0.358573 -2.212758 3.433491 0
M  V30 27 H 3.205287 -2.484645 3.273697 0
M  V30 28 H 4.223971 -0.909104 4.672271 0
M  V30 29 H 2.648579 -0.154099 5.182906 0
M  V30 30 H 3.057048 -1.797223 5.679049 0
M  V30 31 H 4.013954 -2.515562 1.416533 0
M  V30 32 H 4.892909 -2.416878 -0.859416 0
M  V30 33 H 4.143142 -0.619250 -2.307664 0
M  V30 34 H 2.819660 1.408043 -2.674883 0
M  V30 35 H 1.324262 3.135485 -2.081190 0
M  V30 36 H 1.831774 2.778731 -0.370099 0
M  V30 37 H -1.093029 3.151834 -0.533958 0
M  V30 38 H -2.912978 1.502796 1.065309 0
M  V30 39 H -2.698001 -1.117656 -1.657836 0
M  V30 40 H -4.031605 -3.130070 -1.821212 0
M  V30 41 H -6.032880 -2.083587 1.730748 0
M  V30 42 H -4.738149 -0.073710 1.942045 0
M  V30 43 H 1.643351 0.951225 0.849937 0
M  V30 END ATOM
M  V30 BEGIN BOND
M  V30 1 1 1 2
M  V30 2 1 2 3
M  V30 3 1 2 4
M  V30 4 1 4 5
M  V30 5 2 5 6
M  V30 6 1 6 7
M  V30 7 2 7 8
M  V30 8 1 8 9
M  V30 9 1 9 10
M  V30 10 1 10 11
M  V30 11 1 11 12
M  V30 12 2 12 13
M  V30 13 1 12 14
M  V30 14 1 14 15
M  V30 15 2 15 16
M  V30 16 1 16 17
M  V30 17 2 17 18
M  V30 18 1 18 19
M  V30 19 2 19 20
M  V30 20 1 20 21
M  V30 21 2 21 22
M  V30 22 2 9 23
M  V30 23 1 23 5
M  V30 24 1 22 17
M  V30 25 1 1 24
M  V30 26 1 1 25
M  V30 27 1 1 26
M  V30 28 1 2 27
M  V30 29 1 3 28
M  V30 30 1 3 29
M  V30 31 1 3 30
M  V30 32 1 6 31
M  V30 33 1 7 32
M  V30 34 1 8 33
M  V30 35 1 10 34
M  V30 36 1 11 35
M  V30 37 1 11 36
M  V30 38 1 14 37
M  V30 39 1 16 38
M  V30 40 1 18 39
M  V30 41 1 19 40
M  V30 42 1 21 41
M  V30 43 1 22 42
M  V30 44 1 23 43
M  V30 END BOND
M  V30 END CTAB
M  END
>  <Dataset>  (794) 
ChEMBL_Kinases

>  <Ligand_Instance>  (794) 
nan

>  <PDB_ID>  (794) 
nan

>  <Standardized_SMILES>  (794) 
CC(C)Oc1cccc(NCC(=O)N/N=C/c2ccncc2)c1

>  <Name>  (794) 
nan

>  <Pocket>  (794) 
nan

>  <ATP_Site>  (794) 
nan

>  <Peripheral>  (794) 
nan

>  <Num_H_Atoms_ProtBoundConf>  (794) 
nan

>  <Num_Resolved_Atoms>  (794) 
nan

>  <Num_Not_Resolved_Atoms>  (794) 
nan

$$$$
CHEMBL3728359
     RDKit          3D

  0  0  0  0  0  0  0  0  0  0999 V3000
M  V30 BEGIN CTAB
M  V30 COUNTS 39 42 0 0 0
M  V30 BEGIN ATOM
M  V30 1 N 2.487542 -5.962212 -0.372156 0
M  V30 2 C 2.423352 -5.033701 -1.442895 0
M  V30 3 C 3.282488 -5.115450 -2.527891 0
M  V30 4 C 3.180160 -4.170635 -3.552407 0
M  V30 5 C 2.231595 -3.145791 -3.509339 0
M  V30 6 Cl 2.103525 -1.957103 -4.800443 0
M  V30 7 C 1.387680 -3.052526 -2.461292 0
M  V30 8 N 0.367905 -2.036910 -2.285624 0
M  V30 9 C 0.748691 -0.897501 -1.474026 0
M  V30 10 N 1.866398 -0.297818 -1.495029 0
M  V30 11 C 2.021484 0.777217 -0.623431 0
M  V30 12 O 3.057709 1.509062 -0.491014 0
M  V30 13 C 0.893572 1.093413 0.214047 0
M  V30 14 C 0.692019 1.978780 1.146082 0
M  V30 15 C -0.580649 2.083740 1.854838 0
M  V30 16 C -1.892643 2.006136 1.438462 0
M  V30 17 C -2.961441 2.117179 2.301402 0
M  V30 18 C -2.748187 2.314215 3.642756 0
M  V30 19 N -3.848125 2.414904 4.449211 0
M  V30 20 C -3.746799 2.607889 5.775636 0
M  V30 21 C -2.462559 2.697595 6.269291 0
M  V30 22 C -1.332336 2.601066 5.489364 0
M  V30 23 C -1.457931 2.400261 4.111085 0
M  V30 24 C -0.406982 2.287857 3.237511 0
M  V30 25 S -0.367189 -0.093974 -0.275595 0
M  V30 26 C 1.500911 -4.007371 -1.438636 0
M  V30 27 H 2.085666 -6.839841 -0.769312 0
M  V30 28 H 2.845319 -5.855848 0.624067 0
M  V30 29 H 4.024574 -5.911157 -2.571009 0
M  V30 30 H 3.860220 -4.257563 -4.385303 0
M  V30 31 H -0.604137 -2.045758 -2.680752 0
M  V30 32 H 1.502227 2.649416 1.384717 0
M  V30 33 H -1.927198 1.849765 0.355743 0
M  V30 34 H -3.933043 2.034331 1.818762 0
M  V30 35 H -4.579200 2.694099 6.454562 0
M  V30 36 H -2.219624 2.853924 7.332875 0
M  V30 37 H -0.323752 2.668618 5.859933 0
M  V30 38 H 0.572038 2.371714 3.719927 0
M  V30 39 H 0.843686 -3.970826 -0.578007 0
M  V30 END ATOM
M  V30 BEGIN BOND
M  V30 1 1 1 2
M  V30 2 2 2 3
M  V30 3 1 3 4
M  V30 4 2 4 5
M  V30 5 1 5 6
M  V30 6 1 5 7
M  V30 7 1 7 8
M  V30 8 1 8 9
M  V30 9 2 9 10
M  V30 10 1 10 11
M  V30 11 2 11 12
M  V30 12 1 11 13
M  V30 13 2 13 14
M  V30 14 1 14 15
M  V30 15 2 15 16
M  V30 16 1 16 17
M  V30 17 2 17 18
M  V30 18 1 18 19
M  V30 19 2 19 20
M  V30 20 1 20 21
M  V30 21 2 21 22
M  V30 22 1 22 23
M  V30 23 2 23 24
M  V30 24 1 13 25
M  V30 25 2 7 26
M  V30 26 1 26 2
M  V30 27 1 25 9
M  V30 28 1 24 15
M  V30 29 1 23 18
M  V30 30 1 1 27
M  V30 31 1 1 28
M  V30 32 1 3 29
M  V30 33 1 4 30
M  V30 34 1 8 31
M  V30 35 1 14 32
M  V30 36 1 16 33
M  V30 37 1 17 34
M  V30 38 1 20 35
M  V30 39 1 21 36
M  V30 40 1 22 37
M  V30 41 1 24 38
M  V30 42 1 26 39
M  V30 END BOND
M  V30 END CTAB
M  END
>  <Dataset>  (795) 
ChEMBL_Kinases

>  <Ligand_Instance>  (795) 
nan

>  <PDB_ID>  (795) 
nan

>  <Standardized_SMILES>  (795) 
Nc1ccc(Cl)c(NC2=NC(=O)/C(=C/c3ccc4ncccc4c3)S2)c1

>  <Name>  (795) 
nan

>  <Pocket>  (795) 
nan

>  <ATP_Site>  (795) 
nan

>  <Peripheral>  (795) 
nan

>  <Num_H_Atoms_ProtBoundConf>  (795) 
nan

>  <Num_Resolved_Atoms>  (795) 
nan

>  <Num_Not_Resolved_Atoms>  (795) 
nan

$$$$
CHEMBL3728351
     RDKit          3D

  0  0  0  0  0  0  0  0  0  0999 V3000
M  V30 BEGIN CTAB
M  V30 COUNTS 61 64 0 0 0
M  V30 BEGIN ATOM
M  V30 1 C 7.249286 3.003373 3.555211 0
M  V30 2 N 5.804298 3.136114 3.516549 0
M  V30 3 C 5.331895 2.990556 4.892958 0
M  V30 4 C 5.295688 2.121523 2.642071 0
M  V30 5 C 3.859414 2.082217 2.435200 0
M  V30 6 O 3.588630 1.105569 1.638101 0
M  V30 7 N 2.681500 2.782710 2.839202 0
M  V30 8 C 1.592371 2.115840 2.192589 0
M  V30 9 C 1.169836 2.527159 0.948829 0
M  V30 10 C 0.120811 1.846123 0.371872 0
M  V30 11 C -0.483539 0.790136 1.017659 0
M  V30 12 C -1.608121 -0.086971 0.622652 0 CFG=1
M  V30 13 C -2.192862 0.139551 -0.713789 0
M  V30 14 N -1.959629 -1.109202 -1.470309 0
M  V30 15 C -2.816681 -2.049623 -2.145623 0
M  V30 16 N -2.958544 -3.161262 -1.404097 0
M  V30 17 C -3.713991 -4.202670 -1.790963 0
M  V30 18 C -3.871342 -5.420767 -1.009609 0
M  V30 19 C -4.649261 -6.501290 -1.343287 0
M  V30 20 C -4.671302 -7.597849 -0.471184 0
M  V30 21 N -3.977131 -7.672707 0.685160 0
M  V30 22 C -3.205004 -6.584837 1.003512 0
M  V30 23 C -3.163823 -5.498117 0.170621 0
M  V30 24 F -2.356100 -4.528555 0.643221 0
M  V30 25 C -4.332793 -4.042256 -3.006611 0
M  V30 26 C -4.176738 -2.889334 -3.760660 0
M  V30 27 O -4.738909 -2.725351 -4.882214 0
M  V30 28 N -3.410905 -1.866845 -3.340726 0
M  V30 29 C -3.157699 -0.609968 -4.016287 0
M  V30 30 C -0.517568 -1.354885 -1.443352 0
M  V30 31 C -0.238087 -1.824867 -0.023696 0
M  V30 32 O -1.247339 -1.419230 0.851883 0
M  V30 33 C -0.015446 0.410789 2.283825 0
M  V30 34 C 1.030426 1.050437 2.917001 0
M  V30 35 H 7.712093 3.623739 2.759657 0
M  V30 36 H 7.586935 3.326184 4.557239 0
M  V30 37 H 7.481624 1.913659 3.439043 0
M  V30 38 H 5.236649 4.002031 5.346283 0
M  V30 39 H 6.106742 2.459529 5.517543 0
M  V30 40 H 4.401687 2.423108 4.986161 0
M  V30 41 H 5.875452 2.182891 1.694593 0
M  V30 42 H 5.613816 1.125720 3.075541 0
M  V30 43 H 2.963164 3.549772 3.465672 0
M  V30 44 H 1.613105 3.339070 0.416449 0
M  V30 45 H -0.298263 2.070893 -0.592701 0
M  V30 46 H -2.424360 0.121792 1.377882 0
M  V30 47 H -1.736673 0.928820 -1.335828 0
M  V30 48 H -3.300374 0.314493 -0.683724 0
M  V30 49 H -5.198453 -6.452633 -2.249771 0
M  V30 50 H -5.295901 -8.465807 -0.737317 0
M  V30 51 H -2.681045 -6.714060 1.934514 0
M  V30 52 H -4.960219 -4.792952 -3.430159 0
M  V30 53 H -3.840226 0.190648 -3.636531 0
M  V30 54 H -3.335899 -0.716702 -5.123805 0
M  V30 55 H -2.090759 -0.330243 -3.893151 0
M  V30 56 H 0.076912 -0.461671 -1.707520 0
M  V30 57 H -0.287895 -2.117895 -2.200373 0
M  V30 58 H 0.779088 -1.580925 0.327031 0
M  V30 59 H -0.290762 -2.929796 -0.070730 0
M  V30 60 H -0.410712 -0.411935 2.904097 0
M  V30 61 H 1.415115 0.786142 3.889630 0
M  V30 END ATOM
M  V30 BEGIN BOND
M  V30 1 1 1 2
M  V30 2 1 2 3
M  V30 3 1 2 4
M  V30 4 1 4 5
M  V30 5 2 5 6
M  V30 6 1 5 7
M  V30 7 1 7 8
M  V30 8 2 8 9
M  V30 9 1 9 10
M  V30 10 2 10 11
M  V30 11 1 11 12
M  V30 12 1 12 13
M  V30 13 1 13 14
M  V30 14 1 14 15
M  V30 15 2 15 16
M  V30 16 1 16 17
M  V30 17 1 17 18
M  V30 18 2 18 19
M  V30 19 1 19 20
M  V30 20 2 20 21
M  V30 21 1 21 22
M  V30 22 2 22 23
M  V30 23 1 23 24
M  V30 24 2 17 25
M  V30 25 1 25 26
M  V30 26 2 26 27
M  V30 27 1 26 28
M  V30 28 1 28 29
M  V30 29 1 14 30
M  V30 30 1 30 31
M  V30 31 1 31 32
M  V30 32 1 11 33
M  V30 33 2 33 34
M  V30 34 1 34 8
M  V30 35 1 32 12
M  V30 36 1 28 15
M  V30 37 1 23 18
M  V30 38 1 1 35
M  V30 39 1 1 36
M  V30 40 1 1 37
M  V30 41 1 3 38
M  V30 42 1 3 39
M  V30 43 1 3 40
M  V30 44 1 4 41
M  V30 45 1 4 42
M  V30 46 1 7 43
M  V30 47 1 9 44
M  V30 48 1 10 45
M  V30 49 1 12 46 CFG=1
M  V30 50 1 13 47
M  V30 51 1 13 48
M  V30 52 1 19 49
M  V30 53 1 20 50
M  V30 54 1 22 51
M  V30 55 1 25 52
M  V30 56 1 29 53
M  V30 57 1 29 54
M  V30 58 1 29 55
M  V30 59 1 30 56
M  V30 60 1 30 57
M  V30 61 1 31 58
M  V30 62 1 31 59
M  V30 63 1 33 60
M  V30 64 1 34 61
M  V30 END BOND
M  V30 END CTAB
M  END
>  <Dataset>  (796) 
ChEMBL_Kinases

>  <Ligand_Instance>  (796) 
nan

>  <PDB_ID>  (796) 
nan

>  <Standardized_SMILES>  (796) 
CN(C)CC(=O)Nc1ccc([C@H]2CN(c3nc(-c4ccncc4F)cc(=O)n3C)CCO2)cc1

>  <Name>  (796) 
nan

>  <Pocket>  (796) 
nan

>  <ATP_Site>  (796) 
nan

>  <Peripheral>  (796) 
nan

>  <Num_H_Atoms_ProtBoundConf>  (796) 
nan

>  <Num_Resolved_Atoms>  (796) 
nan

>  <Num_Not_Resolved_Atoms>  (796) 
nan

$$$$
CHEMBL554485
     RDKit          3D

  0  0  0  0  0  0  0  0  0  0999 V3000
M  V30 BEGIN CTAB
M  V30 COUNTS 42 44 0 0 0
M  V30 BEGIN ATOM
M  V30 1 C 1.174992 -4.052420 0.394153 0
M  V30 2 C -0.190761 -3.873365 -0.169135 0
M  V30 3 C -0.749223 -4.840923 -0.983709 0
M  V30 4 C -2.018156 -4.753421 -1.551038 0
M  V30 5 C -2.741273 -3.604204 -1.257047 0
M  V30 6 C -2.240151 -2.599340 -0.449375 0
M  V30 7 C -3.042756 -1.373776 -0.150807 0
M  V30 8 C -0.969874 -2.745074 0.085875 0
M  V30 9 C -0.376173 -1.742716 0.936921 0
M  V30 10 C 0.390723 -0.698874 0.396143 0
M  V30 11 N 0.528772 -0.711851 -1.020346 0
M  V30 12 C 0.914417 0.207656 1.293624 0
M  V30 13 C 1.702476 1.278647 0.700435 0
M  V30 14 O 1.843366 1.321194 -0.548582 0
M  V30 15 C 2.413674 2.394628 1.309745 0
M  V30 16 C 3.236139 2.303311 2.413497 0
M  V30 17 C 3.897629 3.379629 2.964631 0
M  V30 18 C 3.743117 4.626497 2.397138 0
M  V30 19 F 4.388964 5.686347 2.932562 0
M  V30 20 C 2.934548 4.783449 1.292159 0
M  V30 21 C 2.285285 3.675895 0.766229 0
M  V30 22 F 1.504011 3.837762 -0.304501 0
M  V30 23 C 0.687963 0.082065 2.646523 0
M  V30 24 C -0.077315 -0.972681 3.100726 0
M  V30 25 N -0.607659 -1.880528 2.259200 0 CHG=1 VAL=4
M  V30 26 O -1.366674 -2.920570 2.751126 0 CHG=-1 VAL=1
M  V30 27 H 1.968542 -3.889738 -0.360733 0
M  V30 28 H 1.326672 -3.527539 1.348453 0
M  V30 29 H 1.249393 -5.136322 0.640748 0
M  V30 30 H -0.135768 -5.726934 -1.183168 0
M  V30 31 H -2.406104 -5.539553 -2.180907 0
M  V30 32 H -3.732876 -3.474261 -1.665769 0
M  V30 33 H -3.138414 -0.707004 -1.018167 0
M  V30 34 H -2.792873 -0.913293 0.802006 0
M  V30 35 H -4.088911 -1.751146 0.000477 0
M  V30 36 H 0.393340 -0.026196 -1.789731 0
M  V30 37 H 0.392171 -0.021913 -1.791143 0
M  V30 38 H 3.372119 1.347144 2.867745 0
M  V30 39 H 4.536455 3.261850 3.835784 0
M  V30 40 H 2.789073 5.749313 0.818674 0
M  V30 41 H 1.097116 0.789975 3.326182 0
M  V30 42 H -0.231104 -1.034267 4.175117 0
M  V30 END ATOM
M  V30 BEGIN BOND
M  V30 1 1 1 2
M  V30 2 2 2 3
M  V30 3 1 3 4
M  V30 4 2 4 5
M  V30 5 1 5 6
M  V30 6 1 6 7
M  V30 7 2 6 8
M  V30 8 1 8 9
M  V30 9 2 9 10
M  V30 10 1 10 11
M  V30 11 1 10 12
M  V30 12 1 12 13
M  V30 13 2 13 14
M  V30 14 1 13 15
M  V30 15 2 15 16
M  V30 16 1 16 17
M  V30 17 2 17 18
M  V30 18 1 18 19
M  V30 19 1 18 20
M  V30 20 2 20 21
M  V30 21 1 21 22
M  V30 22 2 12 23
M  V30 23 1 23 24
M  V30 24 2 24 25
M  V30 25 1 25 26
M  V30 26 1 8 2
M  V30 27 1 25 9
M  V30 28 1 21 15
M  V30 29 1 1 27
M  V30 30 1 1 28
M  V30 31 1 1 29
M  V30 32 1 3 30
M  V30 33 1 4 31
M  V30 34 1 5 32
M  V30 35 1 7 33
M  V30 36 1 7 34
M  V30 37 1 7 35
M  V30 38 1 11 36
M  V30 39 1 11 37
M  V30 40 1 16 38
M  V30 41 1 17 39
M  V30 42 1 20 40
M  V30 43 1 23 41
M  V30 44 1 24 42
M  V30 END BOND
M  V30 END CTAB
M  END
>  <Dataset>  (797) 
ChEMBL_Kinases

>  <Ligand_Instance>  (797) 
nan

>  <PDB_ID>  (797) 
nan

>  <Standardized_SMILES>  (797) 
Cc1cccc(C)c1-c1c(N)c(C(=O)c2ccc(F)cc2F)cc[n+]1[O-]

>  <Name>  (797) 
nan

>  <Pocket>  (797) 
nan

>  <ATP_Site>  (797) 
nan

>  <Peripheral>  (797) 
nan

>  <Num_H_Atoms_ProtBoundConf>  (797) 
nan

>  <Num_Resolved_Atoms>  (797) 
nan

>  <Num_Not_Resolved_Atoms>  (797) 
nan

$$$$
CHEMBL3728330
     RDKit          3D

  0  0  0  0  0  0  0  0  0  0999 V3000
M  V30 BEGIN CTAB
M  V30 COUNTS 36 39 0 0 0
M  V30 BEGIN ATOM
M  V30 1 C -1.703188 -0.630416 5.295236 0
M  V30 2 C -0.943758 0.051801 4.357003 0
M  V30 3 C -0.683282 -0.517584 3.130434 0
M  V30 4 C 0.111252 0.166522 2.115431 0
M  V30 5 N 0.335094 -0.436982 0.932939 0
M  V30 6 C 1.061817 0.179467 -0.005965 0
M  V30 7 N 1.409388 -0.274503 -1.297979 0
M  V30 8 C 0.881322 -1.570920 -1.570762 0 CFG=2
M  V30 9 C 1.255905 -2.062954 -2.966019 0
M  V30 10 C 0.283476 -3.242924 -3.066501 0
M  V30 11 N -0.942150 -2.778508 -2.448086 0
M  V30 12 C -0.633009 -1.585476 -1.705386 0
M  V30 13 C 1.543974 1.444871 0.335371 0
M  V30 14 S 2.568068 2.660488 -0.597087 0
M  V30 15 C 2.610676 3.971750 0.783586 0
M  V30 16 C 1.827718 3.322822 1.812262 0
M  V30 17 C 1.326681 2.097552 1.558521 0
M  V30 18 N 0.585175 1.372552 2.408422 0
M  V30 19 C -1.151304 -1.763832 2.778617 0
M  V30 20 C -1.911273 -2.408072 3.760837 0
M  V30 21 N -2.169609 -1.857092 4.961867 0
M  V30 22 H -1.886633 -0.150309 6.248154 0
M  V30 23 H -0.526840 1.041496 4.534719 0
M  V30 24 H 1.972027 0.256939 -1.963993 0
M  V30 25 H 1.182578 -2.353086 -0.876163 0
M  V30 26 H 0.924869 -1.351195 -3.745256 0
M  V30 27 H 2.296069 -2.384680 -3.051951 0
M  V30 28 H 0.710815 -4.006569 -2.369354 0
M  V30 29 H 0.150919 -3.599845 -4.095902 0
M  V30 30 H -1.694129 -2.596813 -3.176858 0
M  V30 31 H -1.149915 -1.544859 -0.733852 0
M  V30 32 H -0.969282 -0.724755 -2.341672 0
M  V30 33 H 3.083658 4.887853 0.752264 0
M  V30 34 H 1.729436 3.915916 2.700905 0
M  V30 35 H -0.980631 -2.264103 1.831691 0
M  V30 36 H -2.292249 -3.391423 3.509510 0
M  V30 END ATOM
M  V30 BEGIN BOND
M  V30 1 2 1 2
M  V30 2 1 2 3
M  V30 3 1 3 4
M  V30 4 2 4 5
M  V30 5 1 5 6
M  V30 6 1 6 7
M  V30 7 1 7 8
M  V30 8 1 8 9
M  V30 9 1 9 10
M  V30 10 1 10 11
M  V30 11 1 11 12
M  V30 12 2 6 13
M  V30 13 1 13 14
M  V30 14 1 14 15
M  V30 15 2 15 16
M  V30 16 1 16 17
M  V30 17 2 17 18
M  V30 18 2 3 19
M  V30 19 1 19 20
M  V30 20 2 20 21
M  V30 21 1 21 1
M  V30 22 1 18 4
M  V30 23 1 12 8
M  V30 24 1 17 13
M  V30 25 1 1 22
M  V30 26 1 2 23
M  V30 27 1 7 24
M  V30 28 1 8 25 CFG=1
M  V30 29 1 9 26
M  V30 30 1 9 27
M  V30 31 1 10 28
M  V30 32 1 10 29
M  V30 33 1 11 30
M  V30 34 1 12 31
M  V30 35 1 12 32
M  V30 36 1 15 33
M  V30 37 1 16 34
M  V30 38 1 19 35
M  V30 39 1 20 36
M  V30 END BOND
M  V30 END CTAB
M  END
>  <Dataset>  (798) 
ChEMBL_Kinases

>  <Ligand_Instance>  (798) 
nan

>  <PDB_ID>  (798) 
nan

>  <Standardized_SMILES>  (798) 
c1cc(-c2nc(N[C@@H]3CCNC3)c3sccc3n2)ccn1

>  <Name>  (798) 
nan

>  <Pocket>  (798) 
nan

>  <ATP_Site>  (798) 
nan

>  <Peripheral>  (798) 
nan

>  <Num_H_Atoms_ProtBoundConf>  (798) 
nan

>  <Num_Resolved_Atoms>  (798) 
nan

>  <Num_Not_Resolved_Atoms>  (798) 
nan

$$$$
CHEMBL3728322
     RDKit          3D

  0  0  0  0  0  0  0  0  0  0999 V3000
M  V30 BEGIN CTAB
M  V30 COUNTS 54 57 0 0 0
M  V30 BEGIN ATOM
M  V30 1 C 6.013956 -2.485280 4.905234 0
M  V30 2 C 4.670665 -2.208976 4.273142 0
M  V30 3 C 3.852271 -1.285629 5.151227 0
M  V30 4 C 3.913582 -3.507760 4.200693 0
M  V30 5 N 4.805260 -1.568986 2.986267 0
M  V30 6 C 3.685565 -1.218656 2.216535 0
M  V30 7 O 2.581003 -1.494068 2.713610 0
M  V30 8 N 3.698344 -0.592562 0.950247 0
M  V30 9 C 2.612907 -0.215469 0.130048 0
M  V30 10 C 1.271458 -0.365157 0.366993 0
M  V30 11 C 0.283359 0.037479 -0.500470 0
M  V30 12 C -1.133507 -0.152138 -0.185607 0
M  V30 13 N -2.025929 0.279546 -1.108228 0
M  V30 14 C -3.314190 0.085434 -0.777212 0
M  V30 15 N -4.388224 0.470076 -1.616547 0
M  V30 16 C -3.966724 1.086028 -2.859015 0 CFG=2
M  V30 17 C -5.148732 1.485120 -3.712729 0
M  V30 18 C -5.395519 0.293187 -4.577593 0
M  V30 19 N -4.134267 -0.395141 -4.728331 0
M  V30 20 C -3.221394 0.115548 -3.737829 0
M  V30 21 C -3.650279 -0.500123 0.397605 0
M  V30 22 S -5.216063 -0.889753 1.112930 0
M  V30 23 C -4.513323 -1.654051 2.702856 0
M  V30 24 C -3.103470 -1.525504 2.511048 0
M  V30 25 C -2.743384 -0.941669 1.340916 0
M  V30 26 N -1.452756 -0.732601 0.979589 0
M  V30 27 C 0.616466 0.633239 -1.694282 0
M  V30 28 C 1.970274 0.776096 -1.916797 0
M  V30 29 N 2.906122 0.369607 -1.044007 0
M  V30 30 H 6.116060 -1.917881 5.854350 0
M  V30 31 H 6.136302 -3.555769 5.153486 0
M  V30 32 H 6.852116 -2.128113 4.243873 0
M  V30 33 H 4.090236 -0.247684 4.840755 0
M  V30 34 H 2.760944 -1.444996 5.049788 0
M  V30 35 H 4.191207 -1.384924 6.207966 0
M  V30 36 H 4.260202 -4.170706 3.373538 0
M  V30 37 H 4.164780 -4.065827 5.148622 0
M  V30 38 H 2.813578 -3.393723 4.223090 0
M  V30 39 H 5.763399 -1.343150 2.582429 0
M  V30 40 H 4.663762 -0.424756 0.662989 0
M  V30 41 H 0.958327 -0.825058 1.285486 0
M  V30 42 H -5.394353 0.335724 -1.389101 0
M  V30 43 H -3.394739 2.012569 -2.652280 0
M  V30 44 H -4.874218 2.339050 -4.378017 0
M  V30 45 H -6.039851 1.784734 -3.134475 0
M  V30 46 H -5.753203 0.631051 -5.593830 0
M  V30 47 H -6.219470 -0.366386 -4.213420 0
M  V30 48 H -4.225400 -1.427029 -4.577592 0
M  V30 49 H -2.740208 -0.707421 -3.147202 0
M  V30 50 H -2.427248 0.678919 -4.265068 0
M  V30 51 H -5.003614 -2.114397 3.615495 0
M  V30 52 H -2.486894 -1.901100 3.305865 0
M  V30 53 H -0.097645 0.977340 -2.428968 0
M  V30 54 H 2.303416 1.238243 -2.839375 0
M  V30 END ATOM
M  V30 BEGIN BOND
M  V30 1 1 1 2
M  V30 2 1 2 3
M  V30 3 1 2 4
M  V30 4 1 2 5
M  V30 5 1 5 6
M  V30 6 2 6 7
M  V30 7 1 6 8
M  V30 8 1 8 9
M  V30 9 2 9 10
M  V30 10 1 10 11
M  V30 11 1 11 12
M  V30 12 2 12 13
M  V30 13 1 13 14
M  V30 14 1 14 15
M  V30 15 1 15 16
M  V30 16 1 16 17
M  V30 17 1 17 18
M  V30 18 1 18 19
M  V30 19 1 19 20
M  V30 20 2 14 21
M  V30 21 1 21 22
M  V30 22 1 22 23
M  V30 23 2 23 24
M  V30 24 1 24 25
M  V30 25 2 25 26
M  V30 26 2 11 27
M  V30 27 1 27 28
M  V30 28 2 28 29
M  V30 29 1 29 9
M  V30 30 1 26 12
M  V30 31 1 20 16
M  V30 32 1 25 21
M  V30 33 1 1 30
M  V30 34 1 1 31
M  V30 35 1 1 32
M  V30 36 1 3 33
M  V30 37 1 3 34
M  V30 38 1 3 35
M  V30 39 1 4 36
M  V30 40 1 4 37
M  V30 41 1 4 38
M  V30 42 1 5 39
M  V30 43 1 8 40
M  V30 44 1 10 41
M  V30 45 1 15 42
M  V30 46 1 16 43 CFG=1
M  V30 47 1 17 44
M  V30 48 1 17 45
M  V30 49 1 18 46
M  V30 50 1 18 47
M  V30 51 1 19 48
M  V30 52 1 20 49
M  V30 53 1 20 50
M  V30 54 1 23 51
M  V30 55 1 24 52
M  V30 56 1 27 53
M  V30 57 1 28 54
M  V30 END BOND
M  V30 END CTAB
M  END
>  <Dataset>  (799) 
ChEMBL_Kinases

>  <Ligand_Instance>  (799) 
nan

>  <PDB_ID>  (799) 
nan

>  <Standardized_SMILES>  (799) 
CC(C)(C)NC(=O)Nc1cc(-c2nc(N[C@@H]3CCNC3)c3sccc3n2)ccn1

>  <Name>  (799) 
nan

>  <Pocket>  (799) 
nan

>  <ATP_Site>  (799) 
nan

>  <Peripheral>  (799) 
nan

>  <Num_H_Atoms_ProtBoundConf>  (799) 
nan

>  <Num_Resolved_Atoms>  (799) 
nan

>  <Num_Not_Resolved_Atoms>  (799) 
nan

$$$$
CHEMBL3728314
     RDKit          3D

  0  0  0  0  0  0  0  0  0  0999 V3000
M  V30 BEGIN CTAB
M  V30 COUNTS 59 63 0 0 0
M  V30 BEGIN ATOM
M  V30 1 C 0.539155 -1.927048 3.765699 0
M  V30 2 O 1.405911 -0.929281 4.272182 0
M  V30 3 C 2.258150 -0.213243 3.474558 0
M  V30 4 C 3.044159 0.724480 4.094710 0
M  V30 5 C 3.938260 1.496665 3.360492 0
M  V30 6 C 3.986528 1.264832 1.983747 0
M  V30 7 C 3.198169 0.319306 1.337292 0
M  V30 8 C 3.359744 0.185558 -0.131063 0
M  V30 9 C 2.425210 1.100510 -0.885273 0 CFG=2
M  V30 10 N 2.753984 2.445845 -0.474977 0
M  V30 11 C 0.993975 0.871208 -0.595684 0
M  V30 12 N 0.473695 -0.447116 -0.896166 0
M  V30 13 C -0.895070 -0.748679 -0.648705 0
M  V30 14 N -1.633995 0.236895 -0.125472 0
M  V30 15 C -2.903698 0.223639 0.203849 0
M  V30 16 C -3.586418 1.372355 0.766639 0
M  V30 17 C -4.906262 1.309868 1.092610 0
M  V30 18 C -5.581457 2.384710 1.628708 0
M  V30 19 N -4.886930 3.535058 1.830075 0
M  V30 20 C -3.584621 3.595993 1.508195 0
M  V30 21 C -2.869520 2.534297 0.965996 0
M  V30 22 N -3.517264 -0.946916 -0.025549 0
M  V30 23 C -2.803241 -1.952866 -0.549198 0
M  V30 24 S -3.380046 -3.632413 -0.954631 0
M  V30 25 C -1.805349 -4.177474 -1.550277 0
M  V30 26 C -0.956957 -3.101043 -1.416650 0
M  V30 27 C -1.486560 -1.967805 -0.900603 0
M  V30 28 C 0.321861 -3.619030 -1.927988 0
M  V30 29 C 0.677826 -4.835256 -1.098587 0
M  V30 30 C -0.248083 -5.983678 -1.262377 0
M  V30 31 C -1.429085 -5.536207 -2.099230 0
M  V30 32 C 2.328610 -0.419193 2.112411 0
M  V30 33 H 1.128758 -2.853976 3.578249 0
M  V30 34 H -0.254190 -2.132710 4.514957 0
M  V30 35 H 0.112272 -1.621437 2.784583 0
M  V30 36 H 3.045521 0.945630 5.168950 0
M  V30 37 H 4.563490 2.234552 3.814510 0
M  V30 38 H 4.684305 1.869493 1.420699 0
M  V30 39 H 4.394248 0.472051 -0.413446 0
M  V30 40 H 3.239413 -0.879161 -0.405201 0
M  V30 41 H 2.594503 1.026051 -1.963541 0
M  V30 42 H 2.357140 3.171441 -1.091723 0
M  V30 43 H 2.465376 2.656789 0.506968 0
M  V30 44 H 0.692428 1.170765 0.433166 0
M  V30 45 H 0.413958 1.568600 -1.259674 0
M  V30 46 H 1.304192 -0.928320 -1.260818 0
M  V30 47 H -5.435794 0.376929 0.920442 0
M  V30 48 H -6.630537 2.354651 1.894358 0
M  V30 49 H -3.014328 4.507060 1.662352 0
M  V30 50 H -1.819157 2.600806 0.712188 0
M  V30 51 H 1.143676 -2.937008 -2.060710 0
M  V30 52 H 0.191211 -4.058508 -2.977761 0
M  V30 53 H 0.664072 -4.460697 -0.033281 0
M  V30 54 H 1.716292 -5.185446 -1.254696 0
M  V30 55 H -0.656316 -6.361645 -0.289966 0
M  V30 56 H 0.286260 -6.799634 -1.809350 0
M  V30 57 H -1.216877 -5.499305 -3.184624 0
M  V30 58 H -2.246185 -6.260624 -1.863357 0
M  V30 59 H 1.714458 -1.155255 1.611540 0
M  V30 END ATOM
M  V30 BEGIN BOND
M  V30 1 1 1 2
M  V30 2 1 2 3
M  V30 3 2 3 4
M  V30 4 1 4 5
M  V30 5 2 5 6
M  V30 6 1 6 7
M  V30 7 1 7 8
M  V30 8 1 8 9
M  V30 9 1 9 10
M  V30 10 1 9 11
M  V30 11 1 11 12
M  V30 12 1 12 13
M  V30 13 2 13 14
M  V30 14 1 14 15
M  V30 15 1 15 16
M  V30 16 2 16 17
M  V30 17 1 17 18
M  V30 18 2 18 19
M  V30 19 1 19 20
M  V30 20 2 20 21
M  V30 21 2 15 22
M  V30 22 1 22 23
M  V30 23 1 23 24
M  V30 24 1 24 25
M  V30 25 2 25 26
M  V30 26 1 26 27
M  V30 27 1 26 28
M  V30 28 1 28 29
M  V30 29 1 29 30
M  V30 30 1 30 31
M  V30 31 2 7 32
M  V30 32 1 32 3
M  V30 33 1 27 13
M  V30 34 1 21 16
M  V30 35 2 27 23
M  V30 36 1 31 25
M  V30 37 1 1 33
M  V30 38 1 1 34
M  V30 39 1 1 35
M  V30 40 1 4 36
M  V30 41 1 5 37
M  V30 42 1 6 38
M  V30 43 1 8 39
M  V30 44 1 8 40
M  V30 45 1 9 41 CFG=3
M  V30 46 1 10 42
M  V30 47 1 10 43
M  V30 48 1 11 44
M  V30 49 1 11 45
M  V30 50 1 12 46
M  V30 51 1 17 47
M  V30 52 1 18 48
M  V30 53 1 20 49
M  V30 54 1 21 50
M  V30 55 1 28 51
M  V30 56 1 28 52
M  V30 57 1 29 53
M  V30 58 1 29 54
M  V30 59 1 30 55
M  V30 60 1 30 56
M  V30 61 1 31 57
M  V30 62 1 31 58
M  V30 63 1 32 59
M  V30 END BOND
M  V30 END CTAB
M  END
>  <Dataset>  (800) 
ChEMBL_Kinases

>  <Ligand_Instance>  (800) 
nan

>  <PDB_ID>  (800) 
nan

>  <Standardized_SMILES>  (800) 
COc1cccc(C[C@H](N)CNc2nc(-c3ccncc3)nc3sc4c(c23)CCCC4)c1

>  <Name>  (800) 
nan

>  <Pocket>  (800) 
nan

>  <ATP_Site>  (800) 
nan

>  <Peripheral>  (800) 
nan

>  <Num_H_Atoms_ProtBoundConf>  (800) 
nan

>  <Num_Resolved_Atoms>  (800) 
nan

>  <Num_Not_Resolved_Atoms>  (800) 
nan

$$$$
CHEMBL3728196
     RDKit          3D

  0  0  0  0  0  0  0  0  0  0999 V3000
M  V30 BEGIN CTAB
M  V30 COUNTS 50 54 0 0 0
M  V30 BEGIN ATOM
M  V30 1 O -3.041004 -3.282412 2.921448 0
M  V30 2 C -1.798528 -3.382171 2.801407 0
M  V30 3 N -1.091529 -2.432544 2.049803 0
M  V30 4 C -1.774710 -1.353562 1.420467 0
M  V30 5 C -1.087326 -0.427662 0.687868 0
M  V30 6 C -1.755348 0.612959 0.082214 0
M  V30 7 C -0.937447 1.562687 -0.685082 0
M  V30 8 N 0.415314 1.415044 -0.795048 0
M  V30 9 C 1.070915 2.338391 -1.516783 0
M  V30 10 N 2.469180 2.339494 -1.734389 0
M  V30 11 C 3.293588 1.315026 -1.173573 0 CFG=2
M  V30 12 C 2.909090 -0.074398 -1.632949 0
M  V30 13 C 3.035374 -0.952957 -0.432029 0
M  V30 14 N 3.607333 -0.151878 0.598196 0
M  V30 15 C 3.232154 1.213868 0.334166 0
M  V30 16 C 0.349735 3.332560 -2.073263 0
M  V30 17 S 0.912613 4.764521 -3.122471 0
M  V30 18 C -0.809765 5.457100 -3.321598 0
M  V30 19 C -1.597378 4.601569 -2.624976 0
M  V30 20 C -1.073716 3.522487 -1.980843 0
M  V30 21 N -1.630400 2.551904 -1.242641 0
M  V30 22 C -3.116625 0.689857 0.235779 0
M  V30 23 C -3.811317 -0.245097 0.975651 0
M  V30 24 N -3.109617 -1.241166 1.545927 0
M  V30 25 C -1.160556 -4.512016 3.472100 0
M  V30 26 C -1.947777 -5.391479 4.187827 0
M  V30 27 C -1.432138 -6.490589 4.856071 0
M  V30 28 C -0.070005 -6.720467 4.806595 0
M  V30 29 F 0.479817 -7.787138 5.447659 0
M  V30 30 C 0.739312 -5.848302 4.092492 0
M  V30 31 C 0.195818 -4.760577 3.436176 0
M  V30 32 H -0.053962 -2.515826 1.949530 0
M  V30 33 H -0.029842 -0.521600 0.592507 0
M  V30 34 H 2.933681 3.069857 -2.297502 0
M  V30 35 H 4.379019 1.487022 -1.417256 0
M  V30 36 H 1.863504 -0.083985 -2.051755 0
M  V30 37 H 3.579341 -0.411698 -2.444988 0
M  V30 38 H 2.085069 -1.409290 -0.082988 0
M  V30 39 H 3.705460 -1.823517 -0.643258 0
M  V30 40 H 3.209493 -0.410641 1.521899 0
M  V30 41 H 4.056634 1.837819 0.791153 0
M  V30 42 H 2.247477 1.511051 0.696045 0
M  V30 43 H -0.977753 6.306554 -3.866417 0
M  V30 44 H -2.655369 4.813257 -2.603575 0
M  V30 45 H -3.580811 1.533007 -0.266570 0
M  V30 46 H -4.896502 -0.136756 1.066141 0
M  V30 47 H -3.019819 -5.261628 4.261424 0
M  V30 48 H -2.062075 -7.175328 5.415888 0
M  V30 49 H 1.821561 -6.017201 4.043856 0
M  V30 50 H 0.831361 -4.095587 2.888931 0
M  V30 END ATOM
M  V30 BEGIN BOND
M  V30 1 2 1 2
M  V30 2 1 2 3
M  V30 3 1 3 4
M  V30 4 2 4 5
M  V30 5 1 5 6
M  V30 6 1 6 7
M  V30 7 2 7 8
M  V30 8 1 8 9
M  V30 9 1 9 10
M  V30 10 1 10 11
M  V30 11 1 11 12
M  V30 12 1 12 13
M  V30 13 1 13 14
M  V30 14 1 14 15
M  V30 15 2 9 16
M  V30 16 1 16 17
M  V30 17 1 17 18
M  V30 18 2 18 19
M  V30 19 1 19 20
M  V30 20 2 20 21
M  V30 21 2 6 22
M  V30 22 1 22 23
M  V30 23 2 23 24
M  V30 24 1 2 25
M  V30 25 2 25 26
M  V30 26 1 26 27
M  V30 27 2 27 28
M  V30 28 1 28 29
M  V30 29 1 28 30
M  V30 30 2 30 31
M  V30 31 1 24 4
M  V30 32 1 31 25
M  V30 33 1 21 7
M  V30 34 1 15 11
M  V30 35 1 20 16
M  V30 36 1 3 32
M  V30 37 1 5 33
M  V30 38 1 10 34
M  V30 39 1 11 35 CFG=1
M  V30 40 1 12 36
M  V30 41 1 12 37
M  V30 42 1 13 38
M  V30 43 1 13 39
M  V30 44 1 14 40
M  V30 45 1 15 41
M  V30 46 1 15 42
M  V30 47 1 18 43
M  V30 48 1 19 44
M  V30 49 1 22 45
M  V30 50 1 23 46
M  V30 51 1 26 47
M  V30 52 1 27 48
M  V30 53 1 30 49
M  V30 54 1 31 50
M  V30 END BOND
M  V30 END CTAB
M  END
>  <Dataset>  (801) 
ChEMBL_Kinases

>  <Ligand_Instance>  (801) 
nan

>  <PDB_ID>  (801) 
nan

>  <Standardized_SMILES>  (801) 
O=C(Nc1cc(-c2nc(N[C@@H]3CCNC3)c3sccc3n2)ccn1)c1ccc(F)cc1

>  <Name>  (801) 
nan

>  <Pocket>  (801) 
nan

>  <ATP_Site>  (801) 
nan

>  <Peripheral>  (801) 
nan

>  <Num_H_Atoms_ProtBoundConf>  (801) 
nan

>  <Num_Resolved_Atoms>  (801) 
nan

>  <Num_Not_Resolved_Atoms>  (801) 
nan

$$$$
CHEMBL3728294
     RDKit          3D

  0  0  0  0  0  0  0  0  0  0999 V3000
M  V30 BEGIN CTAB
M  V30 COUNTS 45 48 0 0 0
M  V30 BEGIN ATOM
M  V30 1 C -4.665631 -2.367678 -1.801254 0
M  V30 2 N -3.464223 -1.572216 -1.862808 0
M  V30 3 C -2.743508 -1.704462 -0.634577 0
M  V30 4 C -1.489513 -0.881837 -0.683019 0
M  V30 5 N -0.753831 -1.009396 0.555291 0
M  V30 6 C 0.492129 -0.303499 0.748435 0
M  V30 7 N 0.903150 0.362018 -0.310639 0
M  V30 8 C 2.028477 1.050703 -0.463097 0
M  V30 9 C 2.470097 1.779905 -1.633642 0
M  V30 10 C 1.651878 1.782763 -2.741368 0
M  V30 11 C 2.002097 2.451011 -3.887366 0
M  V30 12 N 3.173630 3.111973 -3.910753 0
M  V30 13 C 3.968648 3.102733 -2.818795 0
M  V30 14 C 3.674935 2.451710 -1.638460 0
M  V30 15 N 2.799465 1.027657 0.630524 0
M  V30 16 C 2.441482 0.370533 1.743363 0
M  V30 17 S 3.294665 0.184240 3.302060 0
M  V30 18 C 2.026000 -0.839218 4.074076 0
M  V30 19 C 1.029609 -0.973038 3.092910 0
M  V30 20 C 1.243237 -0.355383 1.893786 0
M  V30 21 C -0.156955 -1.741545 3.555916 0
M  V30 22 C -0.262101 -1.797360 5.040720 0
M  V30 23 C 0.967809 -2.260238 5.771343 0
M  V30 24 C 2.147222 -1.364449 5.414598 0
M  V30 25 H -5.238916 -2.117718 -0.887476 0
M  V30 26 H -5.315709 -2.167342 -2.675083 0
M  V30 27 H -4.425584 -3.456771 -1.755987 0
M  V30 28 H -2.880784 -1.965677 -2.639213 0
M  V30 29 H -3.389808 -1.417308 0.233099 0
M  V30 30 H -2.411298 -2.761345 -0.442027 0
M  V30 31 H -1.701770 0.180659 -0.934103 0
M  V30 32 H -0.901689 -1.272288 -1.553333 0
M  V30 33 H -1.264102 -1.662496 1.173092 0
M  V30 34 H 0.697632 1.275781 -2.798282 0
M  V30 35 H 1.373344 2.466721 -4.771292 0
M  V30 36 H 4.891853 3.662820 -2.932137 0
M  V30 37 H 4.338360 2.467834 -0.784948 0
M  V30 38 H -0.246839 -2.699254 3.051493 0
M  V30 39 H -1.086396 -1.133593 3.261853 0
M  V30 40 H -0.609892 -0.800178 5.405147 0
M  V30 41 H -1.062079 -2.518396 5.282975 0
M  V30 42 H 0.772601 -2.161371 6.855094 0
M  V30 43 H 1.222078 -3.310065 5.543666 0
M  V30 44 H 2.210089 -0.534449 6.144221 0
M  V30 45 H 3.078972 -1.953495 5.506144 0
M  V30 END ATOM
M  V30 BEGIN BOND
M  V30 1 1 1 2
M  V30 2 1 2 3
M  V30 3 1 3 4
M  V30 4 1 4 5
M  V30 5 1 5 6
M  V30 6 2 6 7
M  V30 7 1 7 8
M  V30 8 1 8 9
M  V30 9 2 9 10
M  V30 10 1 10 11
M  V30 11 2 11 12
M  V30 12 1 12 13
M  V30 13 2 13 14
M  V30 14 2 8 15
M  V30 15 1 15 16
M  V30 16 1 16 17
M  V30 17 1 17 18
M  V30 18 2 18 19
M  V30 19 1 19 20
M  V30 20 1 19 21
M  V30 21 1 21 22
M  V30 22 1 22 23
M  V30 23 1 23 24
M  V30 24 1 20 6
M  V30 25 1 14 9
M  V30 26 2 20 16
M  V30 27 1 24 18
M  V30 28 1 1 25
M  V30 29 1 1 26
M  V30 30 1 1 27
M  V30 31 1 2 28
M  V30 32 1 3 29
M  V30 33 1 3 30
M  V30 34 1 4 31
M  V30 35 1 4 32
M  V30 36 1 5 33
M  V30 37 1 10 34
M  V30 38 1 11 35
M  V30 39 1 13 36
M  V30 40 1 14 37
M  V30 41 1 21 38
M  V30 42 1 21 39
M  V30 43 1 22 40
M  V30 44 1 22 41
M  V30 45 1 23 42
M  V30 46 1 23 43
M  V30 47 1 24 44
M  V30 48 1 24 45
M  V30 END BOND
M  V30 END CTAB
M  END
>  <Dataset>  (802) 
ChEMBL_Kinases

>  <Ligand_Instance>  (802) 
nan

>  <PDB_ID>  (802) 
nan

>  <Standardized_SMILES>  (802) 
CNCCNc1nc(-c2ccncc2)nc2sc3c(c12)CCCC3

>  <Name>  (802) 
nan

>  <Pocket>  (802) 
nan

>  <ATP_Site>  (802) 
nan

>  <Peripheral>  (802) 
nan

>  <Num_H_Atoms_ProtBoundConf>  (802) 
nan

>  <Num_Resolved_Atoms>  (802) 
nan

>  <Num_Not_Resolved_Atoms>  (802) 
nan

$$$$
CHEMBL3728292
     RDKit          3D

  0  0  0  0  0  0  0  0  0  0999 V3000
M  V30 BEGIN CTAB
M  V30 COUNTS 47 50 0 0 0
M  V30 BEGIN ATOM
M  V30 1 C 0.017886 -6.426554 0.951228 0
M  V30 2 C 0.555910 -5.289010 0.161332 0
M  V30 3 C 1.601585 -5.646451 -0.662367 0
M  V30 4 S 2.047980 -4.009114 -1.507643 0
M  V30 5 C 0.851682 -3.099768 -0.703377 0
M  V30 6 C 0.464999 -1.743237 -0.736502 0
M  V30 7 O 1.235000 -1.011324 -1.618604 0
M  V30 8 C 1.012816 0.359955 -1.796826 0
M  V30 9 C 1.217122 1.095235 -0.518314 0 CFG=1
M  V30 10 N 2.555448 0.938603 0.009619 0
M  V30 11 C 1.038724 2.609140 -0.703381 0
M  V30 12 C 1.269971 3.202377 0.640480 0
M  V30 13 C 2.545422 3.580198 1.004181 0
M  V30 14 C 2.695929 4.125432 2.266337 0
M  V30 15 C 1.606689 4.269666 3.092766 0
M  V30 16 C 0.325276 3.892019 2.732091 0
M  V30 17 C 0.168118 3.343693 1.465308 0
M  V30 18 N -0.562137 -1.291688 0.044833 0
M  V30 19 C -1.183478 -2.201605 0.843800 0
M  V30 20 C -2.287739 -1.738990 1.690111 0
M  V30 21 C -2.661205 -0.413166 1.653798 0
M  V30 22 C -3.704034 -0.007895 2.461751 0
M  V30 23 N -4.345440 -0.869746 3.265168 0
M  V30 24 C -3.985889 -2.186250 3.311182 0
M  V30 25 C -2.938106 -2.637793 2.511623 0
M  V30 26 N -0.813009 -3.490799 0.872652 0
M  V30 27 C 0.191425 -3.973983 0.120066 0
M  V30 28 H 0.815189 -6.905717 1.550198 0
M  V30 29 H -0.558261 -7.122972 0.315095 0
M  V30 30 H -0.715446 -6.054827 1.727195 0
M  V30 31 H 2.146199 -6.560118 -0.890736 0
M  V30 32 H 1.743682 0.716059 -2.574627 0
M  V30 33 H -0.006594 0.538422 -2.206184 0
M  V30 34 H 0.441089 0.808908 0.207447 0
M  V30 35 H 2.577936 0.254084 0.798818 0
M  V30 36 H 3.263740 0.769059 -0.721394 0
M  V30 37 H 0.005612 2.841797 -1.041835 0
M  V30 38 H 1.761194 2.989610 -1.426619 0
M  V30 39 H 3.363097 3.442611 0.312411 0
M  V30 40 H 3.677246 4.434029 2.589767 0
M  V30 41 H 1.795061 4.705021 4.070814 0
M  V30 42 H -0.484075 4.034859 3.433032 0
M  V30 43 H -0.835436 3.037958 1.158547 0
M  V30 44 H -2.143160 0.278078 1.006237 0
M  V30 45 H -3.987755 1.039203 2.423170 0
M  V30 46 H -4.519470 -2.871863 3.970889 0
M  V30 47 H -2.670709 -3.697417 2.568057 0
M  V30 END ATOM
M  V30 BEGIN BOND
M  V30 1 1 1 2
M  V30 2 2 2 3
M  V30 3 1 3 4
M  V30 4 1 4 5
M  V30 5 2 5 6
M  V30 6 1 6 7
M  V30 7 1 7 8
M  V30 8 1 8 9
M  V30 9 1 9 10
M  V30 10 1 9 11
M  V30 11 1 11 12
M  V30 12 2 12 13
M  V30 13 1 13 14
M  V30 14 2 14 15
M  V30 15 1 15 16
M  V30 16 2 16 17
M  V30 17 1 6 18
M  V30 18 2 18 19
M  V30 19 1 19 20
M  V30 20 2 20 21
M  V30 21 1 21 22
M  V30 22 2 22 23
M  V30 23 1 23 24
M  V30 24 2 24 25
M  V30 25 1 19 26
M  V30 26 2 26 27
M  V30 27 1 27 2
M  V30 28 1 27 5
M  V30 29 1 17 12
M  V30 30 1 25 20
M  V30 31 1 1 28
M  V30 32 1 1 29
M  V30 33 1 1 30
M  V30 34 1 3 31
M  V30 35 1 8 32
M  V30 36 1 8 33
M  V30 37 1 9 34 CFG=1
M  V30 38 1 10 35
M  V30 39 1 10 36
M  V30 40 1 11 37
M  V30 41 1 11 38
M  V30 42 1 13 39
M  V30 43 1 14 40
M  V30 44 1 15 41
M  V30 45 1 16 42
M  V30 46 1 17 43
M  V30 47 1 21 44
M  V30 48 1 22 45
M  V30 49 1 24 46
M  V30 50 1 25 47
M  V30 END BOND
M  V30 END CTAB
M  END
>  <Dataset>  (803) 
ChEMBL_Kinases

>  <Ligand_Instance>  (803) 
nan

>  <PDB_ID>  (803) 
nan

>  <Standardized_SMILES>  (803) 
Cc1csc2c(OC[C@@H](N)Cc3ccccc3)nc(-c3ccncc3)nc12

>  <Name>  (803) 
nan

>  <Pocket>  (803) 
nan

>  <ATP_Site>  (803) 
nan

>  <Peripheral>  (803) 
nan

>  <Num_H_Atoms_ProtBoundConf>  (803) 
nan

>  <Num_Resolved_Atoms>  (803) 
nan

>  <Num_Not_Resolved_Atoms>  (803) 
nan

$$$$
CHEMBL3728291
     RDKit          3D

  0  0  0  0  0  0  0  0  0  0999 V3000
M  V30 BEGIN CTAB
M  V30 COUNTS 40 43 0 0 0
M  V30 BEGIN ATOM
M  V30 1 N -0.965886 -4.518667 -0.450271 0
M  V30 2 C 0.458006 -4.281592 -0.313064 0
M  V30 3 C 0.800984 -2.859438 -0.523477 0
M  V30 4 N 0.190015 -1.900256 0.374793 0
M  V30 5 C 0.460451 -0.507366 0.248167 0
M  V30 6 N 1.307656 -0.177939 -0.734255 0
M  V30 7 C 1.732317 1.031401 -1.064639 0
M  V30 8 C 2.659839 1.253868 -2.161738 0
M  V30 9 C 2.641930 2.353004 -3.009796 0
M  V30 10 N 3.626682 2.255460 -3.911721 0
M  V30 11 N 4.276744 1.126907 -3.668801 0
M  V30 12 C 3.713991 0.485235 -2.603984 0
M  V30 13 N 1.231138 2.014580 -0.300590 0
M  V30 14 C 0.366259 1.718842 0.708448 0
M  V30 15 S -0.393906 2.813915 1.808350 0
M  V30 16 C -1.299611 1.575485 2.721000 0
M  V30 17 C -0.928739 0.349212 2.076275 0
M  V30 18 C -0.063348 0.487093 1.041076 0
M  V30 19 C -1.682150 -0.659754 2.840395 0
M  V30 20 C -1.346988 -0.615411 4.320476 0
M  V30 21 C -1.684738 0.727154 4.920042 0
M  V30 22 C -2.234210 1.676554 3.874756 0
M  V30 23 H -1.141154 -5.416409 0.081896 0
M  V30 24 H -1.186546 -4.680059 -1.451914 0
M  V30 25 H 0.864410 -4.644571 0.636660 0
M  V30 26 H 0.950707 -4.862961 -1.116720 0
M  V30 27 H 1.907621 -2.726527 -0.366735 0
M  V30 28 H 0.614698 -2.518089 -1.563059 0
M  V30 29 H -0.371967 -2.509346 0.982157 0
M  V30 30 H 1.914326 3.168213 -2.928802 0
M  V30 31 H 5.110289 0.792636 -4.233957 0
M  V30 32 H 4.011709 -0.447461 -2.165150 0
M  V30 33 H -1.665589 -1.677049 2.509583 0
M  V30 34 H -2.789317 -0.377014 2.816038 0
M  V30 35 H -2.000451 -1.364879 4.811659 0
M  V30 36 H -0.303749 -0.908433 4.546608 0
M  V30 37 H -0.755806 1.172331 5.330533 0
M  V30 38 H -2.406014 0.660438 5.760330 0
M  V30 39 H -2.147477 2.692921 4.269525 0
M  V30 40 H -3.268648 1.449526 3.595733 0
M  V30 END ATOM
M  V30 BEGIN BOND
M  V30 1 1 1 2
M  V30 2 1 2 3
M  V30 3 1 3 4
M  V30 4 1 4 5
M  V30 5 2 5 6
M  V30 6 1 6 7
M  V30 7 1 7 8
M  V30 8 1 8 9
M  V30 9 2 9 10
M  V30 10 1 10 11
M  V30 11 1 11 12
M  V30 12 2 7 13
M  V30 13 1 13 14
M  V30 14 1 14 15
M  V30 15 1 15 16
M  V30 16 2 16 17
M  V30 17 1 17 18
M  V30 18 1 17 19
M  V30 19 1 19 20
M  V30 20 1 20 21
M  V30 21 1 21 22
M  V30 22 1 18 5
M  V30 23 2 12 8
M  V30 24 2 18 14
M  V30 25 1 22 16
M  V30 26 1 1 23
M  V30 27 1 1 24
M  V30 28 1 2 25
M  V30 29 1 2 26
M  V30 30 1 3 27
M  V30 31 1 3 28
M  V30 32 1 4 29
M  V30 33 1 9 30
M  V30 34 1 11 31
M  V30 35 1 12 32
M  V30 36 1 19 33
M  V30 37 1 19 34
M  V30 38 1 20 35
M  V30 39 1 20 36
M  V30 40 1 21 37
M  V30 41 1 21 38
M  V30 42 1 22 39
M  V30 43 1 22 40
M  V30 END BOND
M  V30 END CTAB
M  END
>  <Dataset>  (804) 
ChEMBL_Kinases

>  <Ligand_Instance>  (804) 
nan

>  <PDB_ID>  (804) 
nan

>  <Standardized_SMILES>  (804) 
NCCNc1nc(-c2cn[nH]c2)nc2sc3c(c12)CCCC3

>  <Name>  (804) 
nan

>  <Pocket>  (804) 
nan

>  <ATP_Site>  (804) 
nan

>  <Peripheral>  (804) 
nan

>  <Num_H_Atoms_ProtBoundConf>  (804) 
nan

>  <Num_Resolved_Atoms>  (804) 
nan

>  <Num_Not_Resolved_Atoms>  (804) 
nan

$$$$
CHEMBL3728284
     RDKit          3D

  0  0  0  0  0  0  0  0  0  0999 V3000
M  V30 BEGIN CTAB
M  V30 COUNTS 44 46 0 0 0
M  V30 BEGIN ATOM
M  V30 1 C -4.383075 -2.575026 3.015125 0
M  V30 2 C -3.847370 -2.520803 1.596853 0
M  V30 3 C -3.773647 -3.931227 1.027946 0
M  V30 4 C -2.539908 -1.940003 1.543411 0
M  V30 5 C -1.906012 -0.925641 0.915830 0
M  V30 6 C -0.578762 -0.658304 1.126150 0
M  V30 7 C 0.197491 0.332038 0.564233 0
M  V30 8 N -0.297552 1.286366 -0.348385 0
M  V30 9 C 0.132645 2.407532 -1.133379 0
M  V30 10 C 0.972586 2.021028 -2.318168 0 CFG=1
M  V30 11 C 2.231174 1.309092 -1.930767 0
M  V30 12 N 0.190677 1.141210 -3.182613 0
M  V30 13 N 1.474298 0.390099 0.929953 0
M  V30 14 C 2.130897 -0.387307 1.780986 0
M  V30 15 C 3.533042 -0.278128 2.148589 0
M  V30 16 C 4.092453 -1.161752 3.046825 0
M  V30 17 C 5.429161 -1.044365 3.385384 0
M  V30 18 N 6.203145 -0.077674 2.852470 0
M  V30 19 C 5.689904 0.801020 1.973237 0
M  V30 20 C 4.361123 0.693389 1.629355 0
M  V30 21 N 1.384041 -1.357397 2.335709 0
M  V30 22 C 0.076114 -1.494667 2.024930 0
M  V30 23 S -1.190120 -2.657597 2.569724 0
M  V30 24 H -4.814166 -3.592040 3.192406 0
M  V30 25 H -3.594437 -2.322623 3.740900 0
M  V30 26 H -5.212343 -1.832950 3.094913 0
M  V30 27 H -4.514242 -1.959175 0.919539 0
M  V30 28 H -4.160841 -3.996108 -0.006806 0
M  V30 29 H -4.343219 -4.653631 1.641847 0
M  V30 30 H -2.735581 -4.298355 0.985877 0
M  V30 31 H -2.563811 -0.379130 0.254084 0
M  V30 32 H -1.340675 1.144600 -0.537276 0
M  V30 33 H -0.729669 3.042596 -1.478841 0
M  V30 34 H 0.718019 3.129841 -0.488036 0
M  V30 35 H 1.243840 2.934357 -2.904417 0
M  V30 36 H 2.924842 1.371092 -2.823784 0
M  V30 37 H 1.981524 0.247601 -1.762342 0
M  V30 38 H 2.736021 1.778222 -1.073195 0
M  V30 39 H -0.194649 1.709900 -3.980027 0
M  V30 40 H 0.785416 0.362810 -3.519424 0
M  V30 41 H 3.508660 -1.950890 3.497441 0
M  V30 42 H 5.833831 -1.759110 4.096429 0
M  V30 43 H 6.305253 1.579651 1.541377 0
M  V30 44 H 3.981806 1.400642 0.933525 0
M  V30 END ATOM
M  V30 BEGIN BOND
M  V30 1 1 1 2
M  V30 2 1 2 3
M  V30 3 1 2 4
M  V30 4 2 4 5
M  V30 5 1 5 6
M  V30 6 2 6 7
M  V30 7 1 7 8
M  V30 8 1 8 9
M  V30 9 1 9 10
M  V30 10 1 10 11
M  V30 11 1 10 12
M  V30 12 1 7 13
M  V30 13 2 13 14
M  V30 14 1 14 15
M  V30 15 2 15 16
M  V30 16 1 16 17
M  V30 17 2 17 18
M  V30 18 1 18 19
M  V30 19 2 19 20
M  V30 20 1 14 21
M  V30 21 2 21 22
M  V30 22 1 22 23
M  V30 23 1 23 4
M  V30 24 1 22 6
M  V30 25 1 20 15
M  V30 26 1 1 24
M  V30 27 1 1 25
M  V30 28 1 1 26
M  V30 29 1 2 27
M  V30 30 1 3 28
M  V30 31 1 3 29
M  V30 32 1 3 30
M  V30 33 1 5 31
M  V30 34 1 8 32
M  V30 35 1 9 33
M  V30 36 1 9 34
M  V30 37 1 10 35 CFG=3
M  V30 38 1 11 36
M  V30 39 1 11 37
M  V30 40 1 11 38
M  V30 41 1 12 39
M  V30 42 1 12 40
M  V30 43 1 16 41
M  V30 44 1 17 42
M  V30 45 1 19 43
M  V30 46 1 20 44
M  V30 END BOND
M  V30 END CTAB
M  END
>  <Dataset>  (805) 
ChEMBL_Kinases

>  <Ligand_Instance>  (805) 
nan

>  <PDB_ID>  (805) 
nan

>  <Standardized_SMILES>  (805) 
CC(C)c1cc2c(NC[C@@H](C)N)nc(-c3ccncc3)nc2s1

>  <Name>  (805) 
nan

>  <Pocket>  (805) 
nan

>  <ATP_Site>  (805) 
nan

>  <Peripheral>  (805) 
nan

>  <Num_H_Atoms_ProtBoundConf>  (805) 
nan

>  <Num_Resolved_Atoms>  (805) 
nan

>  <Num_Not_Resolved_Atoms>  (805) 
nan

$$$$
CHEMBL3728275
     RDKit          3D

  0  0  0  0  0  0  0  0  0  0999 V3000
M  V30 BEGIN CTAB
M  V30 COUNTS 33 34 0 0 0
M  V30 BEGIN ATOM
M  V30 1 O -0.657674 -2.750585 2.141462 0
M  V30 2 C 0.378523 -2.053153 1.884769 0
M  V30 3 C 1.596984 -2.899372 1.868465 0
M  V30 4 N 2.806907 -2.207490 1.573071 0
M  V30 5 C 3.059243 -1.591357 0.335470 0
M  V30 6 C 2.195265 -1.582693 -0.747151 0
M  V30 7 C 2.450550 -0.976382 -1.956081 0
M  V30 8 C 3.647730 -0.317221 -2.141269 0
M  V30 9 F 3.879175 0.266475 -3.322913 0
M  V30 10 C 4.565835 -0.277877 -1.112811 0
M  V30 11 C 4.234291 -0.909626 0.066396 0
M  V30 12 N 0.171789 -0.670745 1.676085 0
M  V30 13 N -1.139828 -0.183550 1.763579 0
M  V30 14 C -1.855697 0.056891 0.704885 0
M  V30 15 C -3.201737 0.558516 0.866842 0
M  V30 16 C -3.714839 0.777493 2.128607 0
M  V30 17 C -4.995076 1.252182 2.179893 0
M  V30 18 N -5.788243 1.520990 1.119356 0
M  V30 19 C -5.284299 1.305664 -0.130595 0
M  V30 20 C -3.990940 0.824855 -0.236574 0
M  V30 21 H 1.388273 -3.737591 1.156935 0
M  V30 22 H 1.691112 -3.427768 2.863443 0
M  V30 23 H 3.557955 -2.141207 2.295091 0
M  V30 24 H 1.233058 -2.099607 -0.630720 0
M  V30 25 H 1.705278 -1.025647 -2.747382 0
M  V30 26 H 5.499724 0.230731 -1.243162 0
M  V30 27 H 4.999515 -0.845109 0.843955 0
M  V30 28 H 1.070256 -0.172416 1.478988 0
M  V30 29 H -1.449200 -0.116201 -0.283291 0
M  V30 30 H -3.155563 0.591784 3.040794 0
M  V30 31 H -5.402380 1.426085 3.184778 0
M  V30 32 H -5.948118 1.532535 -0.935096 0
M  V30 33 H -3.606892 0.659326 -1.250712 0
M  V30 END ATOM
M  V30 BEGIN BOND
M  V30 1 2 1 2
M  V30 2 1 2 3
M  V30 3 1 3 4
M  V30 4 1 4 5
M  V30 5 2 5 6
M  V30 6 1 6 7
M  V30 7 2 7 8
M  V30 8 1 8 9
M  V30 9 1 8 10
M  V30 10 2 10 11
M  V30 11 1 2 12
M  V30 12 1 12 13
M  V30 13 2 13 14
M  V30 14 1 14 15
M  V30 15 2 15 16
M  V30 16 1 16 17
M  V30 17 2 17 18
M  V30 18 1 18 19
M  V30 19 2 19 20
M  V30 20 1 11 5
M  V30 21 1 20 15
M  V30 22 1 3 21
M  V30 23 1 3 22
M  V30 24 1 4 23
M  V30 25 1 6 24
M  V30 26 1 7 25
M  V30 27 1 10 26
M  V30 28 1 11 27
M  V30 29 1 12 28
M  V30 30 1 14 29
M  V30 31 1 16 30
M  V30 32 1 17 31
M  V30 33 1 19 32
M  V30 34 1 20 33
M  V30 END BOND
M  V30 END CTAB
M  END
>  <Dataset>  (806) 
ChEMBL_Kinases

>  <Ligand_Instance>  (806) 
nan

>  <PDB_ID>  (806) 
nan

>  <Standardized_SMILES>  (806) 
O=C(CNc1ccc(F)cc1)N/N=C/c1ccncc1

>  <Name>  (806) 
nan

>  <Pocket>  (806) 
nan

>  <ATP_Site>  (806) 
nan

>  <Peripheral>  (806) 
nan

>  <Num_H_Atoms_ProtBoundConf>  (806) 
nan

>  <Num_Resolved_Atoms>  (806) 
nan

>  <Num_Not_Resolved_Atoms>  (806) 
nan

$$$$
CHEMBL3728274
     RDKit          3D

  0  0  0  0  0  0  0  0  0  0999 V3000
M  V30 BEGIN CTAB
M  V30 COUNTS 52 56 0 0 0
M  V30 BEGIN ATOM
M  V30 1 C 0.943996 -5.254140 1.259890 0
M  V30 2 C 1.199785 -3.833734 0.964887 0
M  V30 3 S 2.870751 -3.329434 0.516322 0
M  V30 4 C 2.510637 -1.623702 0.307095 0
M  V30 5 N 3.294570 -0.583887 -0.053815 0
M  V30 6 C 2.782642 0.651679 -0.166558 0
M  V30 7 C 3.644915 1.759091 -0.557819 0
M  V30 8 C 3.123246 3.033940 -0.675706 0
M  V30 9 C 4.019519 4.010062 -1.050508 0
M  V30 10 N 5.317791 3.763979 -1.290745 0
M  V30 11 C 5.795201 2.507347 -1.166463 0
M  V30 12 C 4.971942 1.463657 -0.795373 0
M  V30 13 N 1.481907 0.749249 0.101400 0
M  V30 14 C 0.671579 -0.257155 0.462943 0
M  V30 15 N -0.647598 0.207186 0.717203 0
M  V30 16 C -0.815515 0.310672 2.165095 0
M  V30 17 C -2.228421 0.382814 2.618883 0
M  V30 18 C -3.249942 0.249159 1.504001 0
M  V30 19 N -3.087786 1.332516 0.550619 0
M  V30 20 C -2.562467 0.850096 -0.711429 0
M  V30 21 C -1.170488 0.347813 -0.625835 0
M  V30 22 C 1.200789 -1.518983 0.575193 0
M  V30 23 C 0.480906 -2.622746 0.917398 0
M  V30 24 C -0.903871 -2.900027 1.242304 0
M  V30 25 C -1.577752 -2.962207 2.438912 0
M  V30 26 C -2.920590 -3.267316 2.462185 0
M  V30 27 C -3.651133 -3.521318 1.326897 0
M  V30 28 C -2.986370 -3.462311 0.112182 0
M  V30 29 C -1.642162 -3.157693 0.078220 0
M  V30 30 H 1.415573 -5.483903 2.229520 0
M  V30 31 H -0.100134 -5.546666 1.174982 0
M  V30 32 H 1.485301 -5.888290 0.497493 0
M  V30 33 H 2.060967 3.243562 -0.480653 0
M  V30 34 H 3.635033 5.015584 -1.149422 0
M  V30 35 H 6.849806 2.335540 -1.366732 0
M  V30 36 H 5.385368 0.459430 -0.703064 0
M  V30 37 H -0.269124 -0.456705 2.703637 0
M  V30 38 H -0.305433 1.289127 2.434172 0
M  V30 39 H -2.438006 1.361223 3.124220 0
M  V30 40 H -2.489805 -0.391267 3.379374 0
M  V30 41 H -4.251424 0.241436 1.975952 0
M  V30 42 H -3.056808 -0.716153 1.033587 0
M  V30 43 H -4.047218 1.698143 0.346294 0
M  V30 44 H -2.610778 1.686713 -1.428566 0
M  V30 45 H -3.296694 0.105085 -1.076527 0
M  V30 46 H -0.506871 1.041406 -1.221556 0
M  V30 47 H -1.124017 -0.607097 -1.191363 0
M  V30 48 H -0.917771 -2.747756 3.267950 0
M  V30 49 H -3.365683 -3.293220 3.451101 0
M  V30 50 H -4.700860 -3.751354 1.457813 0
M  V30 51 H -3.593168 -3.667114 -0.752200 0
M  V30 52 H -1.259996 -3.148875 -0.949699 0
M  V30 END ATOM
M  V30 BEGIN BOND
M  V30 1 1 1 2
M  V30 2 1 2 3
M  V30 3 1 3 4
M  V30 4 2 4 5
M  V30 5 1 5 6
M  V30 6 1 6 7
M  V30 7 2 7 8
M  V30 8 1 8 9
M  V30 9 2 9 10
M  V30 10 1 10 11
M  V30 11 2 11 12
M  V30 12 2 6 13
M  V30 13 1 13 14
M  V30 14 1 14 15
M  V30 15 1 15 16
M  V30 16 1 16 17
M  V30 17 1 17 18
M  V30 18 1 18 19
M  V30 19 1 19 20
M  V30 20 1 20 21
M  V30 21 2 14 22
M  V30 22 1 22 23
M  V30 23 1 23 24
M  V30 24 2 24 25
M  V30 25 1 25 26
M  V30 26 2 26 27
M  V30 27 1 27 28
M  V30 28 2 28 29
M  V30 29 2 23 2
M  V30 30 1 29 24
M  V30 31 1 22 4
M  V30 32 1 12 7
M  V30 33 1 21 15
M  V30 34 1 1 30
M  V30 35 1 1 31
M  V30 36 1 1 32
M  V30 37 1 8 33
M  V30 38 1 9 34
M  V30 39 1 11 35
M  V30 40 1 12 36
M  V30 41 1 16 37
M  V30 42 1 16 38
M  V30 43 1 17 39
M  V30 44 1 17 40
M  V30 45 1 18 41
M  V30 46 1 18 42
M  V30 47 1 19 43
M  V30 48 1 20 44
M  V30 49 1 20 45
M  V30 50 1 21 46
M  V30 51 1 21 47
M  V30 52 1 25 48
M  V30 53 1 26 49
M  V30 54 1 27 50
M  V30 55 1 28 51
M  V30 56 1 29 52
M  V30 END BOND
M  V30 END CTAB
M  END
>  <Dataset>  (807) 
ChEMBL_Kinases

>  <Ligand_Instance>  (807) 
nan

>  <PDB_ID>  (807) 
nan

>  <Standardized_SMILES>  (807) 
Cc1sc2nc(-c3ccncc3)nc(N3CCCNCC3)c2c1-c1ccccc1

>  <Name>  (807) 
nan

>  <Pocket>  (807) 
nan

>  <ATP_Site>  (807) 
nan

>  <Peripheral>  (807) 
nan

>  <Num_H_Atoms_ProtBoundConf>  (807) 
nan

>  <Num_Resolved_Atoms>  (807) 
nan

>  <Num_Not_Resolved_Atoms>  (807) 
nan

$$$$
CHEMBL3728266
     RDKit          3D

  0  0  0  0  0  0  0  0  0  0999 V3000
M  V30 BEGIN CTAB
M  V30 COUNTS 57 61 0 0 0
M  V30 BEGIN ATOM
M  V30 1 N 1.433151 -4.267392 0.832201 0
M  V30 2 C 0.795375 -2.946245 0.531198 0 CFG=2
M  V30 3 C 0.152730 -2.473227 1.782334 0
M  V30 4 O -0.465036 -1.234409 1.765525 0
M  V30 5 C 0.231750 -0.031229 1.503342 0
M  V30 6 N 1.545985 -0.140490 1.265525 0
M  V30 7 C 2.390335 0.853201 0.998205 0
M  V30 8 C 3.809972 0.724649 0.742522 0
M  V30 9 C 4.432568 -0.506459 0.758335 0
M  V30 10 C 5.792462 -0.626583 0.512822 0
M  V30 11 N 6.532989 0.475339 0.251858 0
M  V30 12 C 5.956633 1.706009 0.227363 0
M  V30 13 C 4.591560 1.842308 0.472114 0
M  V30 14 N 1.821899 2.072046 0.974825 0
M  V30 15 C 0.496331 2.239865 1.208443 0
M  V30 16 S -0.484039 3.676509 1.240504 0
M  V30 17 C -2.039133 2.835547 1.626284 0
M  V30 18 C -1.664054 1.486068 1.700067 0
M  V30 19 C -0.351065 1.221779 1.479008 0
M  V30 20 C -2.860632 0.657506 2.016203 0
M  V30 21 C -3.873890 0.963578 0.903815 0
M  V30 22 C -4.407863 2.372114 1.052655 0
M  V30 23 C -3.468461 3.245117 1.851847 0
M  V30 24 C -0.117716 -3.237484 -0.622867 0
M  V30 25 C -1.181950 -4.261799 -0.349712 0
M  V30 26 C -2.093172 -4.466069 -1.531899 0
M  V30 27 C -1.582602 -3.723148 -2.754495 0
M  V30 28 C -1.567929 -2.269710 -2.423333 0
M  V30 29 C -0.577272 -2.025421 -1.314413 0
M  V30 30 H 2.070083 -4.469759 0.030591 0
M  V30 31 H 2.060313 -4.053403 1.642243 0
M  V30 32 H 1.595267 -2.287287 0.199323 0
M  V30 33 H -0.560614 -3.194374 2.227424 0
M  V30 34 H 0.980452 -2.414292 2.550854 0
M  V30 35 H 3.823105 -1.375854 0.969269 0
M  V30 36 H 6.217621 -1.630228 0.541196 0
M  V30 37 H 6.557992 2.592872 0.016221 0
M  V30 38 H 4.159801 2.850420 0.444380 0
M  V30 39 H -3.305671 1.012542 2.963263 0
M  V30 40 H -2.655760 -0.414563 1.992602 0
M  V30 41 H -4.650358 0.195551 0.959506 0
M  V30 42 H -3.299473 0.892638 -0.039921 0
M  V30 43 H -4.590504 2.807576 0.048852 0
M  V30 44 H -5.371540 2.288507 1.594191 0
M  V30 45 H -3.677904 3.271296 2.924415 0
M  V30 46 H -3.589057 4.279929 1.458631 0
M  V30 47 H 0.568922 -3.760551 -1.368551 0
M  V30 48 H -1.799478 -3.889453 0.486330 0
M  V30 49 H -0.783174 -5.242933 -0.048274 0
M  V30 50 H -2.134270 -5.534515 -1.817142 0
M  V30 51 H -3.136718 -4.137714 -1.371609 0
M  V30 52 H -0.615049 -4.109586 -3.118499 0
M  V30 53 H -2.318005 -3.900042 -3.569773 0
M  V30 54 H -1.258152 -1.677680 -3.303277 0
M  V30 55 H -2.608679 -2.004464 -2.127099 0
M  V30 56 H 0.251208 -1.416336 -1.714202 0
M  V30 57 H -1.117268 -1.354020 -0.580127 0
M  V30 END ATOM
M  V30 BEGIN BOND
M  V30 1 1 1 2
M  V30 2 1 2 3
M  V30 3 1 3 4
M  V30 4 1 4 5
M  V30 5 2 5 6
M  V30 6 1 6 7
M  V30 7 1 7 8
M  V30 8 2 8 9
M  V30 9 1 9 10
M  V30 10 2 10 11
M  V30 11 1 11 12
M  V30 12 2 12 13
M  V30 13 2 7 14
M  V30 14 1 14 15
M  V30 15 1 15 16
M  V30 16 1 16 17
M  V30 17 2 17 18
M  V30 18 1 18 19
M  V30 19 1 18 20
M  V30 20 1 20 21
M  V30 21 1 21 22
M  V30 22 1 22 23
M  V30 23 1 2 24
M  V30 24 1 24 25
M  V30 25 1 25 26
M  V30 26 1 26 27
M  V30 27 1 27 28
M  V30 28 1 28 29
M  V30 29 1 19 5
M  V30 30 1 29 24
M  V30 31 1 13 8
M  V30 32 2 19 15
M  V30 33 1 23 17
M  V30 34 1 1 30
M  V30 35 1 1 31
M  V30 36 1 2 32 CFG=3
M  V30 37 1 3 33
M  V30 38 1 3 34
M  V30 39 1 9 35
M  V30 40 1 10 36
M  V30 41 1 12 37
M  V30 42 1 13 38
M  V30 43 1 20 39
M  V30 44 1 20 40
M  V30 45 1 21 41
M  V30 46 1 21 42
M  V30 47 1 22 43
M  V30 48 1 22 44
M  V30 49 1 23 45
M  V30 50 1 23 46
M  V30 51 1 24 47
M  V30 52 1 25 48
M  V30 53 1 25 49
M  V30 54 1 26 50
M  V30 55 1 26 51
M  V30 56 1 27 52
M  V30 57 1 27 53
M  V30 58 1 28 54
M  V30 59 1 28 55
M  V30 60 1 29 56
M  V30 61 1 29 57
M  V30 END BOND
M  V30 END CTAB
M  END
>  <Dataset>  (808) 
ChEMBL_Kinases

>  <Ligand_Instance>  (808) 
nan

>  <PDB_ID>  (808) 
nan

>  <Standardized_SMILES>  (808) 
N[C@H](COc1nc(-c2ccncc2)nc2sc3c(c12)CCCC3)C1CCCCC1

>  <Name>  (808) 
nan

>  <Pocket>  (808) 
nan

>  <ATP_Site>  (808) 
nan

>  <Peripheral>  (808) 
nan

>  <Num_H_Atoms_ProtBoundConf>  (808) 
nan

>  <Num_Resolved_Atoms>  (808) 
nan

>  <Num_Not_Resolved_Atoms>  (808) 
nan

$$$$
CHEMBL3728261
     RDKit          3D

  0  0  0  0  0  0  0  0  0  0999 V3000
M  V30 BEGIN CTAB
M  V30 COUNTS 48 50 0 0 0
M  V30 BEGIN ATOM
M  V30 1 O -0.348793 -2.480143 3.913520 0
M  V30 2 C 0.547061 -2.527743 3.018860 0
M  V30 3 C 1.838919 -2.833143 3.643284 0
M  V30 4 N 2.955477 -2.904755 2.760874 0
M  V30 5 C 3.446261 -1.812477 2.011962 0
M  V30 6 C 4.539131 -1.918853 1.143512 0
M  V30 7 C 5.050679 -0.876974 0.403202 0
M  V30 8 C 4.467385 0.364951 0.504325 0
M  V30 9 C 3.386797 0.550509 1.338437 0
M  V30 10 O 2.799129 1.803650 1.439732 0
M  V30 11 C 1.772057 2.272713 0.664404 0
M  V30 12 C 0.473496 2.036019 1.125615 0
M  V30 13 C -0.617128 2.476279 0.402771 0
M  V30 14 C -0.467175 3.164679 -0.798939 0
M  V30 15 O -1.643424 3.551396 -1.425471 0
M  V30 16 C -2.277520 2.710523 -2.350573 0
M  V30 17 F -2.612471 1.513470 -1.707635 0
M  V30 18 F -1.462948 2.342576 -3.410273 0
M  V30 19 F -3.421115 3.294640 -2.831098 0
M  V30 20 C 0.816617 3.388032 -1.236404 0
M  V30 21 C 1.911256 2.951159 -0.519597 0
M  V30 22 C 2.927671 -0.537088 2.049510 0
M  V30 23 N 0.168395 -2.294416 1.667220 0
M  V30 24 N -1.170344 -2.018646 1.366433 0
M  V30 25 C -1.997410 -2.923721 0.965427 0
M  V30 26 C -3.413823 -2.784882 0.616586 0
M  V30 27 C -4.162544 -3.888535 0.196682 0
M  V30 28 C -5.490505 -3.654243 -0.109555 0
M  V30 29 N -6.071109 -2.451825 -0.023366 0
M  V30 30 C -5.368612 -1.377105 0.378460 0
M  V30 31 C -4.025333 -1.549490 0.701156 0
M  V30 32 H 2.083552 -2.070206 4.431027 0
M  V30 33 H 1.725570 -3.802775 4.199410 0
M  V30 34 H 3.468317 -3.814879 2.637364 0
M  V30 35 H 5.033791 -2.892529 1.033435 0
M  V30 36 H 5.900508 -1.048650 -0.244912 0
M  V30 37 H 4.904985 1.145683 -0.095167 0
M  V30 38 H 0.300901 1.505702 2.053566 0
M  V30 39 H -1.619236 2.267856 0.803453 0
M  V30 40 H 0.896936 3.929909 -2.180882 0
M  V30 41 H 2.900409 3.134134 -0.875572 0
M  V30 42 H 2.063288 -0.368624 2.710611 0
M  V30 43 H 0.963543 -2.361510 1.024459 0
M  V30 44 H -1.549690 -3.916113 0.885912 0
M  V30 45 H -3.646878 -4.821018 0.147232 0
M  V30 46 H -6.025166 -4.559506 -0.432847 0
M  V30 47 H -5.794457 -0.382045 0.464316 0
M  V30 48 H -3.412426 -0.699198 1.034258 0
M  V30 END ATOM
M  V30 BEGIN BOND
M  V30 1 2 1 2
M  V30 2 1 2 3
M  V30 3 1 3 4
M  V30 4 1 4 5
M  V30 5 2 5 6
M  V30 6 1 6 7
M  V30 7 2 7 8
M  V30 8 1 8 9
M  V30 9 1 9 10
M  V30 10 1 10 11
M  V30 11 2 11 12
M  V30 12 1 12 13
M  V30 13 2 13 14
M  V30 14 1 14 15
M  V30 15 1 15 16
M  V30 16 1 16 17
M  V30 17 1 16 18
M  V30 18 1 16 19
M  V30 19 1 14 20
M  V30 20 2 20 21
M  V30 21 2 9 22
M  V30 22 1 2 23
M  V30 23 1 23 24
M  V30 24 2 24 25
M  V30 25 1 25 26
M  V30 26 2 26 27
M  V30 27 1 27 28
M  V30 28 2 28 29
M  V30 29 1 29 30
M  V30 30 2 30 31
M  V30 31 1 22 5
M  V30 32 1 31 26
M  V30 33 1 21 11
M  V30 34 1 3 32
M  V30 35 1 3 33
M  V30 36 1 4 34
M  V30 37 1 6 35
M  V30 38 1 7 36
M  V30 39 1 8 37
M  V30 40 1 12 38
M  V30 41 1 13 39
M  V30 42 1 20 40
M  V30 43 1 21 41
M  V30 44 1 22 42
M  V30 45 1 23 43
M  V30 46 1 25 44
M  V30 47 1 27 45
M  V30 48 1 28 46
M  V30 49 1 30 47
M  V30 50 1 31 48
M  V30 END BOND
M  V30 END CTAB
M  END
>  <Dataset>  (809) 
ChEMBL_Kinases

>  <Ligand_Instance>  (809) 
nan

>  <PDB_ID>  (809) 
nan

>  <Standardized_SMILES>  (809) 
O=C(CNc1cccc(Oc2ccc(OC(F)(F)F)cc2)c1)N/N=C/c1ccncc1

>  <Name>  (809) 
nan

>  <Pocket>  (809) 
nan

>  <ATP_Site>  (809) 
nan

>  <Peripheral>  (809) 
nan

>  <Num_H_Atoms_ProtBoundConf>  (809) 
nan

>  <Num_Resolved_Atoms>  (809) 
nan

>  <Num_Not_Resolved_Atoms>  (809) 
nan

$$$$
CHEMBL3728259
     RDKit          3D

  0  0  0  0  0  0  0  0  0  0999 V3000
M  V30 BEGIN CTAB
M  V30 COUNTS 33 34 0 0 0
M  V30 BEGIN ATOM
M  V30 1 O -0.605576 -1.278589 -0.014375 0
M  V30 2 C -0.594943 -1.776263 1.141459 0
M  V30 3 C -0.155111 -2.989723 1.885820 0
M  V30 4 N 0.475554 -3.894460 0.943374 0
M  V30 5 C 1.638651 -3.547683 0.221559 0
M  V30 6 C 2.261231 -2.343103 0.361853 0
M  V30 7 C 3.396585 -2.042300 -0.365902 0
M  V30 8 C 3.964892 -2.909121 -1.257903 0
M  V30 9 C 3.350501 -4.129306 -1.412537 0
M  V30 10 I 4.141503 -5.530532 -2.755264 0
M  V30 11 C 2.209754 -4.409363 -0.669872 0
M  V30 12 N -1.232388 -0.811595 1.991357 0
M  V30 13 N -1.708412 0.386603 1.463660 0
M  V30 14 C -1.409193 1.565297 1.896820 0
M  V30 15 C -2.078615 2.617191 1.121462 0
M  V30 16 C -1.337165 3.065584 0.022594 0
M  V30 17 Cl 0.240217 2.427863 -0.383957 0
M  V30 18 C -1.884650 4.060965 -0.775152 0
M  V30 19 N -3.105729 4.611894 -0.529627 0
M  V30 20 C -3.801904 4.162531 0.536551 0
M  V30 21 C -3.316156 3.174898 1.371120 0
M  V30 22 Cl -4.167265 2.550780 2.764890 0
M  V30 23 H -1.000187 -3.502370 2.381018 0
M  V30 24 H 0.554187 -2.669598 2.670224 0
M  V30 25 H 0.051539 -4.854377 0.786095 0
M  V30 26 H 1.904886 -1.589359 1.032802 0
M  V30 27 H 3.875387 -1.068200 -0.233157 0
M  V30 28 H 4.854156 -2.659724 -1.820888 0
M  V30 29 H 1.746687 -5.389902 -0.818098 0
M  V30 30 H -1.432647 -0.828963 3.037313 0
M  V30 31 H -0.737819 1.569430 2.730001 0
M  V30 32 H -1.366757 4.468122 -1.656624 0
M  V30 33 H -4.790234 4.581301 0.768492 0
M  V30 END ATOM
M  V30 BEGIN BOND
M  V30 1 2 1 2
M  V30 2 1 2 3
M  V30 3 1 3 4
M  V30 4 1 4 5
M  V30 5 2 5 6
M  V30 6 1 6 7
M  V30 7 2 7 8
M  V30 8 1 8 9
M  V30 9 1 9 10
M  V30 10 2 9 11
M  V30 11 1 2 12
M  V30 12 1 12 13
M  V30 13 2 13 14
M  V30 14 1 14 15
M  V30 15 2 15 16
M  V30 16 1 16 17
M  V30 17 1 16 18
M  V30 18 2 18 19
M  V30 19 1 19 20
M  V30 20 2 20 21
M  V30 21 1 21 22
M  V30 22 1 11 5
M  V30 23 1 21 15
M  V30 24 1 3 23
M  V30 25 1 3 24
M  V30 26 1 4 25
M  V30 27 1 6 26
M  V30 28 1 7 27
M  V30 29 1 8 28
M  V30 30 1 11 29
M  V30 31 1 12 30
M  V30 32 1 14 31
M  V30 33 1 18 32
M  V30 34 1 20 33
M  V30 END BOND
M  V30 END CTAB
M  END
>  <Dataset>  (810) 
ChEMBL_Kinases

>  <Ligand_Instance>  (810) 
nan

>  <PDB_ID>  (810) 
nan

>  <Standardized_SMILES>  (810) 
O=C(CNc1cccc(I)c1)N/N=C/c1c(Cl)cncc1Cl

>  <Name>  (810) 
nan

>  <Pocket>  (810) 
nan

>  <ATP_Site>  (810) 
nan

>  <Peripheral>  (810) 
nan

>  <Num_H_Atoms_ProtBoundConf>  (810) 
nan

>  <Num_Resolved_Atoms>  (810) 
nan

>  <Num_Not_Resolved_Atoms>  (810) 
nan

$$$$
CHEMBL3728254
     RDKit          3D

  0  0  0  0  0  0  0  0  0  0999 V3000
M  V30 BEGIN CTAB
M  V30 COUNTS 38 40 0 0 0
M  V30 BEGIN ATOM
M  V30 1 C -2.421415 -5.252394 2.704269 0
M  V30 2 C -1.708091 -4.044380 2.317548 0
M  V30 3 S -0.847300 -3.941692 0.767468 0
M  V30 4 C -0.262716 -2.196499 1.054344 0
M  V30 5 C 0.519894 -1.367467 0.233247 0
M  V30 6 N 0.941946 -1.906314 -0.989954 0
M  V30 7 C 1.748410 -1.121492 -1.896058 0
M  V30 8 C 0.969900 0.100617 -2.329092 0 CFG=1
M  V30 9 C 1.768288 0.961498 -3.283025 0
M  V30 10 N -0.231267 -0.372985 -2.995632 0
M  V30 11 N 0.792751 -0.146408 0.692152 0
M  V30 12 C 0.289729 0.170278 1.899151 0
M  V30 13 C 0.530572 1.500831 2.506306 0
M  V30 14 C 1.289808 2.386838 1.775064 0
M  V30 15 C 1.575128 3.653373 2.246700 0
M  V30 16 N 1.114720 4.043734 3.431824 0
M  V30 17 C 0.362125 3.190748 4.176874 0
M  V30 18 C 0.072218 1.925302 3.714805 0
M  V30 19 N -0.443872 -0.626082 2.653444 0
M  V30 20 C -0.785385 -1.875491 2.302055 0
M  V30 21 C -1.520249 -2.844712 2.920543 0
M  V30 22 Br -2.322869 -2.578789 4.655025 0
M  V30 23 H -3.138392 -5.599610 1.931991 0
M  V30 24 H -1.689914 -6.072762 2.855837 0
M  V30 25 H -2.909403 -5.065994 3.677670 0
M  V30 26 H 0.705259 -2.860232 -1.295008 0
M  V30 27 H 2.609124 -0.732894 -1.275001 0
M  V30 28 H 2.125965 -1.700754 -2.740542 0
M  V30 29 H 0.653049 0.733642 -1.492848 0
M  V30 30 H 1.745071 0.518369 -4.305511 0
M  V30 31 H 1.331855 1.985565 -3.308145 0
M  V30 32 H 2.830910 1.059293 -3.009775 0
M  V30 33 H -0.977014 0.337802 -2.893632 0
M  V30 34 H -0.562844 -1.233101 -2.492300 0
M  V30 35 H 1.679760 2.097247 0.804101 0
M  V30 36 H 2.175497 4.316280 1.638321 0
M  V30 37 H -0.012684 3.515022 5.146853 0
M  V30 38 H -0.523845 1.222480 4.283109 0
M  V30 END ATOM
M  V30 BEGIN BOND
M  V30 1 1 1 2
M  V30 2 1 2 3
M  V30 3 1 3 4
M  V30 4 2 4 5
M  V30 5 1 5 6
M  V30 6 1 6 7
M  V30 7 1 7 8
M  V30 8 1 8 9
M  V30 9 1 8 10
M  V30 10 1 5 11
M  V30 11 2 11 12
M  V30 12 1 12 13
M  V30 13 2 13 14
M  V30 14 1 14 15
M  V30 15 2 15 16
M  V30 16 1 16 17
M  V30 17 2 17 18
M  V30 18 1 12 19
M  V30 19 2 19 20
M  V30 20 1 20 21
M  V30 21 1 21 22
M  V30 22 2 21 2
M  V30 23 1 20 4
M  V30 24 1 18 13
M  V30 25 1 1 23
M  V30 26 1 1 24
M  V30 27 1 1 25
M  V30 28 1 6 26
M  V30 29 1 7 27
M  V30 30 1 7 28
M  V30 31 1 8 29 CFG=1
M  V30 32 1 9 30
M  V30 33 1 9 31
M  V30 34 1 9 32
M  V30 35 1 10 33
M  V30 36 1 10 34
M  V30 37 1 14 35
M  V30 38 1 15 36
M  V30 39 1 17 37
M  V30 40 1 18 38
M  V30 END BOND
M  V30 END CTAB
M  END
>  <Dataset>  (811) 
ChEMBL_Kinases

>  <Ligand_Instance>  (811) 
nan

>  <PDB_ID>  (811) 
nan

>  <Standardized_SMILES>  (811) 
Cc1sc2c(NC[C@@H](C)N)nc(-c3ccncc3)nc2c1Br

>  <Name>  (811) 
nan

>  <Pocket>  (811) 
nan

>  <ATP_Site>  (811) 
nan

>  <Peripheral>  (811) 
nan

>  <Num_H_Atoms_ProtBoundConf>  (811) 
nan

>  <Num_Resolved_Atoms>  (811) 
nan

>  <Num_Not_Resolved_Atoms>  (811) 
nan

$$$$
CHEMBL3728226
     RDKit          3D

  0  0  0  0  0  0  0  0  0  0999 V3000
M  V30 BEGIN CTAB
M  V30 COUNTS 53 57 0 0 0
M  V30 BEGIN ATOM
M  V30 1 O -0.771920 -3.151889 2.946435 0
M  V30 2 C -1.010147 -3.884316 1.949917 0
M  V30 3 N -0.187160 -3.598257 0.849911 0
M  V30 4 C 0.788489 -2.577730 0.925149 0
M  V30 5 C 2.138049 -2.982760 1.397328 0
M  V30 6 S 3.082551 -1.340103 1.337484 0
M  V30 7 C 1.724828 -0.345414 0.743457 0
M  V30 8 C 1.654218 1.000252 0.450365 0
M  V30 9 N 2.824641 1.732645 0.640231 0
M  V30 10 C 2.722568 3.117597 0.330072 0 CFG=2
M  V30 11 C 4.061468 3.779822 0.582646 0
M  V30 12 C 3.965361 4.302777 1.994338 0
M  V30 13 N 2.649512 3.872926 2.491826 0
M  V30 14 C 1.878537 3.903331 1.288402 0
M  V30 15 N 0.479294 1.482076 0.013111 0
M  V30 16 C -0.527949 0.611716 -0.101672 0
M  V30 17 C -1.837738 1.099024 -0.579019 0
M  V30 18 C -2.924621 0.300086 -0.731310 0
M  V30 19 C -4.110098 0.855292 -1.186477 0
M  V30 20 N -4.219823 2.148894 -1.480303 0
M  V30 21 C -3.131443 2.923247 -1.322598 0
M  V30 22 C -1.906292 2.440512 -0.870645 0
M  V30 23 N -0.442954 -0.675594 0.183749 0
M  V30 24 C 0.681324 -1.259890 0.627129 0
M  V30 25 C -2.028192 -4.965508 1.838407 0
M  V30 26 C -1.414893 -6.294547 1.538765 0
M  V30 27 C -1.771164 -6.660558 0.134342 0
M  V30 28 C -2.631871 -5.574923 -0.422084 0
M  V30 29 C -2.989743 -4.654100 0.710350 0
M  V30 30 H -0.240253 -4.100396 -0.058192 0
M  V30 31 H 2.404950 -4.025546 1.685779 0
M  V30 32 H 3.718300 1.323875 0.981369 0
M  V30 33 H 2.382917 3.252193 -0.722137 0
M  V30 34 H 4.112037 4.675336 -0.087398 0
M  V30 35 H 4.907593 3.088037 0.412981 0
M  V30 36 H 4.775912 3.885633 2.631050 0
M  V30 37 H 3.960954 5.411498 2.061493 0
M  V30 38 H 2.732380 2.966410 2.961145 0
M  V30 39 H 0.842229 3.600826 1.361640 0
M  V30 40 H 1.886009 4.956885 0.926193 0
M  V30 41 H -2.746965 -0.735664 -0.470093 0
M  V30 42 H -4.928954 0.144920 -1.279249 0
M  V30 43 H -3.194244 3.979734 -1.554825 0
M  V30 44 H -1.084997 3.134456 -0.773843 0
M  V30 45 H -2.626112 -4.925169 2.768219 0
M  V30 46 H -1.847329 -7.020803 2.275954 0
M  V30 47 H -0.317763 -6.321323 1.714516 0
M  V30 48 H -2.347756 -7.613197 0.158794 0
M  V30 49 H -0.866034 -6.841494 -0.503430 0
M  V30 50 H -3.568738 -6.010329 -0.862274 0
M  V30 51 H -2.140532 -5.022993 -1.254601 0
M  V30 52 H -4.037793 -4.837412 1.011318 0
M  V30 53 H -2.934576 -3.584068 0.403890 0
M  V30 END ATOM
M  V30 BEGIN BOND
M  V30 1 2 1 2
M  V30 2 1 2 3
M  V30 3 1 3 4
M  V30 4 2 4 5
M  V30 5 1 5 6
M  V30 6 1 6 7
M  V30 7 2 7 8
M  V30 8 1 8 9
M  V30 9 1 9 10
M  V30 10 1 10 11
M  V30 11 1 11 12
M  V30 12 1 12 13
M  V30 13 1 13 14
M  V30 14 1 8 15
M  V30 15 2 15 16
M  V30 16 1 16 17
M  V30 17 2 17 18
M  V30 18 1 18 19
M  V30 19 2 19 20
M  V30 20 1 20 21
M  V30 21 2 21 22
M  V30 22 1 16 23
M  V30 23 2 23 24
M  V30 24 1 2 25
M  V30 25 1 25 26
M  V30 26 1 26 27
M  V30 27 1 27 28
M  V30 28 1 28 29
M  V30 29 1 24 4
M  V30 30 1 29 25
M  V30 31 1 24 7
M  V30 32 1 14 10
M  V30 33 1 22 17
M  V30 34 1 3 30
M  V30 35 1 5 31
M  V30 36 1 9 32
M  V30 37 1 10 33 CFG=3
M  V30 38 1 11 34
M  V30 39 1 11 35
M  V30 40 1 12 36
M  V30 41 1 12 37
M  V30 42 1 13 38
M  V30 43 1 14 39
M  V30 44 1 14 40
M  V30 45 1 18 41
M  V30 46 1 19 42
M  V30 47 1 21 43
M  V30 48 1 22 44
M  V30 49 1 25 45
M  V30 50 1 26 46
M  V30 51 1 26 47
M  V30 52 1 27 48
M  V30 53 1 27 49
M  V30 54 1 28 50
M  V30 55 1 28 51
M  V30 56 1 29 52
M  V30 57 1 29 53
M  V30 END BOND
M  V30 END CTAB
M  END
>  <Dataset>  (812) 
ChEMBL_Kinases

>  <Ligand_Instance>  (812) 
nan

>  <PDB_ID>  (812) 
nan

>  <Standardized_SMILES>  (812) 
O=C(Nc1csc2c(N[C@@H]3CCNC3)nc(-c3ccncc3)nc12)C1CCCC1

>  <Name>  (812) 
nan

>  <Pocket>  (812) 
nan

>  <ATP_Site>  (812) 
nan

>  <Peripheral>  (812) 
nan

>  <Num_H_Atoms_ProtBoundConf>  (812) 
nan

>  <Num_Resolved_Atoms>  (812) 
nan

>  <Num_Not_Resolved_Atoms>  (812) 
nan

$$$$
CHEMBL3728311
     RDKit          3D

  0  0  0  0  0  0  0  0  0  0999 V3000
M  V30 BEGIN CTAB
M  V30 COUNTS 54 58 0 0 0
M  V30 BEGIN ATOM
M  V30 1 N 1.550610 -3.645184 1.880009 0
M  V30 2 C 2.055185 -3.124747 0.620171 0 CFG=2
M  V30 3 C 1.937095 -1.649259 0.565001 0
M  V30 4 O 0.639051 -1.131179 0.738894 0
M  V30 5 C 0.470918 0.244723 0.695714 0
M  V30 6 N 1.512708 1.053861 0.492877 0
M  V30 7 C 1.505334 2.381198 0.426929 0
M  V30 8 C 2.677278 3.216368 0.203036 0
M  V30 9 C 3.919800 2.632854 0.039033 0
M  V30 10 C 5.067726 3.381847 -0.176881 0
M  V30 11 N 4.963069 4.718888 -0.227512 0
M  V30 12 C 3.760054 5.299148 -0.069496 0
M  V30 13 C 2.595535 4.591702 0.147001 0
M  V30 14 N 0.299707 2.953429 0.585405 0
M  V30 15 C -0.817306 2.221742 0.796059 0
M  V30 16 S -2.528079 2.665721 1.040524 0
M  V30 17 C -3.118031 0.896869 1.222108 0
M  V30 18 C -1.963111 0.193502 1.077574 0
M  V30 19 C -0.766373 0.828310 0.858610 0
M  V30 20 C -2.353578 -1.234255 1.212256 0
M  V30 21 C -3.135816 -1.427589 2.498145 0
M  V30 22 C -4.453080 -0.703474 2.442009 0
M  V30 23 C -4.439747 0.433210 1.452006 0
M  V30 24 C 1.621758 -3.847891 -0.590927 0
M  V30 25 C 0.203331 -3.924307 -0.893017 0
M  V30 26 C -0.537525 -5.042626 -0.482094 0
M  V30 27 C -1.886962 -5.264058 -0.656599 0
M  V30 28 C -2.585488 -4.270928 -1.310189 0
M  V30 29 C -1.946827 -3.132072 -1.753996 0
M  V30 30 C -0.595881 -3.000802 -1.533854 0
M  V30 31 F -0.015776 -1.887811 -2.018577 0
M  V30 32 H 1.228721 -2.922409 2.537954 0
M  V30 33 H 2.091061 -4.424608 2.268950 0
M  V30 34 H 3.188008 -3.324008 0.707185 0
M  V30 35 H 2.589133 -1.191300 1.361432 0
M  V30 36 H 2.398836 -1.293573 -0.391124 0
M  V30 37 H 4.000119 1.541482 0.081143 0
M  V30 38 H 5.993408 2.824829 -0.292539 0
M  V30 39 H 3.745271 6.394496 -0.122350 0
M  V30 40 H 1.660041 5.103515 0.267094 0
M  V30 41 H -1.497015 -1.914418 1.263384 0
M  V30 42 H -3.043672 -1.504480 0.374335 0
M  V30 43 H -3.348292 -2.511064 2.588430 0
M  V30 44 H -2.568382 -1.092152 3.379422 0
M  V30 45 H -4.684915 -0.336665 3.460946 0
M  V30 46 H -5.253403 -1.416742 2.165929 0
M  V30 47 H -5.069694 1.245260 1.869774 0
M  V30 48 H -4.930658 0.096798 0.509926 0
M  V30 49 H 1.978245 -4.922256 -0.479167 0
M  V30 50 H 2.230528 -3.487077 -1.464001 0
M  V30 51 H 0.024784 -5.833717 0.039717 0
M  V30 52 H -2.325422 -6.171840 -0.288607 0
M  V30 53 H -3.643132 -4.448416 -1.444665 0
M  V30 54 H -2.508191 -2.362301 -2.264691 0
M  V30 END ATOM
M  V30 BEGIN BOND
M  V30 1 1 1 2
M  V30 2 1 2 3
M  V30 3 1 3 4
M  V30 4 1 4 5
M  V30 5 2 5 6
M  V30 6 1 6 7
M  V30 7 1 7 8
M  V30 8 2 8 9
M  V30 9 1 9 10
M  V30 10 2 10 11
M  V30 11 1 11 12
M  V30 12 2 12 13
M  V30 13 2 7 14
M  V30 14 1 14 15
M  V30 15 1 15 16
M  V30 16 1 16 17
M  V30 17 2 17 18
M  V30 18 1 18 19
M  V30 19 1 18 20
M  V30 20 1 20 21
M  V30 21 1 21 22
M  V30 22 1 22 23
M  V30 23 1 2 24
M  V30 24 1 24 25
M  V30 25 2 25 26
M  V30 26 1 26 27
M  V30 27 2 27 28
M  V30 28 1 28 29
M  V30 29 2 29 30
M  V30 30 1 30 31
M  V30 31 1 19 5
M  V30 32 1 30 25
M  V30 33 1 13 8
M  V30 34 2 19 15
M  V30 35 1 23 17
M  V30 36 1 1 32
M  V30 37 1 1 33
M  V30 38 1 2 34 CFG=1
M  V30 39 1 3 35
M  V30 40 1 3 36
M  V30 41 1 9 37
M  V30 42 1 10 38
M  V30 43 1 12 39
M  V30 44 1 13 40
M  V30 45 1 20 41
M  V30 46 1 20 42
M  V30 47 1 21 43
M  V30 48 1 21 44
M  V30 49 1 22 45
M  V30 50 1 22 46
M  V30 51 1 23 47
M  V30 52 1 23 48
M  V30 53 1 24 49
M  V30 54 1 24 50
M  V30 55 1 26 51
M  V30 56 1 27 52
M  V30 57 1 28 53
M  V30 58 1 29 54
M  V30 END BOND
M  V30 END CTAB
M  END
>  <Dataset>  (813) 
ChEMBL_Kinases

>  <Ligand_Instance>  (813) 
nan

>  <PDB_ID>  (813) 
nan

>  <Standardized_SMILES>  (813) 
N[C@H](COc1nc(-c2ccncc2)nc2sc3c(c12)CCCC3)Cc1ccccc1F

>  <Name>  (813) 
nan

>  <Pocket>  (813) 
nan

>  <ATP_Site>  (813) 
nan

>  <Peripheral>  (813) 
nan

>  <Num_H_Atoms_ProtBoundConf>  (813) 
nan

>  <Num_Resolved_Atoms>  (813) 
nan

>  <Num_Not_Resolved_Atoms>  (813) 
nan

$$$$
CHEMBL529582
     RDKit          3D

  0  0  0  0  0  0  0  0  0  0999 V3000
M  V30 BEGIN CTAB
M  V30 COUNTS 37 38 0 0 0
M  V30 BEGIN ATOM
M  V30 1 O -2.559636 -1.827992 2.885242 0
M  V30 2 C -1.272868 -2.145355 3.374188 0
M  V30 3 C -0.529783 -2.725758 2.210424 0
M  V30 4 N 0.811076 -3.124821 2.456096 0
M  V30 5 C 1.393294 -3.671278 1.250503 0
M  V30 6 C 1.537930 -2.665503 0.136078 0
M  V30 7 N 1.679950 -1.338626 0.640601 0
M  V30 8 C 1.184949 -0.133516 0.074710 0
M  V30 9 S 1.507850 1.259496 0.882677 0
M  V30 10 N 0.438409 0.041912 -1.099731 0
M  V30 11 C -0.029817 1.300644 -1.625347 0
M  V30 12 C -0.910053 1.888849 -0.713740 0
M  V30 13 C -1.501599 3.106964 -0.984979 0
M  V30 14 C -1.202474 3.739349 -2.189044 0
M  V30 15 C -0.325401 3.140583 -3.085545 0
M  V30 16 C 0.259951 1.930887 -2.811857 0
M  V30 17 C 2.424226 -1.366587 1.867517 0
M  V30 18 C 1.694051 -2.109609 2.970518 0
M  V30 19 H -2.952272 -1.039025 3.321374 0
M  V30 20 H -1.432123 -2.923979 4.152594 0
M  V30 21 H -0.861386 -1.198978 3.773453 0
M  V30 22 H -1.084306 -3.663079 1.931505 0
M  V30 23 H -0.670225 -2.058560 1.316018 0
M  V30 24 H 0.812486 -4.538491 0.886711 0
M  V30 25 H 2.435786 -4.049943 1.460862 0
M  V30 26 H 0.650201 -2.722656 -0.543598 0
M  V30 27 H 2.426714 -2.918149 -0.490119 0
M  V30 28 H 0.113914 -0.718436 -1.765728 0
M  V30 29 H -1.219465 1.489791 0.253526 0
M  V30 30 H -2.189569 3.630697 -0.333513 0
M  V30 31 H -1.646688 4.701057 -2.443526 0
M  V30 32 H -0.048762 3.575508 -4.039472 0
M  V30 33 H 0.950000 1.352240 -3.407401 0
M  V30 34 H 2.599896 -0.322955 2.243982 0
M  V30 35 H 3.430410 -1.783786 1.652184 0
M  V30 36 H 1.198876 -1.424644 3.679504 0
M  V30 37 H 2.484103 -2.642674 3.556305 0
M  V30 END ATOM
M  V30 BEGIN BOND
M  V30 1 1 1 2
M  V30 2 1 2 3
M  V30 3 1 3 4
M  V30 4 1 4 5
M  V30 5 1 5 6
M  V30 6 1 6 7
M  V30 7 1 7 8
M  V30 8 2 8 9
M  V30 9 1 8 10
M  V30 10 1 10 11
M  V30 11 2 11 12
M  V30 12 1 12 13
M  V30 13 2 13 14
M  V30 14 1 14 15
M  V30 15 2 15 16
M  V30 16 1 7 17
M  V30 17 1 17 18
M  V30 18 1 18 4
M  V30 19 1 16 11
M  V30 20 1 1 19
M  V30 21 1 2 20
M  V30 22 1 2 21
M  V30 23 1 3 22
M  V30 24 1 3 23
M  V30 25 1 5 24
M  V30 26 1 5 25
M  V30 27 1 6 26
M  V30 28 1 6 27
M  V30 29 1 10 28
M  V30 30 1 12 29
M  V30 31 1 13 30
M  V30 32 1 14 31
M  V30 33 1 15 32
M  V30 34 1 16 33
M  V30 35 1 17 34
M  V30 36 1 17 35
M  V30 37 1 18 36
M  V30 38 1 18 37
M  V30 END BOND
M  V30 END CTAB
M  END
>  <Dataset>  (814) 
ChEMBL_Kinases

>  <Ligand_Instance>  (814) 
nan

>  <PDB_ID>  (814) 
nan

>  <Standardized_SMILES>  (814) 
OCCN1CCN(C(=S)Nc2ccccc2)CC1

>  <Name>  (814) 
nan

>  <Pocket>  (814) 
nan

>  <ATP_Site>  (814) 
nan

>  <Peripheral>  (814) 
nan

>  <Num_H_Atoms_ProtBoundConf>  (814) 
nan

>  <Num_Resolved_Atoms>  (814) 
nan

>  <Num_Not_Resolved_Atoms>  (814) 
nan

$$$$
CHEMBL529663
     RDKit          3D

  0  0  0  0  0  0  0  0  0  0999 V3000
M  V30 BEGIN CTAB
M  V30 COUNTS 47 50 0 0 0
M  V30 BEGIN ATOM
M  V30 1 C -2.194773 -5.266151 1.103687 0
M  V30 2 O -0.959350 -4.843811 1.587139 0
M  V30 3 C -0.505105 -3.536841 1.583702 0
M  V30 4 C -1.219838 -2.468809 1.096926 0
M  V30 5 C -0.719181 -1.157034 1.114016 0
M  V30 6 C -1.635725 -0.197597 0.540204 0
M  V30 7 C -1.517586 0.824602 -0.286647 0
M  V30 8 C -0.414626 1.453652 -0.991013 0
M  V30 9 C -0.215970 1.512196 -2.380951 0
M  V30 10 N 0.891206 2.209373 -2.725353 0
M  V30 11 C 1.467645 2.640129 -1.592145 0
M  V30 12 C 2.587278 3.394487 -1.369583 0
M  V30 13 C 2.985082 3.740331 -0.084958 0
M  V30 14 C 2.207440 3.294034 0.964802 0
M  V30 15 C 1.093592 2.539822 0.700046 0
M  V30 16 C 0.675015 2.181033 -0.560000 0
M  V30 17 C -2.788518 1.521334 -0.604591 0
M  V30 18 N -3.752834 0.839868 0.214574 0
M  V30 19 C -3.080446 -0.203448 0.875814 0
M  V30 20 O -3.665110 -1.019380 1.646445 0
M  V30 21 C 0.531433 -1.055704 1.656540 0
M  V30 22 C 1.280310 -2.091283 2.153557 0
M  V30 23 O 2.537048 -1.840027 2.676013 0
M  V30 24 C 2.998495 -0.501301 2.672344 0
M  V30 25 C 0.753370 -3.361215 2.117499 0
M  V30 26 O 1.505109 -4.386386 2.614759 0
M  V30 27 C 1.407629 -4.761093 4.000454 0
M  V30 28 H -2.183662 -6.340549 0.813496 0
M  V30 29 H -2.924411 -5.163893 1.959928 0
M  V30 30 H -2.605839 -4.684768 0.274597 0
M  V30 31 H -2.192118 -2.738293 0.708048 0
M  V30 32 H -0.879672 1.048603 -3.125962 0
M  V30 33 H 1.199459 2.357794 -3.710705 0
M  V30 34 H 3.204175 3.752737 -2.171374 0
M  V30 35 H 3.843095 4.327821 0.210461 0
M  V30 36 H 2.467396 3.532792 1.990136 0
M  V30 37 H 0.501101 2.214780 1.540535 0
M  V30 38 H -2.777481 2.584335 -0.291528 0
M  V30 39 H -3.032927 1.450140 -1.686508 0
M  V30 40 H -4.731457 1.182900 0.205915 0
M  V30 41 H 0.927961 -0.084322 1.682082 0
M  V30 42 H 4.073714 -0.438653 2.977335 0
M  V30 43 H 2.994085 -0.076651 1.627145 0
M  V30 44 H 2.372319 0.178971 3.278402 0
M  V30 45 H 1.879397 -5.724727 4.192678 0
M  V30 46 H 0.335784 -4.798589 4.275568 0
M  V30 47 H 1.867577 -3.985482 4.648066 0
M  V30 END ATOM
M  V30 BEGIN BOND
M  V30 1 1 1 2
M  V30 2 1 2 3
M  V30 3 2 3 4
M  V30 4 1 4 5
M  V30 5 1 5 6
M  V30 6 2 6 7
M  V30 7 1 7 8
M  V30 8 2 8 9
M  V30 9 1 9 10
M  V30 10 1 10 11
M  V30 11 2 11 12
M  V30 12 1 12 13
M  V30 13 2 13 14
M  V30 14 1 14 15
M  V30 15 2 15 16
M  V30 16 1 7 17
M  V30 17 1 17 18
M  V30 18 1 18 19
M  V30 19 2 19 20
M  V30 20 2 5 21
M  V30 21 1 21 22
M  V30 22 1 22 23
M  V30 23 1 23 24
M  V30 24 2 22 25
M  V30 25 1 25 26
M  V30 26 1 26 27
M  V30 27 1 25 3
M  V30 28 1 19 6
M  V30 29 1 16 8
M  V30 30 1 16 11
M  V30 31 1 1 28
M  V30 32 1 1 29
M  V30 33 1 1 30
M  V30 34 1 4 31
M  V30 35 1 9 32
M  V30 36 1 10 33
M  V30 37 1 12 34
M  V30 38 1 13 35
M  V30 39 1 14 36
M  V30 40 1 15 37
M  V30 41 1 17 38
M  V30 42 1 17 39
M  V30 43 1 18 40
M  V30 44 1 21 41
M  V30 45 1 24 42
M  V30 46 1 24 43
M  V30 47 1 24 44
M  V30 48 1 27 45
M  V30 49 1 27 46
M  V30 50 1 27 47
M  V30 END BOND
M  V30 END CTAB
M  END
>  <Dataset>  (815) 
ChEMBL_Kinases

>  <Ligand_Instance>  (815) 
nan

>  <PDB_ID>  (815) 
nan

>  <Standardized_SMILES>  (815) 
COc1cc(C2=C(c3c[nH]c4ccccc34)CNC2=O)cc(OC)c1OC

>  <Name>  (815) 
nan

>  <Pocket>  (815) 
nan

>  <ATP_Site>  (815) 
nan

>  <Peripheral>  (815) 
nan

>  <Num_H_Atoms_ProtBoundConf>  (815) 
nan

>  <Num_Resolved_Atoms>  (815) 
nan

>  <Num_Not_Resolved_Atoms>  (815) 
nan

$$$$
CHEMBL573267
     RDKit          3D

  0  0  0  0  0  0  0  0  0  0999 V3000
M  V30 BEGIN CTAB
M  V30 COUNTS 36 39 0 0 0
M  V30 BEGIN ATOM
M  V30 1 C 1.553832 -5.841235 2.193603 0
M  V30 2 S 2.732345 -4.660111 2.859325 0 CHG=1 VAL=3
M  V30 3 O 2.280130 -4.324413 4.462846 0 CHG=-1 VAL=1
M  V30 4 C 2.528122 -3.131347 1.999372 0
M  V30 5 C 1.651488 -2.162632 2.443410 0
M  V30 6 C 1.495486 -0.962900 1.762809 0
M  V30 7 C 2.201210 -0.696438 0.631685 0
M  V30 8 C 2.001891 0.579223 -0.048048 0
M  V30 9 C 2.955926 1.440412 -0.556183 0
M  V30 10 O 2.389835 2.495305 -1.099958 0
M  V30 11 C 1.077019 2.429003 -1.004645 0
M  V30 12 C 0.036649 3.245548 -1.398264 0
M  V30 13 C -1.287072 2.925665 -1.165583 0
M  V30 14 C -1.520251 1.733213 -0.511321 0
M  V30 15 C -2.903389 1.349157 -0.241305 0
M  V30 16 N -3.349961 0.240638 0.377329 0
M  V30 17 N -4.671378 0.230822 0.442531 0
M  V30 18 C -5.061783 1.388841 -0.164879 0
M  V30 19 O -6.391434 1.763918 -0.307071 0
M  V30 20 O -3.979491 2.033098 -0.561717 0
M  V30 21 C -0.503864 0.892926 -0.103799 0
M  V30 22 C 0.809700 1.244461 -0.353095 0
M  V30 23 C 3.083438 -1.648148 0.167675 0
M  V30 24 C 3.246918 -2.848019 0.838486 0
M  V30 25 H 1.880231 -6.851526 2.493471 0
M  V30 26 H 0.523344 -5.602300 2.558700 0
M  V30 27 H 1.534818 -5.722651 1.087249 0
M  V30 28 H 1.113681 -2.431308 3.353934 0
M  V30 29 H 0.783329 -0.313209 2.225164 0
M  V30 30 H 4.039653 1.295013 -0.526838 0
M  V30 31 H 0.238351 4.189993 -1.917225 0
M  V30 32 H -2.131606 3.531954 -1.454572 0
M  V30 33 H -7.003021 1.131041 -0.806566 0
M  V30 34 H -0.752688 -0.027003 0.403995 0
M  V30 35 H 3.659786 -1.456828 -0.736648 0
M  V30 36 H 3.952424 -3.587033 0.451119 0
M  V30 END ATOM
M  V30 BEGIN BOND
M  V30 1 1 1 2
M  V30 2 1 2 3
M  V30 3 1 2 4
M  V30 4 2 4 5
M  V30 5 1 5 6
M  V30 6 2 6 7
M  V30 7 1 7 8
M  V30 8 2 8 9
M  V30 9 1 9 10
M  V30 10 1 10 11
M  V30 11 2 11 12
M  V30 12 1 12 13
M  V30 13 2 13 14
M  V30 14 1 14 15
M  V30 15 2 15 16
M  V30 16 1 16 17
M  V30 17 2 17 18
M  V30 18 1 18 19
M  V30 19 1 18 20
M  V30 20 1 14 21
M  V30 21 2 21 22
M  V30 22 1 7 23
M  V30 23 2 23 24
M  V30 24 1 24 4
M  V30 25 1 22 8
M  V30 26 1 22 11
M  V30 27 1 20 15
M  V30 28 1 1 25
M  V30 29 1 1 26
M  V30 30 1 1 27
M  V30 31 1 5 28
M  V30 32 1 6 29
M  V30 33 1 9 30
M  V30 34 1 12 31
M  V30 35 1 13 32
M  V30 36 1 19 33
M  V30 37 1 21 34
M  V30 38 1 23 35
M  V30 39 1 24 36
M  V30 END BOND
M  V30 END CTAB
M  END
>  <Dataset>  (816) 
ChEMBL_Kinases

>  <Ligand_Instance>  (816) 
nan

>  <PDB_ID>  (816) 
nan

>  <Standardized_SMILES>  (816) 
C[S+]([O-])c1ccc(-c2coc3ccc(-c4nnc(O)o4)cc23)cc1

>  <Name>  (816) 
nan

>  <Pocket>  (816) 
nan

>  <ATP_Site>  (816) 
nan

>  <Peripheral>  (816) 
nan

>  <Num_H_Atoms_ProtBoundConf>  (816) 
nan

>  <Num_Resolved_Atoms>  (816) 
nan

>  <Num_Not_Resolved_Atoms>  (816) 
nan

$$$$
CHEMBL529897
     RDKit          3D

  0  0  0  0  0  0  0  0  0  0999 V3000
M  V30 BEGIN CTAB
M  V30 COUNTS 50 55 0 0 0
M  V30 BEGIN ATOM
M  V30 1 O 3.799763 1.943963 3.017847 0
M  V30 2 C 3.110447 0.922849 3.203734 0
M  V30 3 N 3.086460 0.055387 4.351771 0
M  V30 4 C 2.145194 -0.975814 4.107300 0
M  V30 5 O 2.011313 -1.809141 5.014753 0
M  V30 6 C 1.541424 -0.817527 2.825630 0
M  V30 7 C 2.133173 0.314316 2.315793 0
M  V30 8 C 1.772425 0.774839 1.047862 0
M  V30 9 C 2.368129 1.968608 0.460061 0
M  V30 10 C 3.489404 1.822059 -0.285331 0
M  V30 11 C 4.034851 2.972138 -0.832116 0
M  V30 12 C 3.476270 4.221725 -0.638223 0
M  V30 13 C 2.320820 4.354874 0.132581 0
M  V30 14 C 1.787037 3.203173 0.671628 0
M  V30 15 Cl 0.339303 3.304291 1.647322 0
M  V30 16 C 0.825528 0.093248 0.313732 0
M  V30 17 C 0.256233 -1.032158 0.854326 0
M  V30 18 C 0.620648 -1.474188 2.103347 0
M  V30 19 C -0.091911 -2.580496 2.365175 0
M  V30 20 C -0.231841 -3.490903 3.367740 0
M  V30 21 C -1.085288 -4.569733 3.343479 0
M  V30 22 O -1.226952 -5.498737 4.368502 0
M  V30 23 C -1.891332 -4.787961 2.221868 0
M  V30 24 C -1.774641 -3.886667 1.190839 0
M  V30 25 C -0.888985 -2.824522 1.294780 0
M  V30 26 N -0.680168 -1.864827 0.346027 0
M  V30 27 C -1.297946 -1.729118 -0.929294 0
M  V30 28 C -2.559834 -0.901183 -0.940303 0
M  V30 29 N -3.009201 -0.902213 -2.340071 0
M  V30 30 C -3.831650 -1.752458 -2.980489 0
M  V30 31 C -3.936601 -1.319918 -4.287628 0
M  V30 32 N -3.168167 -0.213536 -4.395876 0
M  V30 33 C -2.592880 0.044438 -3.185188 0
M  V30 34 H 3.721163 0.270424 5.175687 0
M  V30 35 H 3.919903 0.863139 -0.435385 0
M  V30 36 H 4.928982 2.882891 -1.430673 0
M  V30 37 H 3.892399 5.125147 -1.059298 0
M  V30 38 H 1.850663 5.304554 0.311178 0
M  V30 39 H 0.533093 0.432921 -0.667934 0
M  V30 40 H 0.315782 -3.448511 4.275039 0
M  V30 41 H -1.468275 -5.087078 5.280861 0
M  V30 42 H -2.572442 -5.601343 2.137177 0
M  V30 43 H -2.381022 -4.036273 0.327074 0
M  V30 44 H -1.581673 -2.754966 -1.282057 0
M  V30 45 H -0.555665 -1.373996 -1.664713 0
M  V30 46 H -3.370102 -1.430097 -0.397908 0
M  V30 47 H -2.459039 0.092420 -0.513822 0
M  V30 48 H -4.294465 -2.593456 -2.519736 0
M  V30 49 H -4.503139 -1.748770 -5.083981 0
M  V30 50 H -1.925670 0.896748 -3.033824 0
M  V30 END ATOM
M  V30 BEGIN BOND
M  V30 1 2 1 2
M  V30 2 1 2 3
M  V30 3 1 3 4
M  V30 4 2 4 5
M  V30 5 1 4 6
M  V30 6 2 6 7
M  V30 7 1 7 8
M  V30 8 1 8 9
M  V30 9 2 9 10
M  V30 10 1 10 11
M  V30 11 2 11 12
M  V30 12 1 12 13
M  V30 13 2 13 14
M  V30 14 1 14 15
M  V30 15 2 8 16
M  V30 16 1 16 17
M  V30 17 2 17 18
M  V30 18 1 18 19
M  V30 19 2 19 20
M  V30 20 1 20 21
M  V30 21 1 21 22
M  V30 22 2 21 23
M  V30 23 1 23 24
M  V30 24 2 24 25
M  V30 25 1 25 26
M  V30 26 1 26 27
M  V30 27 1 27 28
M  V30 28 1 28 29
M  V30 29 1 29 30
M  V30 30 2 30 31
M  V30 31 1 31 32
M  V30 32 2 32 33
M  V30 33 1 7 2
M  V30 34 1 14 9
M  V30 35 1 26 17
M  V30 36 1 33 29
M  V30 37 1 18 6
M  V30 38 1 25 19
M  V30 39 1 3 34
M  V30 40 1 10 35
M  V30 41 1 11 36
M  V30 42 1 12 37
M  V30 43 1 13 38
M  V30 44 1 16 39
M  V30 45 1 20 40
M  V30 46 1 22 41
M  V30 47 1 23 42
M  V30 48 1 24 43
M  V30 49 1 27 44
M  V30 50 1 27 45
M  V30 51 1 28 46
M  V30 52 1 28 47
M  V30 53 1 30 48
M  V30 54 1 31 49
M  V30 55 1 33 50
M  V30 END BOND
M  V30 END CTAB
M  END
>  <Dataset>  (817) 
ChEMBL_Kinases

>  <Ligand_Instance>  (817) 
nan

>  <PDB_ID>  (817) 
nan

>  <Standardized_SMILES>  (817) 
O=C1NC(=O)c2c1c(-c1ccccc1Cl)cc1c2c2cc(O)ccc2n1CCn1ccnc1

>  <Name>  (817) 
nan

>  <Pocket>  (817) 
nan

>  <ATP_Site>  (817) 
nan

>  <Peripheral>  (817) 
nan

>  <Num_H_Atoms_ProtBoundConf>  (817) 
nan

>  <Num_Resolved_Atoms>  (817) 
nan

>  <Num_Not_Resolved_Atoms>  (817) 
nan

$$$$
CHEMBL573266
     RDKit          3D

  0  0  0  0  0  0  0  0  0  0999 V3000
M  V30 BEGIN CTAB
M  V30 COUNTS 40 43 0 0 0
M  V30 BEGIN ATOM
M  V30 1 C 2.063180 -6.647144 0.504874 0
M  V30 2 C 1.692495 -5.210313 0.469444 0
M  V30 3 C 1.285202 -4.531221 1.599684 0
M  V30 4 C 1.036319 -3.238527 1.149635 0
M  V30 5 C 1.304227 -3.204157 -0.219007 0
M  V30 6 C 1.182563 -2.040959 -1.129465 0
M  V30 7 C 1.515311 -2.296617 -2.441543 0
M  V30 8 C 1.390347 -1.193390 -3.258136 0
M  V30 9 C 0.968691 0.029348 -2.763493 0
M  V30 10 S 0.736486 1.536926 -3.593818 0
M  V30 11 C 0.183636 2.458693 -2.065520 0
M  V30 12 C 0.238670 1.471765 -1.040506 0
M  V30 13 C -0.144210 1.950672 0.282261 0
M  V30 14 C 0.621421 1.695116 1.403096 0
M  V30 15 C 0.291469 2.127193 2.685086 0
M  V30 16 C -0.874924 2.853344 2.823068 0
M  V30 17 S -1.327910 3.419346 4.434054 0 CHG=1 VAL=3
M  V30 18 C -2.341206 2.172577 5.231561 0
M  V30 19 O -2.209213 4.822853 4.246079 0 CHG=-1 VAL=1
M  V30 20 C -1.665134 3.128019 1.725025 0
M  V30 21 C -1.301746 2.680881 0.471128 0
M  V30 22 C 0.653794 0.244213 -1.485726 0
M  V30 23 C 0.760850 -0.840783 -0.605288 0
M  V30 24 O 1.689015 -4.401829 -0.564072 0
M  V30 25 H 2.695028 -6.869805 1.406428 0
M  V30 26 H 1.132573 -7.243152 0.675550 0
M  V30 27 H 2.524322 -7.015281 -0.414545 0
M  V30 28 H 1.155164 -4.838218 2.641293 0
M  V30 29 H 0.697829 -2.416367 1.753927 0
M  V30 30 H 1.841896 -3.255805 -2.808596 0
M  V30 31 H 1.616940 -1.243174 -4.313506 0
M  V30 32 H -0.121557 3.554160 -1.993451 0
M  V30 33 H 1.539027 1.138065 1.348014 0
M  V30 34 H 0.906209 1.914181 3.542953 0
M  V30 35 H -1.637724 1.365529 5.586925 0
M  V30 36 H -3.003640 1.679696 4.483862 0
M  V30 37 H -2.923833 2.634550 6.028582 0
M  V30 38 H -2.586597 3.701406 1.832073 0
M  V30 39 H -1.920065 2.894799 -0.393618 0
M  V30 40 H 0.538574 -0.835034 0.471517 0
M  V30 END ATOM
M  V30 BEGIN BOND
M  V30 1 1 1 2
M  V30 2 2 2 3
M  V30 3 1 3 4
M  V30 4 2 4 5
M  V30 5 1 5 6
M  V30 6 2 6 7
M  V30 7 1 7 8
M  V30 8 2 8 9
M  V30 9 1 9 10
M  V30 10 1 10 11
M  V30 11 2 11 12
M  V30 12 1 12 13
M  V30 13 2 13 14
M  V30 14 1 14 15
M  V30 15 2 15 16
M  V30 16 1 16 17
M  V30 17 1 17 18
M  V30 18 1 17 19
M  V30 19 1 16 20
M  V30 20 2 20 21
M  V30 21 1 12 22
M  V30 22 2 22 23
M  V30 23 1 5 24
M  V30 24 1 24 2
M  V30 25 1 23 6
M  V30 26 1 22 9
M  V30 27 1 21 13
M  V30 28 1 1 25
M  V30 29 1 1 26
M  V30 30 1 1 27
M  V30 31 1 3 28
M  V30 32 1 4 29
M  V30 33 1 7 30
M  V30 34 1 8 31
M  V30 35 1 11 32
M  V30 36 1 14 33
M  V30 37 1 15 34
M  V30 38 1 18 35
M  V30 39 1 18 36
M  V30 40 1 18 37
M  V30 41 1 20 38
M  V30 42 1 21 39
M  V30 43 1 23 40
M  V30 END BOND
M  V30 END CTAB
M  END
>  <Dataset>  (818) 
ChEMBL_Kinases

>  <Ligand_Instance>  (818) 
nan

>  <PDB_ID>  (818) 
nan

>  <Standardized_SMILES>  (818) 
Cc1ccc(-c2ccc3scc(-c4ccc([S+](C)[O-])cc4)c3c2)o1

>  <Name>  (818) 
nan

>  <Pocket>  (818) 
nan

>  <ATP_Site>  (818) 
nan

>  <Peripheral>  (818) 
nan

>  <Num_H_Atoms_ProtBoundConf>  (818) 
nan

>  <Num_Resolved_Atoms>  (818) 
nan

>  <Num_Not_Resolved_Atoms>  (818) 
nan

$$$$
CHEMBL529939
     RDKit          3D

  0  0  0  0  0  0  0  0  0  0999 V3000
M  V30 BEGIN CTAB
M  V30 COUNTS 59 63 0 0 0
M  V30 BEGIN ATOM
M  V30 1 C 0.269430 -4.246787 4.643845 0
M  V30 2 C 0.908705 -3.270330 3.715659 0
M  V30 3 C 2.099722 -2.690774 4.169513 0
M  V30 4 C 2.814511 -1.774700 3.430417 0
M  V30 5 C 2.347731 -1.403257 2.187894 0
M  V30 6 C 2.995770 -0.438844 1.282991 0
M  V30 7 N 4.128184 -0.435994 0.547966 0
M  V30 8 N 4.256500 0.686736 -0.102185 0
M  V30 9 C 3.160417 1.427247 0.233856 0
M  V30 10 C 2.835636 2.696044 -0.196688 0
M  V30 11 C 3.627983 3.433293 -1.082906 0
M  V30 12 C 3.282313 4.698235 -1.498428 0
M  V30 13 C 2.120153 5.290273 -1.044627 0
M  V30 14 C 1.295758 4.600838 -0.161804 0
M  V30 15 C 1.668349 3.332857 0.237815 0
M  V30 16 C 0.910661 2.575141 1.111396 0
M  V30 17 C -0.343512 3.232305 1.591485 0
M  V30 18 N 1.254641 1.339432 1.512787 0
M  V30 19 N 2.363193 0.755328 1.089681 0
M  V30 20 C 1.175015 -1.993427 1.776466 0
M  V30 21 C 0.408834 -2.912449 2.455415 0
M  V30 22 S -1.061179 -3.684225 2.056750 0
M  V30 23 O -0.902292 -5.172458 2.343238 0
M  V30 24 O -2.135145 -3.235221 3.053078 0
M  V30 25 N -1.722357 -3.471216 0.533421 0
M  V30 26 C -0.871854 -3.969353 -0.484608 0
M  V30 27 C -1.468077 -3.939087 -1.873653 0
M  V30 28 N -2.128865 -2.646705 -2.114716 0
M  V30 29 C -3.494872 -2.819542 -2.447905 0
M  V30 30 C -4.257964 -1.600057 -2.792824 0
M  V30 31 O -4.318466 -0.682844 -1.772685 0
M  V30 32 C -1.784712 -1.700588 -1.113514 0
M  V30 33 C -2.262254 -2.167577 0.255164 0
M  V30 34 H 0.673753 -4.145409 5.655231 0
M  V30 35 H 0.539353 -5.302538 4.341674 0
M  V30 36 H -0.817606 -4.137808 4.724109 0
M  V30 37 H 2.502513 -2.963619 5.157590 0
M  V30 38 H 3.734887 -1.316038 3.761253 0
M  V30 39 H 4.543702 2.972314 -1.443505 0
M  V30 40 H 3.870011 5.284162 -2.175650 0
M  V30 41 H 1.727024 6.271260 -1.285474 0
M  V30 42 H 0.368471 5.004237 0.235304 0
M  V30 43 H -0.112093 4.184408 2.132114 0
M  V30 44 H -1.028082 3.469163 0.769009 0
M  V30 45 H -0.815383 2.552070 2.309843 0
M  V30 46 H 0.780759 -1.708224 0.814033 0
M  V30 47 H -0.656084 -5.044039 -0.246299 0
M  V30 48 H 0.092923 -3.472292 -0.497487 0
M  V30 49 H -0.607921 -3.951656 -2.583532 0
M  V30 50 H -2.125624 -4.790027 -2.040337 0
M  V30 51 H -4.035844 -3.391831 -1.653443 0
M  V30 52 H -3.570366 -3.513972 -3.344833 0
M  V30 53 H -5.299669 -1.888746 -3.101397 0
M  V30 54 H -3.855331 -1.078825 -3.703167 0
M  V30 55 H -4.203517 0.239384 -2.096869 0
M  V30 56 H -2.125308 -0.704029 -1.365589 0
M  V30 57 H -0.638974 -1.684554 -1.106626 0
M  V30 58 H -3.359842 -2.299694 0.179457 0
M  V30 59 H -2.084837 -1.410926 1.031843 0
M  V30 END ATOM
M  V30 BEGIN BOND
M  V30 1 1 1 2
M  V30 2 2 2 3
M  V30 3 1 3 4
M  V30 4 2 4 5
M  V30 5 1 5 6
M  V30 6 2 6 7
M  V30 7 1 7 8
M  V30 8 2 8 9
M  V30 9 1 9 10
M  V30 10 2 10 11
M  V30 11 1 11 12
M  V30 12 2 12 13
M  V30 13 1 13 14
M  V30 14 2 14 15
M  V30 15 1 15 16
M  V30 16 1 16 17
M  V30 17 2 16 18
M  V30 18 1 18 19
M  V30 19 1 5 20
M  V30 20 2 20 21
M  V30 21 1 21 22
M  V30 22 2 22 23
M  V30 23 2 22 24
M  V30 24 1 22 25
M  V30 25 1 25 26
M  V30 26 1 26 27
M  V30 27 1 27 28
M  V30 28 1 28 29
M  V30 29 1 29 30
M  V30 30 1 30 31
M  V30 31 1 28 32
M  V30 32 1 32 33
M  V30 33 1 21 2
M  V30 34 1 33 25
M  V30 35 1 19 6
M  V30 36 1 19 9
M  V30 37 1 15 10
M  V30 38 1 1 34
M  V30 39 1 1 35
M  V30 40 1 1 36
M  V30 41 1 3 37
M  V30 42 1 4 38
M  V30 43 1 11 39
M  V30 44 1 12 40
M  V30 45 1 13 41
M  V30 46 1 14 42
M  V30 47 1 17 43
M  V30 48 1 17 44
M  V30 49 1 17 45
M  V30 50 1 20 46
M  V30 51 1 26 47
M  V30 52 1 26 48
M  V30 53 1 27 49
M  V30 54 1 27 50
M  V30 55 1 29 51
M  V30 56 1 29 52
M  V30 57 1 30 53
M  V30 58 1 30 54
M  V30 59 1 31 55
M  V30 60 1 32 56
M  V30 61 1 32 57
M  V30 62 1 33 58
M  V30 63 1 33 59
M  V30 END BOND
M  V30 END CTAB
M  END
>  <Dataset>  (819) 
ChEMBL_Kinases

>  <Ligand_Instance>  (819) 
nan

>  <PDB_ID>  (819) 
nan

>  <Standardized_SMILES>  (819) 
Cc1ccc(-c2nnc3c4ccccc4c(C)nn23)cc1S(=O)(=O)N1CCN(CCO)CC1

>  <Name>  (819) 
nan

>  <Pocket>  (819) 
nan

>  <ATP_Site>  (819) 
nan

>  <Peripheral>  (819) 
nan

>  <Num_H_Atoms_ProtBoundConf>  (819) 
nan

>  <Num_Resolved_Atoms>  (819) 
nan

>  <Num_Not_Resolved_Atoms>  (819) 
nan

$$$$
CHEMBL573257
     RDKit          3D

  0  0  0  0  0  0  0  0  0  0999 V3000
M  V30 BEGIN CTAB
M  V30 COUNTS 38 41 0 0 0
M  V30 BEGIN ATOM
M  V30 1 C 0.335139 -6.948927 0.153684 0
M  V30 2 C 0.288892 -5.470671 0.306288 0
M  V30 3 C -0.310047 -4.780897 1.362972 0
M  V30 4 C -0.162761 -3.421708 1.179294 0
M  V30 5 C 0.535802 -3.340198 -0.009006 0
M  V30 6 C 0.967305 -2.119251 -0.684701 0
M  V30 7 C 1.656187 -2.208388 -1.865021 0
M  V30 8 C 2.060959 -1.034935 -2.497473 0
M  V30 9 C 1.787951 0.211972 -1.969332 0
M  V30 10 O 2.038406 1.446904 -2.335306 0
M  V30 11 C 1.552657 2.301147 -1.463597 0
M  V30 12 C 0.919120 1.619531 -0.416155 0
M  V30 13 C 0.250022 2.186615 0.754139 0
M  V30 14 C -0.978556 1.696766 1.153002 0
M  V30 15 C -1.635096 2.224265 2.268257 0
M  V30 16 C -1.015815 3.254543 2.962560 0
M  V30 17 C -1.631480 3.867786 4.143931 0
M  V30 18 O -1.147443 4.798575 4.830150 0
M  V30 19 O -2.882179 3.428859 4.618156 0
M  V30 20 C 0.213034 3.766118 2.588319 0
M  V30 21 C 0.841179 3.212485 1.465353 0
M  V30 22 C 1.084269 0.290917 -0.764256 0
M  V30 23 C 0.694612 -0.872727 -0.157118 0
M  V30 24 O 0.770524 -4.534827 -0.469171 0
M  V30 25 H 0.392685 -7.451022 1.131614 0
M  V30 26 H -0.596764 -7.261892 -0.353409 0
M  V30 27 H 1.186020 -7.237556 -0.511101 0
M  V30 28 H -0.820236 -5.258635 2.210010 0
M  V30 29 H -0.500455 -2.599835 1.796637 0
M  V30 30 H 1.880010 -3.183838 -2.295683 0
M  V30 31 H 2.615933 -1.088078 -3.447433 0
M  V30 32 H 1.581691 3.392956 -1.458756 0
M  V30 33 H -1.491254 0.898340 0.640547 0
M  V30 34 H -2.594166 1.855829 2.595602 0
M  V30 35 H -3.060182 3.260221 5.605701 0
M  V30 36 H 0.690435 4.564412 3.128207 0
M  V30 37 H 1.809177 3.562573 1.110109 0
M  V30 38 H 0.149143 -0.848564 0.775167 0
M  V30 END ATOM
M  V30 BEGIN BOND
M  V30 1 1 1 2
M  V30 2 2 2 3
M  V30 3 1 3 4
M  V30 4 2 4 5
M  V30 5 1 5 6
M  V30 6 2 6 7
M  V30 7 1 7 8
M  V30 8 2 8 9
M  V30 9 1 9 10
M  V30 10 1 10 11
M  V30 11 2 11 12
M  V30 12 1 12 13
M  V30 13 2 13 14
M  V30 14 1 14 15
M  V30 15 2 15 16
M  V30 16 1 16 17
M  V30 17 2 17 18
M  V30 18 1 17 19
M  V30 19 1 16 20
M  V30 20 2 20 21
M  V30 21 1 12 22
M  V30 22 2 22 23
M  V30 23 1 5 24
M  V30 24 1 24 2
M  V30 25 1 23 6
M  V30 26 1 22 9
M  V30 27 1 21 13
M  V30 28 1 1 25
M  V30 29 1 1 26
M  V30 30 1 1 27
M  V30 31 1 3 28
M  V30 32 1 4 29
M  V30 33 1 7 30
M  V30 34 1 8 31
M  V30 35 1 11 32
M  V30 36 1 14 33
M  V30 37 1 15 34
M  V30 38 1 19 35
M  V30 39 1 20 36
M  V30 40 1 21 37
M  V30 41 1 23 38
M  V30 END BOND
M  V30 END CTAB
M  END
>  <Dataset>  (820) 
ChEMBL_Kinases

>  <Ligand_Instance>  (820) 
nan

>  <PDB_ID>  (820) 
nan

>  <Standardized_SMILES>  (820) 
Cc1ccc(-c2ccc3occ(-c4ccc(C(=O)O)cc4)c3c2)o1

>  <Name>  (820) 
nan

>  <Pocket>  (820) 
nan

>  <ATP_Site>  (820) 
nan

>  <Peripheral>  (820) 
nan

>  <Num_H_Atoms_ProtBoundConf>  (820) 
nan

>  <Num_Resolved_Atoms>  (820) 
nan

>  <Num_Not_Resolved_Atoms>  (820) 
nan

$$$$
CHEMBL530110
     RDKit          3D

  0  0  0  0  0  0  0  0  0  0999 V3000
M  V30 BEGIN CTAB
M  V30 COUNTS 59 60 0 0 0
M  V30 BEGIN ATOM
M  V30 1 C 0.869447 -2.497249 3.557706 0
M  V30 2 C 1.209271 -0.978390 3.532417 0
M  V30 3 C 0.090609 -0.267036 4.247462 0
M  V30 4 C 1.422796 -0.658903 2.119572 0
M  V30 5 C 1.804960 0.702005 1.678112 0
M  V30 6 C 0.873018 1.820634 2.000356 0
M  V30 7 C 1.323385 3.188607 1.534560 0
M  V30 8 C 1.512123 3.338481 0.075860 0
M  V30 9 C 0.281192 4.232720 1.958125 0
M  V30 10 C 1.832131 0.557494 0.162455 0
M  V30 11 O 2.301409 0.565500 -1.011493 0
M  V30 12 O 0.693384 0.179554 -0.543593 0
M  V30 13 C 0.634913 0.015127 -1.928653 0
M  V30 14 C -0.817146 -0.385074 -2.222075 0
M  V30 15 C -1.723654 0.716186 -1.672795 0
M  V30 16 O -1.517613 1.902848 -2.370253 0
M  V30 17 C -1.121053 -1.629454 -1.423682 0
M  V30 18 C -1.309245 -2.651667 -2.455965 0
M  V30 19 C -1.375872 -3.965251 -2.379369 0
M  V30 20 C -1.265976 -4.750298 -1.166865 0
M  V30 21 C -0.359750 -4.682260 -0.134228 0
M  V30 22 C -0.393357 -5.485084 0.979390 0
M  V30 23 C -1.367871 -6.430677 1.123062 0
M  V30 24 C -2.284957 -6.504251 0.082613 0
M  V30 25 N -2.227463 -5.705867 -0.993246 0
M  V30 26 C -1.428726 -1.968443 -3.764356 0
M  V30 27 O -1.780779 -2.395607 -4.908410 0
M  V30 28 O -1.062797 -0.633102 -3.567221 0
M  V30 29 H 0.853150 -2.889246 4.577280 0
M  V30 30 H 1.653346 -2.972377 2.930175 0
M  V30 31 H -0.085462 -2.598957 3.013357 0
M  V30 32 H 2.118780 -0.889793 4.150896 0
M  V30 33 H -0.484408 -1.035786 4.864953 0
M  V30 34 H -0.687833 0.097926 3.550303 0
M  V30 35 H 0.390894 0.470775 4.982954 0
M  V30 36 H 0.531613 -0.950724 1.476002 0
M  V30 37 H 2.221387 -1.348927 1.707091 0
M  V30 38 H 2.869115 0.960052 1.902753 0
M  V30 39 H -0.146728 1.681698 1.599049 0
M  V30 40 H 0.700253 1.900159 3.116796 0
M  V30 41 H 2.246652 3.502746 2.087449 0
M  V30 42 H 0.739271 2.848974 -0.519644 0
M  V30 43 H 1.406390 4.454007 -0.153209 0
M  V30 44 H 2.561203 3.135379 -0.260249 0
M  V30 45 H -0.730432 3.827126 1.771498 0
M  V30 46 H 0.390227 4.522291 3.004270 0
M  V30 47 H 0.381279 5.150857 1.337009 0
M  V30 48 H 0.828384 0.953629 -2.492581 0
M  V30 49 H 1.273237 -0.807183 -2.301646 0
M  V30 50 H -1.567142 0.827388 -0.585792 0
M  V30 51 H -2.778380 0.337731 -1.800612 0
M  V30 52 H -1.183620 1.677416 -3.290114 0
M  V30 53 H -2.132683 -1.515593 -0.913973 0
M  V30 54 H -0.372146 -1.835546 -0.659238 0
M  V30 55 H -1.523172 -4.572565 -3.284985 0
M  V30 56 H 0.421529 -3.950618 -0.246354 0
M  V30 57 H 0.371126 -5.341249 1.726943 0
M  V30 58 H -1.341633 -7.028772 2.021300 0
M  V30 59 H -3.067709 -7.256299 0.188379 0
M  V30 END ATOM
M  V30 BEGIN BOND
M  V30 1 1 1 2
M  V30 2 1 2 3
M  V30 3 1 2 4
M  V30 4 1 4 5
M  V30 5 1 5 6
M  V30 6 1 6 7
M  V30 7 1 7 8
M  V30 8 1 7 9
M  V30 9 1 5 10
M  V30 10 2 10 11
M  V30 11 1 10 12
M  V30 12 1 12 13
M  V30 13 1 13 14
M  V30 14 1 14 15
M  V30 15 1 15 16
M  V30 16 1 14 17
M  V30 17 1 17 18
M  V30 18 2 18 19
M  V30 19 1 19 20
M  V30 20 2 20 21
M  V30 21 1 21 22
M  V30 22 2 22 23
M  V30 23 1 23 24
M  V30 24 2 24 25
M  V30 25 1 18 26
M  V30 26 2 26 27
M  V30 27 1 26 28
M  V30 28 1 28 14
M  V30 29 1 25 20
M  V30 30 1 1 29
M  V30 31 1 1 30
M  V30 32 1 1 31
M  V30 33 1 2 32
M  V30 34 1 3 33
M  V30 35 1 3 34
M  V30 36 1 3 35
M  V30 37 1 4 36
M  V30 38 1 4 37
M  V30 39 1 5 38
M  V30 40 1 6 39
M  V30 41 1 6 40
M  V30 42 1 7 41
M  V30 43 1 8 42
M  V30 44 1 8 43
M  V30 45 1 8 44
M  V30 46 1 9 45
M  V30 47 1 9 46
M  V30 48 1 9 47
M  V30 49 1 13 48
M  V30 50 1 13 49
M  V30 51 1 15 50
M  V30 52 1 15 51
M  V30 53 1 16 52
M  V30 54 1 17 53
M  V30 55 1 17 54
M  V30 56 1 19 55
M  V30 57 1 21 56
M  V30 58 1 22 57
M  V30 59 1 23 58
M  V30 60 1 24 59
M  V30 END BOND
M  V30 END CTAB
M  END
>  <Dataset>  (821) 
ChEMBL_Kinases

>  <Ligand_Instance>  (821) 
nan

>  <PDB_ID>  (821) 
nan

>  <Standardized_SMILES>  (821) 
CC(C)CC(CC(C)C)C(=O)OCC1(CO)C/C(=C\c2ccccn2)C(=O)O1

>  <Name>  (821) 
nan

>  <Pocket>  (821) 
nan

>  <ATP_Site>  (821) 
nan

>  <Peripheral>  (821) 
nan

>  <Num_H_Atoms_ProtBoundConf>  (821) 
nan

>  <Num_Resolved_Atoms>  (821) 
nan

>  <Num_Not_Resolved_Atoms>  (821) 
nan

$$$$
CHEMBL530112
     RDKit          3D

  0  0  0  0  0  0  0  0  0  0999 V3000
M  V30 BEGIN CTAB
M  V30 COUNTS 55 60 0 0 0
M  V30 BEGIN ATOM
M  V30 1 O 3.598234 0.727967 4.608817 0
M  V30 2 C 2.519426 0.095005 4.485915 0
M  V30 3 N 1.616161 -0.353808 5.504164 0
M  V30 4 C 0.525519 -1.028311 4.900068 0
M  V30 5 O -0.326084 -1.466525 5.650847 0
M  V30 6 C 0.705088 -1.027769 3.472584 0
M  V30 7 C 1.887758 -0.359598 3.253208 0
M  V30 8 C 2.365254 -0.177354 1.960930 0
M  V30 9 C 3.617286 0.524930 1.687677 0
M  V30 10 C 4.781689 -0.251394 1.645219 0
M  V30 11 C 5.949612 0.401658 1.390239 0
M  V30 12 C 6.074590 1.753240 1.173188 0
M  V30 13 C 4.907663 2.480915 1.223332 0
M  V30 14 C 3.693758 1.892962 1.474896 0
M  V30 15 Cl 2.158999 2.743669 1.557679 0
M  V30 16 C 1.640349 -0.674407 0.896235 0
M  V30 17 C 0.434627 -1.356066 1.113431 0
M  V30 18 C 0.003174 -1.511082 2.412340 0
M  V30 19 C -1.175468 -2.196516 2.381915 0
M  V30 20 C -2.125538 -2.685796 3.226632 0
M  V30 21 C -3.258777 -3.370035 2.852625 0
M  V30 22 O -4.196997 -3.847206 3.763616 0
M  V30 23 C -3.481825 -3.598350 1.495373 0
M  V30 24 C -2.527991 -3.110791 0.602178 0
M  V30 25 C -1.412128 -2.431374 1.045843 0
M  V30 26 N -0.452173 -1.933595 0.246065 0
M  V30 27 C -0.241484 -1.916946 -1.164494 0
M  V30 28 C -0.839316 -0.723692 -1.865826 0
M  V30 29 C -2.322105 -0.600807 -1.718422 0
M  V30 30 C -2.734427 0.632641 -2.479674 0
M  V30 31 O -2.535384 1.694084 -1.826324 0
M  V30 32 N -3.281755 0.544742 -3.789573 0
M  V30 33 C -3.553814 -0.479034 -4.611770 0
M  V30 34 C -4.084601 -0.023968 -5.789492 0
M  V30 35 N -4.124504 1.307130 -5.652939 0
M  V30 36 C -3.646011 1.650462 -4.460018 0
M  V30 37 H 1.850980 -0.144587 6.519288 0
M  V30 38 H 4.707097 -1.318679 1.813770 0
M  V30 39 H 6.861612 -0.213217 1.356817 0
M  V30 40 H 7.003928 2.269403 0.970831 0
M  V30 41 H 4.919403 3.542959 1.063923 0
M  V30 42 H 2.031814 -0.522269 -0.121161 0
M  V30 43 H -2.035812 -2.557044 4.276032 0
M  V30 44 H -4.773328 -3.144854 4.251558 0
M  V30 45 H -4.358044 -4.130902 1.162199 0
M  V30 46 H -2.744457 -3.311832 -0.429751 0
M  V30 47 H 0.830762 -1.961545 -1.409493 0
M  V30 48 H -0.763406 -2.819287 -1.597992 0
M  V30 49 H -0.587032 -0.716913 -2.942714 0
M  V30 50 H -0.384597 0.229769 -1.472892 0
M  V30 51 H -2.789165 -1.444063 -2.228696 0
M  V30 52 H -2.641957 -0.506516 -0.660574 0
M  V30 53 H -3.340292 -1.503599 -4.283578 0
M  V30 54 H -4.362442 -0.724583 -6.569634 0
M  V30 55 H -3.638786 2.711844 -4.257169 0
M  V30 END ATOM
M  V30 BEGIN BOND
M  V30 1 2 1 2
M  V30 2 1 2 3
M  V30 3 1 3 4
M  V30 4 2 4 5
M  V30 5 1 4 6
M  V30 6 2 6 7
M  V30 7 1 7 8
M  V30 8 1 8 9
M  V30 9 2 9 10
M  V30 10 1 10 11
M  V30 11 2 11 12
M  V30 12 1 12 13
M  V30 13 2 13 14
M  V30 14 1 14 15
M  V30 15 2 8 16
M  V30 16 1 16 17
M  V30 17 2 17 18
M  V30 18 1 18 19
M  V30 19 2 19 20
M  V30 20 1 20 21
M  V30 21 1 21 22
M  V30 22 2 21 23
M  V30 23 1 23 24
M  V30 24 2 24 25
M  V30 25 1 25 26
M  V30 26 1 26 27
M  V30 27 1 27 28
M  V30 28 1 28 29
M  V30 29 1 29 30
M  V30 30 2 30 31
M  V30 31 1 30 32
M  V30 32 1 32 33
M  V30 33 2 33 34
M  V30 34 1 34 35
M  V30 35 2 35 36
M  V30 36 1 7 2
M  V30 37 1 14 9
M  V30 38 1 26 17
M  V30 39 1 36 32
M  V30 40 1 18 6
M  V30 41 1 25 19
M  V30 42 1 3 37
M  V30 43 1 10 38
M  V30 44 1 11 39
M  V30 45 1 12 40
M  V30 46 1 13 41
M  V30 47 1 16 42
M  V30 48 1 20 43
M  V30 49 1 22 44
M  V30 50 1 23 45
M  V30 51 1 24 46
M  V30 52 1 27 47
M  V30 53 1 27 48
M  V30 54 1 28 49
M  V30 55 1 28 50
M  V30 56 1 29 51
M  V30 57 1 29 52
M  V30 58 1 33 53
M  V30 59 1 34 54
M  V30 60 1 36 55
M  V30 END BOND
M  V30 END CTAB
M  END
>  <Dataset>  (822) 
ChEMBL_Kinases

>  <Ligand_Instance>  (822) 
nan

>  <PDB_ID>  (822) 
nan

>  <Standardized_SMILES>  (822) 
O=C1NC(=O)c2c1c(-c1ccccc1Cl)cc1c2c2cc(O)ccc2n1CCCC(=O)n1ccnc1

>  <Name>  (822) 
nan

>  <Pocket>  (822) 
nan

>  <ATP_Site>  (822) 
nan

>  <Peripheral>  (822) 
nan

>  <Num_H_Atoms_ProtBoundConf>  (822) 
nan

>  <Num_Resolved_Atoms>  (822) 
nan

>  <Num_Not_Resolved_Atoms>  (822) 
nan

$$$$
CHEMBL530337
     RDKit          3D

  0  0  0  0  0  0  0  0  0  0999 V3000
M  V30 BEGIN CTAB
M  V30 COUNTS 52 55 0 0 0
M  V30 BEGIN ATOM
M  V30 1 C -0.996521 -6.935166 1.706775 0
M  V30 2 O -0.474710 -5.939673 2.543673 0
M  V30 3 C 0.200249 -4.813993 2.089543 0
M  V30 4 C 0.478792 -4.466714 0.797222 0
M  V30 5 C 1.171945 -3.290176 0.512953 0
M  V30 6 C 1.591924 -2.448046 1.548107 0
M  V30 7 C 2.320959 -1.205829 1.213252 0
M  V30 8 O 2.491150 -1.025219 -0.000970 0
M  V30 9 O 2.737249 -0.382936 2.204420 0
M  V30 10 C 3.402613 0.805380 2.216455 0
M  V30 11 C 2.757797 2.023030 1.642329 0
M  V30 12 C 3.736490 3.178983 1.959236 0
M  V30 13 O 4.932832 2.935559 1.295252 0
M  V30 14 C 2.468101 2.067116 0.198595 0
M  V30 15 C 0.999686 1.784392 0.106878 0
M  V30 16 C 0.158282 1.645545 -0.901007 0
M  V30 17 C -1.272741 1.371208 -0.838332 0
M  V30 18 C -2.263263 1.955733 -0.085813 0
M  V30 19 C -3.556956 1.491359 -0.170972 0
M  V30 20 C -3.881838 0.436494 -1.008972 0
M  V30 21 C -5.182050 -0.006097 -1.068946 0
M  V30 22 C -5.483280 -1.054905 -1.902918 0
M  V30 23 C -4.496007 -1.652360 -2.666402 0
M  V30 24 C -3.207104 -1.184944 -2.582140 0
M  V30 25 C -2.861599 -0.127290 -1.751548 0
M  V30 26 N -1.612092 0.333814 -1.658285 0
M  V30 27 C 0.573099 1.617463 1.512627 0
M  V30 28 O -0.474280 0.978414 1.878992 0
M  V30 29 O 1.522636 2.280534 2.322004 0
M  V30 30 C 1.306159 -2.806652 2.850973 0
M  V30 31 C 0.610671 -3.988889 3.123483 0
M  V30 32 H -2.058327 -6.760107 1.420581 0
M  V30 33 H -0.885294 -7.930957 2.186805 0
M  V30 34 H -0.400109 -6.982780 0.782825 0
M  V30 35 H 0.125217 -5.161244 0.043533 0
M  V30 36 H 1.370198 -3.057139 -0.541022 0
M  V30 37 H 4.461158 0.739766 1.832717 0
M  V30 38 H 3.570572 1.056321 3.312166 0
M  V30 39 H 3.922212 3.231995 3.066610 0
M  V30 40 H 3.223882 4.103601 1.626316 0
M  V30 41 H 5.637689 3.412490 1.836308 0
M  V30 42 H 2.584257 3.144381 -0.154740 0
M  V30 43 H 3.088765 1.499166 -0.479399 0
M  V30 44 H 0.643023 1.760413 -1.863324 0
M  V30 45 H -1.929355 2.766501 0.520090 0
M  V30 46 H -4.272199 2.005461 0.452829 0
M  V30 47 H -5.948317 0.483234 -0.455331 0
M  V30 48 H -6.477188 -1.445346 -1.993912 0
M  V30 49 H -4.730158 -2.493992 -3.336790 0
M  V30 50 H -2.382773 -1.601055 -3.147812 0
M  V30 51 H 1.662732 -2.104844 3.615953 0
M  V30 52 H 0.460165 -4.138545 4.172821 0
M  V30 END ATOM
M  V30 BEGIN BOND
M  V30 1 1 1 2
M  V30 2 1 2 3
M  V30 3 2 3 4
M  V30 4 1 4 5
M  V30 5 2 5 6
M  V30 6 1 6 7
M  V30 7 2 7 8
M  V30 8 1 7 9
M  V30 9 1 9 10
M  V30 10 1 10 11
M  V30 11 1 11 12
M  V30 12 1 12 13
M  V30 13 1 11 14
M  V30 14 1 14 15
M  V30 15 2 15 16
M  V30 16 1 16 17
M  V30 17 2 17 18
M  V30 18 1 18 19
M  V30 19 2 19 20
M  V30 20 1 20 21
M  V30 21 2 21 22
M  V30 22 1 22 23
M  V30 23 2 23 24
M  V30 24 1 24 25
M  V30 25 2 25 26
M  V30 26 1 15 27
M  V30 27 2 27 28
M  V30 28 1 27 29
M  V30 29 1 6 30
M  V30 30 2 30 31
M  V30 31 1 31 3
M  V30 32 1 29 11
M  V30 33 1 26 17
M  V30 34 1 25 20
M  V30 35 1 1 32
M  V30 36 1 1 33
M  V30 37 1 1 34
M  V30 38 1 4 35
M  V30 39 1 5 36
M  V30 40 1 10 37
M  V30 41 1 10 38
M  V30 42 1 12 39
M  V30 43 1 12 40
M  V30 44 1 13 41
M  V30 45 1 14 42
M  V30 46 1 14 43
M  V30 47 1 16 44
M  V30 48 1 18 45
M  V30 49 1 19 46
M  V30 50 1 21 47
M  V30 51 1 22 48
M  V30 52 1 23 49
M  V30 53 1 24 50
M  V30 54 1 30 51
M  V30 55 1 31 52
M  V30 END BOND
M  V30 END CTAB
M  END
>  <Dataset>  (823) 
ChEMBL_Kinases

>  <Ligand_Instance>  (823) 
nan

>  <PDB_ID>  (823) 
nan

>  <Standardized_SMILES>  (823) 
COc1ccc(C(=O)OCC2(CO)C/C(=C/c3ccc4ccccc4n3)C(=O)O2)cc1

>  <Name>  (823) 
nan

>  <Pocket>  (823) 
nan

>  <ATP_Site>  (823) 
nan

>  <Peripheral>  (823) 
nan

>  <Num_H_Atoms_ProtBoundConf>  (823) 
nan

>  <Num_Resolved_Atoms>  (823) 
nan

>  <Num_Not_Resolved_Atoms>  (823) 
nan

$$$$
CHEMBL550798
     RDKit          3D

  0  0  0  0  0  0  0  0  0  0999 V3000
M  V30 BEGIN CTAB
M  V30 COUNTS 47 50 0 0 0
M  V30 BEGIN ATOM
M  V30 1 C 1.125406 1.722252 -3.806543 0
M  V30 2 C 1.874886 0.706819 -3.039948 0
M  V30 3 C 2.922875 -0.028455 -3.598680 0
M  V30 4 C 3.639962 -0.978438 -2.916310 0
M  V30 5 C 3.274458 -1.199213 -1.584380 0
M  V30 6 C 3.992688 -2.196517 -0.792352 0
M  V30 7 N 5.058101 -2.933762 -1.387506 0
M  V30 8 O 3.824102 -2.546405 0.414464 0
M  V30 9 C 2.243902 -0.515710 -0.940712 0
M  V30 10 C 1.595223 0.412941 -1.723249 0
M  V30 11 N 0.524528 1.163973 -1.156608 0
M  V30 12 C -0.058451 1.150653 0.142744 0
M  V30 13 C -0.075636 2.282226 0.969268 0
M  V30 14 C -0.642659 2.268092 2.227786 0
M  V30 15 O -0.639354 3.312385 2.947714 0
M  V30 16 N -1.203937 1.137129 2.695581 0
M  V30 17 C -1.798286 1.140160 4.027832 0
M  V30 18 C -1.201317 0.036529 1.923086 0
M  V30 19 C -0.646061 -0.010182 0.648523 0
M  V30 20 C -0.825710 -1.271097 0.170085 0
M  V30 21 N -1.473302 -1.954689 1.141431 0
M  V30 22 N -1.702964 -1.184695 2.192704 0
M  V30 23 C -2.376325 -1.713754 3.329786 0
M  V30 24 C -1.613422 -2.582002 4.118063 0
M  V30 25 C -2.132943 -3.163778 5.240002 0
M  V30 26 F -1.418927 -4.013394 6.030095 0
M  V30 27 C -3.427070 -2.927170 5.650928 0
M  V30 28 C -4.178925 -2.067346 4.868164 0
M  V30 29 C -3.671561 -1.466746 3.726576 0
M  V30 30 F -4.373730 -0.624711 2.938728 0
M  V30 31 H 1.161124 2.711406 -3.325393 0
M  V30 32 H 1.523781 1.751532 -4.829759 0
M  V30 33 H 0.055764 1.401230 -3.885244 0
M  V30 34 H 3.207459 0.145349 -4.640293 0
M  V30 35 H 4.448656 -1.540133 -3.361330 0
M  V30 36 H 5.791636 -2.795814 -2.108359 0
M  V30 37 H 5.342737 -3.911876 -1.170131 0
M  V30 38 H 2.015852 -0.731016 0.078036 0
M  V30 39 H -0.033530 1.891482 -1.650025 0
M  V30 40 H 0.371275 3.180565 0.595416 0
M  V30 41 H -2.893598 1.365188 3.999066 0
M  V30 42 H -1.527601 0.265611 4.627005 0
M  V30 43 H -1.378481 2.014350 4.608666 0
M  V30 44 H -0.490847 -1.599153 -0.807984 0
M  V30 45 H -0.572464 -2.822067 3.857851 0
M  V30 46 H -3.853841 -3.374479 6.529429 0
M  V30 47 H -5.193386 -1.851542 5.147372 0
M  V30 END ATOM
M  V30 BEGIN BOND
M  V30 1 1 1 2
M  V30 2 2 2 3
M  V30 3 1 3 4
M  V30 4 2 4 5
M  V30 5 1 5 6
M  V30 6 1 6 7
M  V30 7 2 6 8
M  V30 8 1 5 9
M  V30 9 2 9 10
M  V30 10 1 10 11
M  V30 11 1 11 12
M  V30 12 2 12 13
M  V30 13 1 13 14
M  V30 14 2 14 15
M  V30 15 1 14 16
M  V30 16 1 16 17
M  V30 17 1 16 18
M  V30 18 2 18 19
M  V30 19 1 19 20
M  V30 20 2 20 21
M  V30 21 1 21 22
M  V30 22 1 22 23
M  V30 23 2 23 24
M  V30 24 1 24 25
M  V30 25 1 25 26
M  V30 26 2 25 27
M  V30 27 1 27 28
M  V30 28 2 28 29
M  V30 29 1 29 30
M  V30 30 1 10 2
M  V30 31 1 19 12
M  V30 32 1 29 23
M  V30 33 1 22 18
M  V30 34 1 1 31
M  V30 35 1 1 32
M  V30 36 1 1 33
M  V30 37 1 3 34
M  V30 38 1 4 35
M  V30 39 1 7 36
M  V30 40 1 7 37
M  V30 41 1 9 38
M  V30 42 1 11 39
M  V30 43 1 13 40
M  V30 44 1 17 41
M  V30 45 1 17 42
M  V30 46 1 17 43
M  V30 47 1 20 44
M  V30 48 1 24 45
M  V30 49 1 27 46
M  V30 50 1 28 47
M  V30 END BOND
M  V30 END CTAB
M  END
>  <Dataset>  (824) 
ChEMBL_Kinases

>  <Ligand_Instance>  (824) 
nan

>  <PDB_ID>  (824) 
nan

>  <Standardized_SMILES>  (824) 
Cc1ccc(C(N)=O)cc1Nc1cc(=O)n(C)c2c1cnn2-c1cc(F)ccc1F

>  <Name>  (824) 
nan

>  <Pocket>  (824) 
nan

>  <ATP_Site>  (824) 
nan

>  <Peripheral>  (824) 
nan

>  <Num_H_Atoms_ProtBoundConf>  (824) 
nan

>  <Num_Resolved_Atoms>  (824) 
nan

>  <Num_Not_Resolved_Atoms>  (824) 
nan

$$$$
CHEMBL533960
     RDKit          3D

  0  0  0  0  0  0  0  0  0  0999 V3000
M  V30 BEGIN CTAB
M  V30 COUNTS 60 63 0 0 0
M  V30 BEGIN ATOM
M  V30 1 C -0.158316 -5.388070 1.401426 0
M  V30 2 O 0.364709 -4.213108 1.241997 0
M  V30 3 C 0.666541 -2.995451 1.292107 0
M  V30 4 C 0.029163 -2.075992 2.084634 0
M  V30 5 C 0.394532 -0.740811 2.105236 0
M  V30 6 C 1.427904 -0.312133 1.309314 0
M  V30 7 N 1.856481 1.035032 1.190302 0
M  V30 8 C 1.035524 2.171432 1.482189 0
M  V30 9 N 1.440808 3.468040 1.392764 0
M  V30 10 C 0.580378 4.470803 1.652653 0
M  V30 11 C -0.727298 4.251112 2.015111 0
M  V30 12 C -1.710977 5.251767 2.309583 0
M  V30 13 N -2.501593 6.050586 2.562829 0
M  V30 14 C -1.142742 2.937248 2.108109 0
M  V30 15 N -2.428101 2.431339 2.435487 0
M  V30 16 C -3.104146 1.836350 1.344110 0
M  V30 17 C -2.531166 1.771821 0.102998 0
M  V30 18 C -3.233363 1.161683 -0.937169 0
M  V30 19 C -4.498076 0.628401 -0.707339 0
M  V30 20 C -5.113461 0.676486 0.538966 0
M  V30 21 C -4.356638 1.291020 1.502749 0
M  V30 22 C -4.905758 1.393033 2.830340 0
M  V30 23 N -6.147056 0.896644 3.252823 0
M  V30 24 O -4.657063 1.841560 3.976260 0
M  V30 25 N -0.229682 2.016093 1.835273 0
M  V30 26 C 2.104729 -1.223496 0.487696 0
M  V30 27 C 1.733125 -2.577334 0.467442 0
M  V30 28 N 2.426861 -3.503266 -0.380055 0
M  V30 29 C 1.642994 -4.182017 -1.427493 0
M  V30 30 C 2.407997 -4.118183 -2.737568 0
M  V30 31 N 3.553169 -3.307709 -2.668060 0
M  V30 32 C 3.793057 -2.370790 -3.697617 0
M  V30 33 C 4.474776 -3.446474 -1.622714 0
M  V30 34 C 3.822210 -3.871470 -0.340164 0
M  V30 35 H -0.352530 -6.008017 0.468728 0
M  V30 36 H 0.332922 -6.080208 2.165243 0
M  V30 37 H -1.211140 -5.306798 1.847340 0
M  V30 38 H -0.781531 -2.421526 2.706840 0
M  V30 39 H -0.143891 -0.084501 2.754139 0
M  V30 40 H 2.816749 1.282549 0.880293 0
M  V30 41 H 0.877863 5.508107 1.587051 0
M  V30 42 H -2.555605 2.629783 3.421104 0
M  V30 43 H -1.562669 2.165025 -0.122456 0
M  V30 44 H -2.781353 1.109959 -1.916178 0
M  V30 45 H -5.023975 0.160989 -1.538700 0
M  V30 46 H -6.094875 0.253341 0.690221 0
M  V30 47 H -6.463454 -0.011067 2.838318 0
M  V30 48 H -7.056861 0.547159 3.572168 0
M  V30 49 H 2.931866 -0.880607 -0.148797 0
M  V30 50 H 1.596382 -5.243193 -1.126920 0
M  V30 51 H 0.610518 -3.801534 -1.492510 0
M  V30 52 H 2.686356 -5.137399 -3.063725 0
M  V30 53 H 1.715028 -3.719141 -3.510466 0
M  V30 54 H 4.759016 -1.847124 -3.612558 0
M  V30 55 H 3.015067 -1.583198 -3.791711 0
M  V30 56 H 3.830170 -2.929179 -4.662678 0
M  V30 57 H 5.242113 -4.248868 -1.860336 0
M  V30 58 H 5.087957 -2.516233 -1.481550 0
M  V30 59 H 4.336686 -3.447292 0.555903 0
M  V30 60 H 3.836346 -4.990136 -0.298110 0
M  V30 END ATOM
M  V30 BEGIN BOND
M  V30 1 1 1 2
M  V30 2 1 2 3
M  V30 3 2 3 4
M  V30 4 1 4 5
M  V30 5 2 5 6
M  V30 6 1 6 7
M  V30 7 1 7 8
M  V30 8 2 8 9
M  V30 9 1 9 10
M  V30 10 2 10 11
M  V30 11 1 11 12
M  V30 12 3 12 13
M  V30 13 1 11 14
M  V30 14 1 14 15
M  V30 15 1 15 16
M  V30 16 2 16 17
M  V30 17 1 17 18
M  V30 18 2 18 19
M  V30 19 1 19 20
M  V30 20 2 20 21
M  V30 21 1 21 22
M  V30 22 1 22 23
M  V30 23 2 22 24
M  V30 24 2 14 25
M  V30 25 1 6 26
M  V30 26 2 26 27
M  V30 27 1 27 28
M  V30 28 1 28 29
M  V30 29 1 29 30
M  V30 30 1 30 31
M  V30 31 1 31 32
M  V30 32 1 31 33
M  V30 33 1 33 34
M  V30 34 1 27 3
M  V30 35 1 34 28
M  V30 36 1 25 8
M  V30 37 1 21 16
M  V30 38 1 1 35
M  V30 39 1 1 36
M  V30 40 1 1 37
M  V30 41 1 4 38
M  V30 42 1 5 39
M  V30 43 1 7 40
M  V30 44 1 10 41
M  V30 45 1 15 42
M  V30 46 1 17 43
M  V30 47 1 18 44
M  V30 48 1 19 45
M  V30 49 1 20 46
M  V30 50 1 23 47
M  V30 51 1 23 48
M  V30 52 1 26 49
M  V30 53 1 29 50
M  V30 54 1 29 51
M  V30 55 1 30 52
M  V30 56 1 30 53
M  V30 57 1 32 54
M  V30 58 1 32 55
M  V30 59 1 32 56
M  V30 60 1 33 57
M  V30 61 1 33 58
M  V30 62 1 34 59
M  V30 63 1 34 60
M  V30 END BOND
M  V30 END CTAB
M  END
>  <Dataset>  (825) 
ChEMBL_Kinases

>  <Ligand_Instance>  (825) 
nan

>  <PDB_ID>  (825) 
nan

>  <Standardized_SMILES>  (825) 
COc1ccc(Nc2ncc(C#N)c(Nc3ccccc3C(N)=O)n2)cc1N1CCN(C)CC1

>  <Name>  (825) 
nan

>  <Pocket>  (825) 
nan

>  <ATP_Site>  (825) 
nan

>  <Peripheral>  (825) 
nan

>  <Num_H_Atoms_ProtBoundConf>  (825) 
nan

>  <Num_Resolved_Atoms>  (825) 
nan

>  <Num_Not_Resolved_Atoms>  (825) 
nan

$$$$
CHEMBL53418
     RDKit          3D

  0  0  0  0  0  0  0  0  0  0999 V3000
M  V30 BEGIN CTAB
M  V30 COUNTS 26 28 0 0 0
M  V30 BEGIN ATOM
M  V30 1 O -0.652006 -3.240229 1.172237 0
M  V30 2 C -0.306990 -2.051155 0.967068 0
M  V30 3 C 0.899161 -1.471895 1.552474 0
M  V30 4 C 1.689777 -2.277954 2.367951 0
M  V30 5 C 2.832032 -1.811711 2.952321 0
M  V30 6 C 3.192063 -0.505750 2.714500 0
M  V30 7 C 2.452436 0.342499 1.917326 0
M  V30 8 O 2.764007 1.666163 1.641065 0
M  V30 9 C 1.287897 -0.165962 1.333619 0
M  V30 10 C 0.435243 0.662499 0.469029 0
M  V30 11 O 0.795810 1.855186 0.272806 0
M  V30 12 C -0.774024 0.101749 -0.125169 0
M  V30 13 C -1.521757 0.940475 -0.924220 0
M  V30 14 O -1.225609 2.256372 -1.207831 0
M  V30 15 C -2.689769 0.471791 -1.524702 0
M  V30 16 C -3.072376 -0.846403 -1.297339 0
M  V30 17 C -2.301132 -1.658033 -0.492631 0
M  V30 18 C -1.137102 -1.207903 0.111979 0
M  V30 19 H 1.379829 -3.298594 2.534959 0
M  V30 20 H 3.483506 -2.406390 3.598959 0
M  V30 21 H 4.075495 -0.076362 3.141411 0
M  V30 22 H 2.509166 2.338814 2.368319 0
M  V30 23 H -0.388179 2.617401 -1.606549 0
M  V30 24 H -3.367621 1.014560 -2.169849 0
M  V30 25 H -3.976018 -1.290845 -1.732104 0
M  V30 26 H -2.607882 -2.695252 -0.317486 0
M  V30 END ATOM
M  V30 BEGIN BOND
M  V30 1 2 1 2
M  V30 2 1 2 3
M  V30 3 2 3 4
M  V30 4 1 4 5
M  V30 5 2 5 6
M  V30 6 1 6 7
M  V30 7 1 7 8
M  V30 8 2 7 9
M  V30 9 1 9 10
M  V30 10 2 10 11
M  V30 11 1 10 12
M  V30 12 2 12 13
M  V30 13 1 13 14
M  V30 14 1 13 15
M  V30 15 2 15 16
M  V30 16 1 16 17
M  V30 17 2 17 18
M  V30 18 1 18 2
M  V30 19 1 9 3
M  V30 20 1 18 12
M  V30 21 1 4 19
M  V30 22 1 5 20
M  V30 23 1 6 21
M  V30 24 1 8 22
M  V30 25 1 14 23
M  V30 26 1 15 24
M  V30 27 1 16 25
M  V30 28 1 17 26
M  V30 END BOND
M  V30 END CTAB
M  END
>  <Dataset>  (826) 
ChEMBL_Kinases

>  <Ligand_Instance>  (826) 
nan

>  <PDB_ID>  (826) 
nan

>  <Standardized_SMILES>  (826) 
O=C1c2cccc(O)c2C(=O)c2c(O)cccc21

>  <Name>  (826) 
DANTHRON

>  <Pocket>  (826) 
nan

>  <ATP_Site>  (826) 
nan

>  <Peripheral>  (826) 
nan

>  <Num_H_Atoms_ProtBoundConf>  (826) 
nan

>  <Num_Resolved_Atoms>  (826) 
nan

>  <Num_Not_Resolved_Atoms>  (826) 
nan

$$$$
CHEMBL573192
     RDKit          3D

  0  0  0  0  0  0  0  0  0  0999 V3000
M  V30 BEGIN CTAB
M  V30 COUNTS 36 39 0 0 0
M  V30 BEGIN ATOM
M  V30 1 C -1.416982 -4.802733 2.570240 0
M  V30 2 C -0.071257 -4.240963 2.226864 0
M  V30 3 C 1.186781 -4.806888 2.405620 0
M  V30 4 C 2.160531 -3.941826 1.947110 0
M  V30 5 C 1.419459 -2.866785 1.502096 0
M  V30 6 C 2.011162 -1.652881 0.908238 0
M  V30 7 C 3.371356 -1.516909 0.759019 0
M  V30 8 C 3.863613 -0.351739 0.193804 0
M  V30 9 C 3.020305 0.661023 -0.216238 0
M  V30 10 O 3.262121 1.829889 -0.767140 0
M  V30 11 C 2.125424 2.476483 -0.990691 0
M  V30 12 C 1.053235 1.687141 -0.560580 0
M  V30 13 C -0.378820 1.971369 -0.599400 0
M  V30 14 C -0.844802 3.228716 -0.196277 0
M  V30 15 C -2.220831 3.466151 -0.246440 0
M  V30 16 C -3.120084 2.507567 -0.676778 0
M  V30 17 O -4.485516 2.709710 -0.738507 0
M  V30 18 C -2.655600 1.256293 -1.077877 0
M  V30 19 C -1.283053 1.020574 -1.027442 0
M  V30 20 C 1.649907 0.540156 -0.073288 0
M  V30 21 C 1.200748 -0.619841 0.486803 0
M  V30 22 O 0.134511 -3.073855 1.679125 0
M  V30 23 H -2.150554 -4.438563 1.796447 0
M  V30 24 H -1.361877 -5.918483 2.478345 0
M  V30 25 H -1.680688 -4.494931 3.591668 0
M  V30 26 H 1.339292 -5.802106 2.851714 0
M  V30 27 H 3.224169 -4.119673 1.960543 0
M  V30 28 H 4.002568 -2.328383 1.090403 0
M  V30 29 H 4.936163 -0.241280 0.074654 0
M  V30 30 H 1.974253 3.462957 -1.432925 0
M  V30 31 H -0.175712 4.012953 0.149273 0
M  V30 32 H -2.642833 4.422806 0.053669 0
M  V30 33 H -5.071859 2.082527 -0.174725 0
M  V30 34 H -3.339597 0.479606 -1.422190 0
M  V30 35 H -0.971390 0.035437 -1.348567 0
M  V30 36 H 0.149524 -0.760391 0.618413 0
M  V30 END ATOM
M  V30 BEGIN BOND
M  V30 1 1 1 2
M  V30 2 2 2 3
M  V30 3 1 3 4
M  V30 4 2 4 5
M  V30 5 1 5 6
M  V30 6 2 6 7
M  V30 7 1 7 8
M  V30 8 2 8 9
M  V30 9 1 9 10
M  V30 10 1 10 11
M  V30 11 2 11 12
M  V30 12 1 12 13
M  V30 13 2 13 14
M  V30 14 1 14 15
M  V30 15 2 15 16
M  V30 16 1 16 17
M  V30 17 1 16 18
M  V30 18 2 18 19
M  V30 19 1 12 20
M  V30 20 2 20 21
M  V30 21 1 5 22
M  V30 22 1 22 2
M  V30 23 1 21 6
M  V30 24 1 20 9
M  V30 25 1 19 13
M  V30 26 1 1 23
M  V30 27 1 1 24
M  V30 28 1 1 25
M  V30 29 1 3 26
M  V30 30 1 4 27
M  V30 31 1 7 28
M  V30 32 1 8 29
M  V30 33 1 11 30
M  V30 34 1 14 31
M  V30 35 1 15 32
M  V30 36 1 17 33
M  V30 37 1 18 34
M  V30 38 1 19 35
M  V30 39 1 21 36
M  V30 END BOND
M  V30 END CTAB
M  END
>  <Dataset>  (827) 
ChEMBL_Kinases

>  <Ligand_Instance>  (827) 
nan

>  <PDB_ID>  (827) 
nan

>  <Standardized_SMILES>  (827) 
Cc1ccc(-c2ccc3occ(-c4ccc(O)cc4)c3c2)o1

>  <Name>  (827) 
nan

>  <Pocket>  (827) 
nan

>  <ATP_Site>  (827) 
nan

>  <Peripheral>  (827) 
nan

>  <Num_H_Atoms_ProtBoundConf>  (827) 
nan

>  <Num_Resolved_Atoms>  (827) 
nan

>  <Num_Not_Resolved_Atoms>  (827) 
nan

$$$$
CHEMBL573176
     RDKit          3D

  0  0  0  0  0  0  0  0  0  0999 V3000
M  V30 BEGIN CTAB
M  V30 COUNTS 30 33 0 0 0
M  V30 BEGIN ATOM
M  V30 1 N -2.304782 -5.640067 0.770156 0
M  V30 2 C -1.369718 -4.645032 0.375101 0
M  V30 3 O -0.602449 -5.086561 -0.530357 0
M  V30 4 C -1.353418 -3.314548 0.974986 0
M  V30 5 C -2.139535 -2.735797 1.960889 0
M  V30 6 N -1.676683 -1.480547 2.117927 0
M  V30 7 C -0.646630 -1.239492 1.287915 0
M  V30 8 C -0.422600 -2.386000 0.553364 0
M  V30 9 C 0.594358 -2.330851 -0.350524 0
M  V30 10 C 1.391198 -1.226714 -0.568500 0
M  V30 11 C 1.129281 -0.091657 0.195386 0
M  V30 12 C 1.671172 1.175424 0.285723 0
M  V30 13 C 2.721240 1.718074 -0.423101 0
M  V30 14 C 3.158206 3.015734 -0.222716 0
M  V30 15 C 2.450022 3.726090 0.752742 0
M  V30 16 C 1.391234 3.214847 1.484048 0
M  V30 17 C 1.002079 1.914283 1.238630 0
M  V30 18 N 0.041562 1.122323 1.750430 0
M  V30 19 C 0.102524 -0.088942 1.134965 0
M  V30 20 H -3.024320 -5.817039 1.513835 0
M  V30 21 H -3.032184 -5.881046 1.475606 0
M  V30 22 H -2.940357 -3.263825 2.448788 0
M  V30 23 H -2.154526 -0.868117 2.837664 0
M  V30 24 H 0.772671 -3.239837 -0.933526 0
M  V30 25 H 2.195208 -1.194261 -1.288268 0
M  V30 26 H 3.281133 1.168429 -1.188766 0
M  V30 27 H 3.975644 3.487346 -0.751775 0
M  V30 28 H 2.733315 4.761356 0.972297 0
M  V30 29 H 0.898789 3.821489 2.214408 0
M  V30 30 H -0.639560 1.387799 2.495575 0
M  V30 END ATOM
M  V30 BEGIN BOND
M  V30 1 1 1 2
M  V30 2 2 2 3
M  V30 3 1 2 4
M  V30 4 2 4 5
M  V30 5 1 5 6
M  V30 6 1 6 7
M  V30 7 2 7 8
M  V30 8 1 8 9
M  V30 9 2 9 10
M  V30 10 1 10 11
M  V30 11 1 11 12
M  V30 12 2 12 13
M  V30 13 1 13 14
M  V30 14 2 14 15
M  V30 15 1 15 16
M  V30 16 2 16 17
M  V30 17 1 17 18
M  V30 18 1 18 19
M  V30 19 1 8 4
M  V30 20 2 19 11
M  V30 21 1 19 7
M  V30 22 1 17 12
M  V30 23 1 1 20
M  V30 24 1 1 21
M  V30 25 1 5 22
M  V30 26 1 6 23
M  V30 27 1 9 24
M  V30 28 1 10 25
M  V30 29 1 13 26
M  V30 30 1 14 27
M  V30 31 1 15 28
M  V30 32 1 16 29
M  V30 33 1 18 30
M  V30 END BOND
M  V30 END CTAB
M  END
>  <Dataset>  (828) 
ChEMBL_Kinases

>  <Ligand_Instance>  (828) 
nan

>  <PDB_ID>  (828) 
nan

>  <Standardized_SMILES>  (828) 
NC(=O)c1c[nH]c2c1ccc1c3ccccc3[nH]c12

>  <Name>  (828) 
nan

>  <Pocket>  (828) 
nan

>  <ATP_Site>  (828) 
nan

>  <Peripheral>  (828) 
nan

>  <Num_H_Atoms_ProtBoundConf>  (828) 
nan

>  <Num_Resolved_Atoms>  (828) 
nan

>  <Num_Not_Resolved_Atoms>  (828) 
nan

$$$$
CHEMBL573108
     RDKit          3D

  0  0  0  0  0  0  0  0  0  0999 V3000
M  V30 BEGIN CTAB
M  V30 COUNTS 66 68 0 0 0
M  V30 BEGIN ATOM
M  V30 1 C 4.598194 0.861428 2.833692 0
M  V30 2 C 5.139028 0.239502 1.588755 0
M  V30 3 C 4.807883 -1.253011 1.647337 0
M  V30 4 C 6.614367 0.347946 1.547479 0
M  V30 5 N 7.164151 -0.336053 2.676355 0
M  V30 6 O 7.425357 0.907236 0.737943 0
M  V30 7 C 4.586012 0.835106 0.349624 0
M  V30 8 O 5.351494 1.415461 -0.483925 0
M  V30 9 N 3.183509 0.771288 0.064813 0
M  V30 10 C 2.624304 1.350198 -1.138541 0
M  V30 11 C 1.140553 1.101313 -1.144281 0
M  V30 12 C 0.448697 1.708703 0.042352 0
M  V30 13 N -0.998031 1.448695 0.006718 0
M  V30 14 C -1.549471 2.131729 1.120150 0
M  V30 15 N -2.804952 1.652551 0.737432 0
M  V30 16 C -4.022067 1.799471 1.242848 0
M  V30 17 N -5.298435 1.236222 0.780323 0
M  V30 18 C -5.328692 0.252220 -0.246197 0
M  V30 19 C -6.486601 0.058404 -1.005902 0
M  V30 20 C -6.533663 -0.903903 -1.990762 0
M  V30 21 C -5.468258 -1.724547 -2.289469 0
M  V30 22 C -4.310801 -1.567859 -1.564804 0
M  V30 23 N -3.031876 -2.241159 -1.602664 0
M  V30 24 C -3.152901 -3.363302 -0.716160 0
M  V30 25 O -4.128173 -3.758502 -0.031159 0
M  V30 26 N -2.037710 -4.243519 -0.501317 0
M  V30 27 C -1.989207 -5.424229 0.341536 0
M  V30 28 C -0.795691 -5.088462 1.230556 0
M  V30 29 C 0.036745 -4.108169 0.402786 0
M  V30 30 C -0.639676 -4.317714 -0.965776 0
M  V30 31 C -4.267410 -0.586772 -0.563630 0
M  V30 32 N -4.169915 2.555214 2.361691 0
M  V30 33 C -3.089639 3.125250 2.918653 0
M  V30 34 C -2.057124 2.757670 2.141042 0
M  V30 35 Br -0.213604 3.353326 2.550104 0
M  V30 36 H 4.628784 1.971496 2.826149 0
M  V30 37 H 3.605405 0.467913 3.052447 0
M  V30 38 H 5.264938 0.538073 3.676049 0
M  V30 39 H 5.330567 -1.655986 2.530694 0
M  V30 40 H 3.693317 -1.407295 1.689502 0
M  V30 41 H 5.228165 -1.715385 0.724215 0
M  V30 42 H 7.566194 -1.081945 3.314871 0
M  V30 43 H 7.373095 0.095997 3.628333 0
M  V30 44 H 2.614881 0.276576 0.789461 0
M  V30 45 H 3.113320 0.910162 -2.055195 0
M  V30 46 H 2.808680 2.445537 -1.238022 0
M  V30 47 H 0.758600 1.600684 -2.069018 0
M  V30 48 H 0.900531 0.010513 -1.169001 0
M  V30 49 H 0.836717 1.245374 0.994669 0
M  V30 50 H 0.658229 2.789428 0.153198 0
M  V30 51 H -1.150739 0.861233 -0.801925 0
M  V30 52 H -6.186217 1.550937 1.199040 0
M  V30 53 H -7.381719 0.649883 -0.848014 0
M  V30 54 H -7.407451 -1.102278 -2.616356 0
M  V30 55 H -5.349930 -2.510073 -3.014687 0
M  V30 56 H -2.118771 -2.107409 -2.087127 0
M  V30 57 H -2.912384 -5.564424 0.940793 0
M  V30 58 H -1.723219 -6.304944 -0.283023 0
M  V30 59 H -1.100027 -4.633061 2.187323 0
M  V30 60 H -0.164145 -5.984429 1.382025 0
M  V30 61 H 1.099636 -4.334242 0.387495 0
M  V30 62 H -0.213317 -3.075979 0.740996 0
M  V30 63 H -0.420647 -3.512524 -1.670878 0
M  V30 64 H -0.357314 -5.315790 -1.305487 0
M  V30 65 H -3.402903 -0.416887 0.054617 0
M  V30 66 H -2.781894 3.742813 3.726490 0
M  V30 END ATOM
M  V30 BEGIN BOND
M  V30 1 1 1 2
M  V30 2 1 2 3
M  V30 3 1 2 4
M  V30 4 1 4 5
M  V30 5 2 4 6
M  V30 6 1 2 7
M  V30 7 2 7 8
M  V30 8 1 7 9
M  V30 9 1 9 10
M  V30 10 1 10 11
M  V30 11 1 11 12
M  V30 12 1 12 13
M  V30 13 1 13 14
M  V30 14 2 14 15
M  V30 15 1 15 16
M  V30 16 1 16 17
M  V30 17 1 17 18
M  V30 18 2 18 19
M  V30 19 1 19 20
M  V30 20 2 20 21
M  V30 21 1 21 22
M  V30 22 1 22 23
M  V30 23 1 23 24
M  V30 24 2 24 25
M  V30 25 1 24 26
M  V30 26 1 26 27
M  V30 27 1 27 28
M  V30 28 1 28 29
M  V30 29 1 29 30
M  V30 30 2 22 31
M  V30 31 2 16 32
M  V30 32 1 32 33
M  V30 33 2 33 34
M  V30 34 1 34 35
M  V30 35 1 34 14
M  V30 36 1 31 18
M  V30 37 1 30 26
M  V30 38 1 1 36
M  V30 39 1 1 37
M  V30 40 1 1 38
M  V30 41 1 3 39
M  V30 42 1 3 40
M  V30 43 1 3 41
M  V30 44 1 5 42
M  V30 45 1 5 43
M  V30 46 1 9 44
M  V30 47 1 10 45
M  V30 48 1 10 46
M  V30 49 1 11 47
M  V30 50 1 11 48
M  V30 51 1 12 49
M  V30 52 1 12 50
M  V30 53 1 13 51
M  V30 54 1 17 52
M  V30 55 1 19 53
M  V30 56 1 20 54
M  V30 57 1 21 55
M  V30 58 1 23 56
M  V30 59 1 27 57
M  V30 60 1 27 58
M  V30 61 1 28 59
M  V30 62 1 28 60
M  V30 63 1 29 61
M  V30 64 1 29 62
M  V30 65 1 30 63
M  V30 66 1 30 64
M  V30 67 1 31 65
M  V30 68 1 33 66
M  V30 END BOND
M  V30 END CTAB
M  END
>  <Dataset>  (829) 
ChEMBL_Kinases

>  <Ligand_Instance>  (829) 
nan

>  <PDB_ID>  (829) 
nan

>  <Standardized_SMILES>  (829) 
CC(C)(C(N)=O)C(=O)NCCCNc1nc(Nc2cccc(NC(=O)N3CCCC3)c2)ncc1Br

>  <Name>  (829) 
nan

>  <Pocket>  (829) 
nan

>  <ATP_Site>  (829) 
nan

>  <Peripheral>  (829) 
nan

>  <Num_H_Atoms_ProtBoundConf>  (829) 
nan

>  <Num_Resolved_Atoms>  (829) 
nan

>  <Num_Not_Resolved_Atoms>  (829) 
nan

$$$$
CHEMBL537445
     RDKit          3D

  0  0  0  0  0  0  0  0  0  0999 V3000
M  V30 BEGIN CTAB
M  V30 COUNTS 43 44 0 0 0
M  V30 BEGIN ATOM
M  V30 1 C 1.879380 -3.515518 1.008083 0
M  V30 2 C 1.279253 -2.254685 0.295981 0
M  V30 3 C 2.024725 -2.147493 -0.965026 0
M  V30 4 C 1.712886 -1.090527 -1.909746 0
M  V30 5 C 0.649986 -1.420526 -2.774543 0
M  V30 6 C 0.165745 -0.614625 -3.778300 0
M  V30 7 C 0.743077 0.617997 -3.980468 0
M  V30 8 O 0.317308 1.482440 -4.962683 0
M  V30 9 C 1.787089 0.995657 -3.165453 0
M  V30 10 C 2.244289 0.160070 -2.169590 0
M  V30 11 N 1.300053 -1.272591 1.278138 0
M  V30 12 C 0.882053 0.044022 1.091081 0
M  V30 13 C 0.896037 0.808582 2.432162 0
M  V30 14 O 2.147288 0.831578 3.007582 0
M  V30 15 C -0.211491 0.445170 3.308535 0
M  V30 16 C -0.235301 -0.569281 4.273444 0
M  V30 17 C -1.355371 -0.820181 5.034665 0
M  V30 18 O -1.307334 -1.858619 5.988124 0
M  V30 19 C -2.532083 -0.096717 4.907377 0
M  V30 20 C -2.577888 0.918413 3.975129 0
M  V30 21 O -3.689542 1.715368 3.748311 0
M  V30 22 C -1.433197 1.128917 3.239841 0
M  V30 23 H 2.941278 -3.248978 1.170438 0
M  V30 24 H 1.714784 -4.357422 0.336586 0
M  V30 25 H 1.388847 -3.559514 1.983817 0
M  V30 26 H 0.207230 -2.587130 0.156579 0
M  V30 27 H 1.956351 -3.137653 -1.516558 0
M  V30 28 H 3.138526 -2.108105 -0.711435 0
M  V30 29 H 0.100384 -2.374496 -2.719635 0
M  V30 30 H -0.650133 -0.881396 -4.431924 0
M  V30 31 H -0.541535 2.013304 -4.857724 0
M  V30 32 H 2.320662 1.957313 -3.240694 0
M  V30 33 H 3.065453 0.360652 -1.468336 0
M  V30 34 H 1.536866 -1.563740 2.240997 0
M  V30 35 H 1.698941 0.582829 0.515310 0
M  V30 36 H -0.039003 0.249523 0.552628 0
M  V30 37 H 0.703347 1.889357 2.126367 0
M  V30 38 H 2.346547 1.647551 3.520821 0
M  V30 39 H 0.648178 -1.141613 4.402112 0
M  V30 40 H -1.883335 -2.670136 5.714948 0
M  V30 41 H -3.389728 -0.295403 5.496898 0
M  V30 42 H -4.510662 1.417069 3.240172 0
M  V30 43 H -1.464992 1.941156 2.494780 0
M  V30 END ATOM
M  V30 BEGIN BOND
M  V30 1 1 1 2
M  V30 2 1 2 3
M  V30 3 1 3 4
M  V30 4 2 4 5
M  V30 5 1 5 6
M  V30 6 2 6 7
M  V30 7 1 7 8
M  V30 8 1 7 9
M  V30 9 2 9 10
M  V30 10 1 2 11
M  V30 11 1 11 12
M  V30 12 1 12 13
M  V30 13 1 13 14
M  V30 14 1 13 15
M  V30 15 2 15 16
M  V30 16 1 16 17
M  V30 17 1 17 18
M  V30 18 2 17 19
M  V30 19 1 19 20
M  V30 20 1 20 21
M  V30 21 2 20 22
M  V30 22 1 10 4
M  V30 23 1 22 15
M  V30 24 1 1 23
M  V30 25 1 1 24
M  V30 26 1 1 25
M  V30 27 1 2 26
M  V30 28 1 3 27
M  V30 29 1 3 28
M  V30 30 1 5 29
M  V30 31 1 6 30
M  V30 32 1 8 31
M  V30 33 1 9 32
M  V30 34 1 10 33
M  V30 35 1 11 34
M  V30 36 1 12 35
M  V30 37 1 12 36
M  V30 38 1 13 37
M  V30 39 1 14 38
M  V30 40 1 16 39
M  V30 41 1 18 40
M  V30 42 1 19 41
M  V30 43 1 21 42
M  V30 44 1 22 43
M  V30 END BOND
M  V30 END CTAB
M  END
>  <Dataset>  (830) 
ChEMBL_Kinases

>  <Ligand_Instance>  (830) 
nan

>  <PDB_ID>  (830) 
nan

>  <Standardized_SMILES>  (830) 
CC(Cc1ccc(O)cc1)NCC(O)c1cc(O)cc(O)c1

>  <Name>  (830) 
FENOTEROL HBR

>  <Pocket>  (830) 
nan

>  <ATP_Site>  (830) 
nan

>  <Peripheral>  (830) 
nan

>  <Num_H_Atoms_ProtBoundConf>  (830) 
nan

>  <Num_Resolved_Atoms>  (830) 
nan

>  <Num_Not_Resolved_Atoms>  (830) 
nan

$$$$
CHEMBL370827
     RDKit          3D

  0  0  0  0  0  0  0  0  0  0999 V3000
M  V30 BEGIN CTAB
M  V30 COUNTS 65 69 0 0 0
M  V30 BEGIN ATOM
M  V30 1 C 5.391389 1.102703 5.190763 0
M  V30 2 C 3.980259 1.141780 4.772924 0
M  V30 3 O 3.059673 1.441959 5.579709 0
M  V30 4 N 3.697270 0.821204 3.398771 0
M  V30 5 C 4.646888 0.454575 2.339485 0
M  V30 6 C 3.896966 -0.628632 1.614028 0 CFG=2
M  V30 7 O 3.946569 -0.420359 0.232128 0
M  V30 8 C 2.467978 -0.607675 2.116783 0
M  V30 9 C 2.384377 0.786217 2.734471 0
M  V30 10 C 2.305369 1.806270 1.639274 0
M  V30 11 N 1.044965 1.791620 0.990073 0
M  V30 12 C 0.887327 2.703253 -0.089459 0
M  V30 13 C -0.096127 2.044740 -1.061569 0
M  V30 14 C -1.406036 1.798906 -0.368003 0
M  V30 15 C -1.934570 0.442158 -0.698531 0
M  V30 16 C -3.092724 0.179009 -1.397821 0
M  V30 17 C -3.296429 -1.196879 -1.538612 0
M  V30 18 C -4.421913 -1.818718 -2.224320 0
M  V30 19 C -5.406101 -2.640064 -1.725317 0
M  V30 20 C -6.385640 -3.119554 -2.567628 0
M  V30 21 N -6.391981 -2.790651 -3.888069 0
M  V30 22 C -5.443295 -1.991445 -4.398814 0
M  V30 23 C -4.449330 -1.497672 -3.572987 0
M  V30 24 C -2.202366 -1.753237 -0.888699 0
M  V30 25 C -1.985176 -3.188461 -0.776858 0
M  V30 26 C -1.782203 -4.084847 -1.799406 0
M  V30 27 C -1.588652 -5.431329 -1.530775 0
M  V30 28 C -1.599578 -5.874673 -0.231894 0
M  V30 29 F -1.400437 -7.207130 -0.087741 0
M  V30 30 C -1.802341 -4.993358 0.825628 0
M  V30 31 C -1.992064 -3.664434 0.538605 0
M  V30 32 N -1.429575 -0.765119 -0.411315 0
M  V30 33 C -1.324762 2.073232 1.100615 0
M  V30 34 C -0.091796 1.544333 1.783012 0
M  V30 35 H 5.892445 0.133953 5.058026 0
M  V30 36 H 6.026986 1.864857 4.672745 0
M  V30 37 H 5.456334 1.391751 6.272773 0
M  V30 38 H 5.607499 0.079783 2.770571 0
M  V30 39 H 4.903909 1.327868 1.714112 0
M  V30 40 H 4.286872 -1.643624 1.859968 0
M  V30 41 H 4.437158 -1.158645 -0.173485 0
M  V30 42 H 1.734831 -0.728610 1.319639 0
M  V30 43 H 2.285225 -1.344817 2.927990 0
M  V30 44 H 1.560883 0.892681 3.435005 0
M  V30 45 H 3.079953 1.654335 0.861988 0
M  V30 46 H 2.572387 2.799640 2.100090 0
M  V30 47 H 0.475881 3.656021 0.242859 0
M  V30 48 H 1.825137 2.880191 -0.642994 0
M  V30 49 H 0.349840 1.066453 -1.350299 0
M  V30 50 H -0.241053 2.679069 -1.943331 0
M  V30 51 H -2.159176 2.503028 -0.838128 0
M  V30 52 H -3.794772 0.897289 -1.810246 0
M  V30 53 H -5.301887 -2.833488 -0.667396 0
M  V30 54 H -7.134330 -3.757839 -2.133911 0
M  V30 55 H -5.502773 -1.770030 -5.443507 0
M  V30 56 H -3.730273 -0.860238 -4.087204 0
M  V30 57 H -1.801689 -3.575124 -2.768601 0
M  V30 58 H -1.439036 -6.042982 -2.405117 0
M  V30 59 H -1.789773 -5.454126 1.790375 0
M  V30 60 H -2.140401 -3.062808 1.424919 0
M  V30 61 H -0.552278 -0.956292 0.111971 0
M  V30 62 H -2.188075 1.593607 1.653103 0
M  V30 63 H -1.398684 3.174436 1.282890 0
M  V30 64 H 0.022800 2.045009 2.784449 0
M  V30 65 H -0.210937 0.483120 1.987084 0
M  V30 END ATOM
M  V30 BEGIN BOND
M  V30 1 1 1 2
M  V30 2 2 2 3
M  V30 3 1 2 4
M  V30 4 1 4 5
M  V30 5 1 5 6
M  V30 6 1 6 7
M  V30 7 1 6 8
M  V30 8 1 8 9
M  V30 9 1 9 10
M  V30 10 1 10 11
M  V30 11 1 11 12
M  V30 12 1 12 13
M  V30 13 1 13 14
M  V30 14 1 14 15
M  V30 15 2 15 16
M  V30 16 1 16 17
M  V30 17 1 17 18
M  V30 18 2 18 19
M  V30 19 1 19 20
M  V30 20 2 20 21
M  V30 21 1 21 22
M  V30 22 2 22 23
M  V30 23 2 17 24
M  V30 24 1 24 25
M  V30 25 2 25 26
M  V30 26 1 26 27
M  V30 27 2 27 28
M  V30 28 1 28 29
M  V30 29 1 28 30
M  V30 30 2 30 31
M  V30 31 1 24 32
M  V30 32 1 14 33
M  V30 33 1 33 34
M  V30 34 1 9 4
M  V30 35 1 34 11
M  V30 36 1 32 15
M  V30 37 1 23 18
M  V30 38 1 31 25
M  V30 39 1 1 35
M  V30 40 1 1 36
M  V30 41 1 1 37
M  V30 42 1 5 38
M  V30 43 1 5 39
M  V30 44 1 6 40 CFG=3
M  V30 45 1 7 41
M  V30 46 1 8 42
M  V30 47 1 8 43
M  V30 48 1 9 44
M  V30 49 1 10 45
M  V30 50 1 10 46
M  V30 51 1 12 47
M  V30 52 1 12 48
M  V30 53 1 13 49
M  V30 54 1 13 50
M  V30 55 1 14 51
M  V30 56 1 16 52
M  V30 57 1 19 53
M  V30 58 1 20 54
M  V30 59 1 22 55
M  V30 60 1 23 56
M  V30 61 1 26 57
M  V30 62 1 27 58
M  V30 63 1 30 59
M  V30 64 1 31 60
M  V30 65 1 32 61
M  V30 66 1 33 62
M  V30 67 1 33 63
M  V30 68 1 34 64
M  V30 69 1 34 65
M  V30 END BOND
M  V30 END CTAB
M  END
>  <Dataset>  (831) 
ChEMBL_Kinases

>  <Ligand_Instance>  (831) 
nan

>  <PDB_ID>  (831) 
nan

>  <Standardized_SMILES>  (831) 
CC(=O)N1C[C@H](O)CC1CN1CCC(c2cc(-c3ccncc3)c(-c3ccc(F)cc3)[nH]2)CC1

>  <Name>  (831) 
nan

>  <Pocket>  (831) 
nan

>  <ATP_Site>  (831) 
nan

>  <Peripheral>  (831) 
nan

>  <Num_H_Atoms_ProtBoundConf>  (831) 
nan

>  <Num_Resolved_Atoms>  (831) 
nan

>  <Num_Not_Resolved_Atoms>  (831) 
nan

$$$$
CHEMBL53745
     RDKit          3D

  0  0  0  0  0  0  0  0  0  0999 V3000
M  V30 BEGIN CTAB
M  V30 COUNTS 34 37 0 0 0
M  V30 BEGIN ATOM
M  V30 1 C -3.254180 -1.345124 1.588140 0
M  V30 2 N -2.130467 -0.659407 1.014598 0
M  V30 3 C -0.826733 -0.645364 1.417209 0
M  V30 4 C -0.080638 0.162222 0.554117 0
M  V30 5 C 1.346762 0.362840 0.725615 0
M  V30 6 C 2.299946 -0.529402 1.016278 0
M  V30 7 C 2.026309 -1.921911 1.214763 0
M  V30 8 C 2.671460 -2.652556 2.145153 0
M  V30 9 C 2.544329 -3.940500 2.460540 0
M  V30 10 C 1.526696 -4.550552 1.607804 0
M  V30 11 S 0.940541 -3.105216 0.490396 0
M  V30 12 C 3.600501 0.116494 1.101778 0
M  V30 13 O 4.687593 -0.464681 1.360523 0
M  V30 14 N 3.375543 1.498412 0.838938 0
M  V30 15 C 1.964616 1.675339 0.600405 0
M  V30 16 O 1.597545 2.844501 0.353118 0
M  V30 17 C -1.010341 0.607267 -0.356154 0
M  V30 18 C -0.817601 1.429605 -1.427454 0
M  V30 19 C -1.832519 1.802623 -2.273214 0
M  V30 20 C -3.108565 1.313300 -2.014239 0
M  V30 21 C -3.288235 0.475098 -0.917923 0
M  V30 22 C -2.251879 0.119969 -0.090966 0
M  V30 23 H -3.601490 -2.123309 0.867505 0
M  V30 24 H -3.074675 -1.712291 2.603856 0
M  V30 25 H -4.088655 -0.603231 1.660312 0
M  V30 26 H -0.513203 -1.217303 2.299235 0
M  V30 27 H 3.451912 -2.334761 2.850817 0
M  V30 28 H 2.718921 -4.859608 2.962327 0
M  V30 29 H 0.797927 -5.405171 1.142794 0
M  V30 30 H 4.185117 2.167849 0.849199 0
M  V30 31 H 0.142325 1.832217 -1.681903 0
M  V30 32 H -1.758621 2.455055 -3.146999 0
M  V30 33 H -3.961804 1.574392 -2.648196 0
M  V30 34 H -4.280041 0.089718 -0.710129 0
M  V30 END ATOM
M  V30 BEGIN BOND
M  V30 1 1 1 2
M  V30 2 1 2 3
M  V30 3 2 3 4
M  V30 4 1 4 5
M  V30 5 2 5 6
M  V30 6 1 6 7
M  V30 7 2 7 8
M  V30 8 1 8 9
M  V30 9 2 9 10
M  V30 10 1 10 11
M  V30 11 1 6 12
M  V30 12 2 12 13
M  V30 13 1 12 14
M  V30 14 1 14 15
M  V30 15 2 15 16
M  V30 16 1 4 17
M  V30 17 2 17 18
M  V30 18 1 18 19
M  V30 19 2 19 20
M  V30 20 1 20 21
M  V30 21 2 21 22
M  V30 22 1 22 2
M  V30 23 1 15 5
M  V30 24 1 22 17
M  V30 25 1 11 7
M  V30 26 1 1 23
M  V30 27 1 1 24
M  V30 28 1 1 25
M  V30 29 1 3 26
M  V30 30 1 8 27
M  V30 31 1 9 28
M  V30 32 1 10 29
M  V30 33 1 14 30
M  V30 34 1 18 31
M  V30 35 1 19 32
M  V30 36 1 20 33
M  V30 37 1 21 34
M  V30 END BOND
M  V30 END CTAB
M  END
>  <Dataset>  (832) 
ChEMBL_Kinases

>  <Ligand_Instance>  (832) 
nan

>  <PDB_ID>  (832) 
nan

>  <Standardized_SMILES>  (832) 
Cn1cc(C2=C(c3cccs3)C(=O)NC2=O)c2ccccc21

>  <Name>  (832) 
nan

>  <Pocket>  (832) 
nan

>  <ATP_Site>  (832) 
nan

>  <Peripheral>  (832) 
nan

>  <Num_H_Atoms_ProtBoundConf>  (832) 
nan

>  <Num_Resolved_Atoms>  (832) 
nan

>  <Num_Not_Resolved_Atoms>  (832) 
nan

$$$$
CHEMBL537757
     RDKit          3D

  0  0  0  0  0  0  0  0  0  0999 V3000
M  V30 BEGIN CTAB
M  V30 COUNTS 54 58 0 0 0
M  V30 BEGIN ATOM
M  V30 1 C -2.006304 -1.711620 2.514443 0
M  V30 2 O -2.013576 -2.591990 1.441011 0
M  V30 3 C -0.955704 -3.043137 0.697277 0
M  V30 4 C 0.374003 -2.698764 0.876057 0
M  V30 5 C 1.438871 -3.152203 0.130044 0
M  V30 6 N 2.717174 -2.662977 0.439904 0
M  V30 7 C 2.970203 -1.361660 0.979795 0
M  V30 8 N 4.153913 -0.949874 1.460764 0
M  V30 9 C 4.392449 0.284831 1.926474 0
M  V30 10 C 3.370156 1.213602 1.921760 0
M  V30 11 C 3.350175 2.527346 2.328010 0
M  V30 12 C 4.482188 3.265195 2.898072 0
M  V30 13 N 2.096330 2.928596 2.079833 0
M  V30 14 C 1.389738 1.906476 1.548752 0
M  V30 15 C -0.006659 2.006957 1.147079 0
M  V30 16 C -0.777012 1.003569 0.594900 0
M  V30 17 C -2.060772 1.435090 0.324873 0
M  V30 18 C -3.108647 0.714129 -0.227185 0
M  V30 19 C -4.299344 1.401049 -0.389684 0
M  V30 20 C -4.375485 2.738208 -0.000463 0
M  V30 21 C -3.277698 3.397212 0.548848 0
M  V30 22 C -2.067933 2.742763 0.726961 0
M  V30 23 N -0.837776 3.053560 1.209184 0
M  V30 24 N 2.170846 0.818300 1.441078 0
M  V30 25 N 2.021830 -0.414098 1.003720 0
M  V30 26 C 1.138894 -4.031963 -0.888031 0
M  V30 27 C -0.176212 -4.417933 -1.121169 0
M  V30 28 O -0.464527 -5.307672 -2.157060 0
M  V30 29 C 0.468790 -5.870084 -3.021491 0
M  V30 30 C -1.215292 -3.939846 -0.349736 0
M  V30 31 O -2.561176 -4.302822 -0.547829 0
M  V30 32 C -3.427232 -3.536215 -1.360772 0
M  V30 33 H -2.865403 -0.991478 2.363797 0
M  V30 34 H -2.292348 -2.227813 3.478292 0
M  V30 35 H -1.107061 -1.106982 2.625473 0
M  V30 36 H 0.468209 -2.003753 1.719717 0
M  V30 37 H 3.578433 -3.232243 0.292852 0
M  V30 38 H 5.392089 0.495539 2.289737 0
M  V30 39 H 5.050824 2.630514 3.590646 0
M  V30 40 H 4.165019 4.176895 3.447868 0
M  V30 41 H 5.214370 3.543793 2.089908 0
M  V30 42 H -0.392183 0.016921 0.408608 0
M  V30 43 H -2.996502 -0.317296 -0.510622 0
M  V30 44 H -5.116783 0.843579 -0.818701 0
M  V30 45 H -5.324612 3.233592 -0.144852 0
M  V30 46 H -3.343460 4.436884 0.848100 0
M  V30 47 H -0.602412 4.005283 1.577210 0
M  V30 48 H 1.948674 -4.403990 -1.487367 0
M  V30 49 H 1.291275 -6.371366 -2.481822 0
M  V30 50 H 0.865343 -5.152077 -3.773318 0
M  V30 51 H -0.059548 -6.665540 -3.602551 0
M  V30 52 H -3.927779 -4.138592 -2.134281 0
M  V30 53 H -4.156226 -2.998055 -0.708058 0
M  V30 54 H -2.803174 -2.741289 -1.837356 0
M  V30 END ATOM
M  V30 BEGIN BOND
M  V30 1 1 1 2
M  V30 2 1 2 3
M  V30 3 2 3 4
M  V30 4 1 4 5
M  V30 5 1 5 6
M  V30 6 1 6 7
M  V30 7 1 7 8
M  V30 8 2 8 9
M  V30 9 1 9 10
M  V30 10 2 10 11
M  V30 11 1 11 12
M  V30 12 1 11 13
M  V30 13 2 13 14
M  V30 14 1 14 15
M  V30 15 2 15 16
M  V30 16 1 16 17
M  V30 17 2 17 18
M  V30 18 1 18 19
M  V30 19 2 19 20
M  V30 20 1 20 21
M  V30 21 2 21 22
M  V30 22 1 22 23
M  V30 23 1 14 24
M  V30 24 1 24 25
M  V30 25 2 5 26
M  V30 26 1 26 27
M  V30 27 1 27 28
M  V30 28 1 28 29
M  V30 29 2 27 30
M  V30 30 1 30 31
M  V30 31 1 31 32
M  V30 32 1 30 3
M  V30 33 2 25 7
M  V30 34 1 24 10
M  V30 35 1 23 15
M  V30 36 1 22 17
M  V30 37 1 1 33
M  V30 38 1 1 34
M  V30 39 1 1 35
M  V30 40 1 4 36
M  V30 41 1 6 37
M  V30 42 1 9 38
M  V30 43 1 12 39
M  V30 44 1 12 40
M  V30 45 1 12 41
M  V30 46 1 16 42
M  V30 47 1 18 43
M  V30 48 1 19 44
M  V30 49 1 20 45
M  V30 50 1 21 46
M  V30 51 1 23 47
M  V30 52 1 26 48
M  V30 53 1 29 49
M  V30 54 1 29 50
M  V30 55 1 29 51
M  V30 56 1 32 52
M  V30 57 1 32 53
M  V30 58 1 32 54
M  V30 END BOND
M  V30 END CTAB
M  END
>  <Dataset>  (833) 
ChEMBL_Kinases

>  <Ligand_Instance>  (833) 
nan

>  <PDB_ID>  (833) 
nan

>  <Standardized_SMILES>  (833) 
COc1cc(Nc2ncc3c(C)nc(-c4cc5ccccc5[nH]4)n3n2)cc(OC)c1OC

>  <Name>  (833) 
nan

>  <Pocket>  (833) 
nan

>  <ATP_Site>  (833) 
nan

>  <Peripheral>  (833) 
nan

>  <Num_H_Atoms_ProtBoundConf>  (833) 
nan

>  <Num_Resolved_Atoms>  (833) 
nan

>  <Num_Not_Resolved_Atoms>  (833) 
nan

$$$$
CHEMBL537968
     RDKit          3D

  0  0  0  0  0  0  0  0  0  0999 V3000
M  V30 BEGIN CTAB
M  V30 COUNTS 43 47 0 0 0
M  V30 BEGIN ATOM
M  V30 1 C 0.410635 -7.006123 0.092522 0
M  V30 2 C 0.820308 -5.699595 -0.464132 0
M  V30 3 C 1.780546 -5.537419 -1.444737 0
M  V30 4 C 2.142772 -4.294879 -1.946318 0
M  V30 5 C 1.510932 -3.176339 -1.437177 0
M  V30 6 C 0.552625 -3.335571 -0.458541 0
M  V30 7 C -0.134597 -2.181277 0.103161 0
M  V30 8 N 0.128878 -0.921709 -0.294229 0
M  V30 9 C -0.519779 0.140865 0.240778 0
M  V30 10 N -0.307888 1.485148 -0.115109 0
M  V30 11 C 0.690621 2.177902 0.589965 0
M  V30 12 C 1.439876 1.524160 1.572369 0
M  V30 13 C 2.430312 2.203741 2.274114 0
M  V30 14 C 2.682153 3.532247 2.005785 0
M  V30 15 N 3.551762 4.431672 2.504978 0
M  V30 16 N 3.400057 5.619406 1.898119 0
M  V30 17 C 2.413262 5.527036 0.972822 0
M  V30 18 C 1.971497 4.223954 1.046312 0
M  V30 19 C 0.995575 3.518124 0.368820 0
M  V30 20 C -1.478268 -0.035730 1.217153 0
M  V30 21 C -2.185923 0.966312 1.817238 0
M  V30 22 C -3.136663 0.772818 2.787277 0
M  V30 23 C -3.379052 -0.523317 3.167211 0
M  V30 24 C -2.705364 -1.613726 2.610523 0
M  V30 25 C -1.752995 -1.344394 1.630787 0
M  V30 26 N -1.069364 -2.346189 1.054495 0
M  V30 27 N 0.247076 -4.569447 -0.015174 0
M  V30 28 H 1.298493 -7.679919 0.261221 0
M  V30 29 H -0.258205 -7.550419 -0.605982 0
M  V30 30 H -0.055394 -6.828415 1.093563 0
M  V30 31 H 2.263712 -6.445204 -1.827747 0
M  V30 32 H 2.915830 -4.241024 -2.727781 0
M  V30 33 H 1.770898 -2.191734 -1.807853 0
M  V30 34 H -0.821892 2.015772 -0.852275 0
M  V30 35 H 1.262889 0.466476 1.808787 0
M  V30 36 H 3.003286 1.666790 3.038972 0
M  V30 37 H 4.253763 4.261289 3.254011 0
M  V30 38 H 2.053739 6.322302 0.314981 0
M  V30 39 H 0.433792 4.075201 -0.393166 0
M  V30 40 H -1.957037 1.965684 1.481908 0
M  V30 41 H -3.657259 1.616889 3.217369 0
M  V30 42 H -4.110442 -0.750127 3.921455 0
M  V30 43 H -2.920200 -2.620616 2.932312 0
M  V30 END ATOM
M  V30 BEGIN BOND
M  V30 1 1 1 2
M  V30 2 2 2 3
M  V30 3 1 3 4
M  V30 4 2 4 5
M  V30 5 1 5 6
M  V30 6 1 6 7
M  V30 7 2 7 8
M  V30 8 1 8 9
M  V30 9 1 9 10
M  V30 10 1 10 11
M  V30 11 2 11 12
M  V30 12 1 12 13
M  V30 13 2 13 14
M  V30 14 1 14 15
M  V30 15 1 15 16
M  V30 16 2 16 17
M  V30 17 1 17 18
M  V30 18 2 18 19
M  V30 19 2 9 20
M  V30 20 1 20 21
M  V30 21 2 21 22
M  V30 22 1 22 23
M  V30 23 2 23 24
M  V30 24 1 24 25
M  V30 25 2 25 26
M  V30 26 2 6 27
M  V30 27 1 27 2
M  V30 28 1 26 7
M  V30 29 1 19 11
M  V30 30 1 25 20
M  V30 31 1 18 14
M  V30 32 1 1 28
M  V30 33 1 1 29
M  V30 34 1 1 30
M  V30 35 1 3 31
M  V30 36 1 4 32
M  V30 37 1 5 33
M  V30 38 1 10 34
M  V30 39 1 12 35
M  V30 40 1 13 36
M  V30 41 1 15 37
M  V30 42 1 17 38
M  V30 43 1 19 39
M  V30 44 1 21 40
M  V30 45 1 22 41
M  V30 46 1 23 42
M  V30 47 1 24 43
M  V30 END BOND
M  V30 END CTAB
M  END
>  <Dataset>  (834) 
ChEMBL_Kinases

>  <Ligand_Instance>  (834) 
nan

>  <PDB_ID>  (834) 
nan

>  <Standardized_SMILES>  (834) 
Cc1cccc(-c2nc(Nc3ccc4[nH]ncc4c3)c3ccccc3n2)n1

>  <Name>  (834) 
nan

>  <Pocket>  (834) 
nan

>  <ATP_Site>  (834) 
nan

>  <Peripheral>  (834) 
nan

>  <Num_H_Atoms_ProtBoundConf>  (834) 
nan

>  <Num_Resolved_Atoms>  (834) 
nan

>  <Num_Not_Resolved_Atoms>  (834) 
nan

$$$$
CHEMBL538190
     RDKit          3D

  0  0  0  0  0  0  0  0  0  0999 V3000
M  V30 BEGIN CTAB
M  V30 COUNTS 43 46 0 0 0
M  V30 BEGIN ATOM
M  V30 1 C -2.472302 -5.287824 0.837549 0
M  V30 2 O -2.439041 -3.937931 0.474178 0
M  V30 3 C -1.286683 -3.332444 -0.001358 0
M  V30 4 C -0.155996 -4.109483 -0.107583 0
M  V30 5 C 1.030718 -3.570923 -0.574681 0
M  V30 6 C 0.982362 -2.230558 -0.913599 0
M  V30 7 C -0.111236 -1.389321 -0.834259 0
M  V30 8 C -0.017492 0.007335 -1.218969 0
M  V30 9 C -0.598522 0.493217 -2.375603 0
M  V30 10 N -0.528361 1.780804 -2.769850 0
M  V30 11 C 0.151856 2.608763 -1.970022 0
M  V30 12 N 0.216651 3.974600 -2.400350 0
M  V30 13 N 0.717888 2.161213 -0.853801 0
M  V30 14 C 0.683431 0.888149 -0.406066 0
M  V30 15 C 1.342792 0.550562 0.827295 0
M  V30 16 C 2.426343 -0.202821 1.246628 0
M  V30 17 N 2.570147 -0.149998 2.579651 0
M  V30 18 C 3.601293 -0.825139 3.351736 0
M  V30 19 C 1.604912 0.626785 3.089109 0
M  V30 20 C 1.336469 0.981972 4.392732 0
M  V30 21 C 0.277245 1.804749 4.698236 0
M  V30 22 C -0.505788 2.262650 3.665175 0
M  V30 23 C -0.221616 1.896160 2.368724 0
M  V30 24 C 0.828359 1.074790 2.018966 0
M  V30 25 C -1.267236 -2.012302 -0.353752 0
M  V30 26 H -2.357303 -5.950765 -0.027705 0
M  V30 27 H -3.444901 -5.465405 1.374324 0
M  V30 28 H -1.608934 -5.512743 1.513844 0
M  V30 29 H -0.103992 -5.176397 0.158002 0
M  V30 30 H 1.974241 -4.112920 -0.692112 0
M  V30 31 H 1.900014 -1.791205 -1.287676 0
M  V30 32 H -1.148760 -0.185258 -3.017188 0
M  V30 33 H 1.141774 4.443071 -2.296646 0
M  V30 34 H -0.653472 4.406425 -2.785025 0
M  V30 35 H 3.010381 -0.721292 0.502615 0
M  V30 36 H 3.147456 -1.635258 3.970333 0
M  V30 37 H 4.094957 -0.075120 3.978896 0
M  V30 38 H 4.356284 -1.294483 2.690812 0
M  V30 39 H 1.924800 0.645641 5.239462 0
M  V30 40 H -0.036779 2.155865 5.671383 0
M  V30 41 H -1.370707 2.927867 3.828041 0
M  V30 42 H -0.867340 2.282387 1.574042 0
M  V30 43 H -2.148947 -1.382796 -0.276699 0
M  V30 END ATOM
M  V30 BEGIN BOND
M  V30 1 1 1 2
M  V30 2 1 2 3
M  V30 3 2 3 4
M  V30 4 1 4 5
M  V30 5 2 5 6
M  V30 6 1 6 7
M  V30 7 1 7 8
M  V30 8 2 8 9
M  V30 9 1 9 10
M  V30 10 2 10 11
M  V30 11 1 11 12
M  V30 12 1 11 13
M  V30 13 2 13 14
M  V30 14 1 14 15
M  V30 15 2 15 16
M  V30 16 1 16 17
M  V30 17 1 17 18
M  V30 18 1 17 19
M  V30 19 2 19 20
M  V30 20 1 20 21
M  V30 21 2 21 22
M  V30 22 1 22 23
M  V30 23 2 23 24
M  V30 24 2 7 25
M  V30 25 1 25 3
M  V30 26 1 14 8
M  V30 27 1 24 15
M  V30 28 1 24 19
M  V30 29 1 1 26
M  V30 30 1 1 27
M  V30 31 1 1 28
M  V30 32 1 4 29
M  V30 33 1 5 30
M  V30 34 1 6 31
M  V30 35 1 9 32
M  V30 36 1 12 33
M  V30 37 1 12 34
M  V30 38 1 16 35
M  V30 39 1 18 36
M  V30 40 1 18 37
M  V30 41 1 18 38
M  V30 42 1 20 39
M  V30 43 1 21 40
M  V30 44 1 22 41
M  V30 45 1 23 42
M  V30 46 1 25 43
M  V30 END BOND
M  V30 END CTAB
M  END
>  <Dataset>  (835) 
ChEMBL_Kinases

>  <Ligand_Instance>  (835) 
nan

>  <PDB_ID>  (835) 
nan

>  <Standardized_SMILES>  (835) 
COc1cccc(-c2cnc(N)nc2-c2cn(C)c3ccccc23)c1

>  <Name>  (835) 
nan

>  <Pocket>  (835) 
nan

>  <ATP_Site>  (835) 
nan

>  <Peripheral>  (835) 
nan

>  <Num_H_Atoms_ProtBoundConf>  (835) 
nan

>  <Num_Resolved_Atoms>  (835) 
nan

>  <Num_Not_Resolved_Atoms>  (835) 
nan

$$$$
CHEMBL532177
     RDKit          3D

  0  0  0  0  0  0  0  0  0  0999 V3000
M  V30 BEGIN CTAB
M  V30 COUNTS 34 36 0 0 0
M  V30 BEGIN ATOM
M  V30 1 C -1.704115 -3.637342 4.147044 0
M  V30 2 O -1.554432 -4.339440 2.916902 0
M  V30 3 C -0.856994 -3.749681 1.875791 0
M  V30 4 C -0.705431 -4.414769 0.685888 0
M  V30 5 C -0.017034 -3.833883 -0.347686 0
M  V30 6 C 0.569348 -2.562772 -0.288955 0
M  V30 7 C 1.275448 -2.235323 -1.485942 0
M  V30 8 C 1.574771 -1.090011 -2.041896 0
M  V30 9 C 1.156107 0.145159 -1.436555 0
M  V30 10 N 1.680161 1.192452 -2.060736 0
M  V30 11 C 1.472563 2.451774 -1.735230 0
M  V30 12 O 2.034192 3.385438 -2.412381 0
M  V30 13 C 0.675317 2.842144 -0.693300 0
M  V30 14 C 0.409222 4.114161 -0.292253 0
M  V30 15 C -0.439649 4.235962 0.803304 0
M  V30 16 C -0.979598 3.140713 1.445397 0
M  V30 17 C -0.694840 1.838648 1.018990 0
M  V30 18 C 0.153862 1.736683 -0.075420 0
M  V30 19 O 0.436467 0.565061 -0.492965 0
M  V30 20 C 0.357935 -2.002510 0.934341 0
M  V30 21 C -0.310793 -2.497077 2.020798 0
M  V30 22 H -2.049972 -4.306994 4.953059 0
M  V30 23 H -0.706881 -3.237920 4.490208 0
M  V30 24 H -2.355716 -2.758851 4.054359 0
M  V30 25 H -1.148753 -5.390191 0.613022 0
M  V30 26 H 0.020364 -4.487761 -1.236098 0
M  V30 27 H 1.688844 -3.061054 -2.099046 0
M  V30 28 H 2.153129 -1.132008 -2.985630 0
M  V30 29 H 0.867191 4.907966 -0.843165 0
M  V30 30 H -0.658087 5.263722 1.131756 0
M  V30 31 H -1.626194 3.335753 2.284670 0
M  V30 32 H -1.142665 1.032771 1.556295 0
M  V30 33 H 0.826881 -1.058770 1.119087 0
M  V30 34 H -0.402257 -1.935538 2.934592 0
M  V30 END ATOM
M  V30 BEGIN BOND
M  V30 1 1 1 2
M  V30 2 1 2 3
M  V30 3 2 3 4
M  V30 4 1 4 5
M  V30 5 2 5 6
M  V30 6 1 6 7
M  V30 7 2 7 8
M  V30 8 1 8 9
M  V30 9 2 9 10
M  V30 10 1 10 11
M  V30 11 2 11 12
M  V30 12 1 11 13
M  V30 13 2 13 14
M  V30 14 1 14 15
M  V30 15 2 15 16
M  V30 16 1 16 17
M  V30 17 2 17 18
M  V30 18 1 18 19
M  V30 19 1 6 20
M  V30 20 2 20 21
M  V30 21 1 21 3
M  V30 22 1 19 9
M  V30 23 1 18 13
M  V30 24 1 1 22
M  V30 25 1 1 23
M  V30 26 1 1 24
M  V30 27 1 4 25
M  V30 28 1 5 26
M  V30 29 1 7 27
M  V30 30 1 8 28
M  V30 31 1 14 29
M  V30 32 1 15 30
M  V30 33 1 16 31
M  V30 34 1 17 32
M  V30 35 1 20 33
M  V30 36 1 21 34
M  V30 END BOND
M  V30 END CTAB
M  END
>  <Dataset>  (836) 
ChEMBL_Kinases

>  <Ligand_Instance>  (836) 
nan

>  <PDB_ID>  (836) 
nan

>  <Standardized_SMILES>  (836) 
COc1ccc(/C=C\c2nc(=O)c3ccccc3o2)cc1

>  <Name>  (836) 
nan

>  <Pocket>  (836) 
nan

>  <ATP_Site>  (836) 
nan

>  <Peripheral>  (836) 
nan

>  <Num_H_Atoms_ProtBoundConf>  (836) 
nan

>  <Num_Resolved_Atoms>  (836) 
nan

>  <Num_Not_Resolved_Atoms>  (836) 
nan

$$$$
CHEMBL3728689
     RDKit          3D

  0  0  0  0  0  0  0  0  0  0999 V3000
M  V30 BEGIN CTAB
M  V30 COUNTS 54 58 0 0 0
M  V30 BEGIN ATOM
M  V30 1 N 0.892151 -1.351129 -1.041681 0
M  V30 2 C 0.538160 -2.503767 -0.297472 0 CFG=2
M  V30 3 C 0.764514 -2.481644 1.169848 0
M  V30 4 O 0.034749 -1.471490 1.777258 0
M  V30 5 C 0.114201 -0.138034 1.604674 0
M  V30 6 N 0.944035 0.510856 0.795305 0
M  V30 7 C 1.057354 1.819508 0.596459 0
M  V30 8 C 1.989159 2.480632 -0.304318 0
M  V30 9 C 2.900182 1.794606 -1.080186 0
M  V30 10 C 3.793824 2.391766 -1.939866 0
M  V30 11 N 3.772579 3.733468 -2.024674 0
M  V30 12 C 2.904376 4.450665 -1.290177 0
M  V30 13 C 2.007714 3.854768 -0.427856 0
M  V30 14 N 0.212815 2.573120 1.317666 0
M  V30 15 C -0.680114 2.032439 2.177138 0
M  V30 16 S -1.899305 2.769280 3.243473 0
M  V30 17 C -2.497046 1.194163 3.906577 0
M  V30 18 C -1.734112 0.262326 3.273547 0
M  V30 19 C -0.777635 0.633200 2.368138 0
M  V30 20 C -2.179527 -1.065912 3.783084 0
M  V30 21 C -2.104925 -1.090521 5.300985 0
M  V30 22 C -3.187779 -0.200467 5.810729 0
M  V30 23 C -3.543856 0.915475 4.884986 0
M  V30 24 C 1.082798 -3.777944 -0.947011 0
M  V30 25 C 0.484260 -3.845548 -2.305356 0
M  V30 26 C -0.736266 -4.506751 -2.457650 0
M  V30 27 C -1.434346 -4.668518 -3.632679 0
M  V30 28 C -0.846785 -4.113404 -4.749925 0
M  V30 29 C 0.358059 -3.446095 -4.673196 0
M  V30 30 F 0.910824 -2.910754 -5.790446 0
M  V30 31 C 1.010784 -3.316635 -3.464974 0
M  V30 32 H 0.184174 -1.063312 -1.758127 0
M  V30 33 H 1.822873 -1.357392 -1.466329 0
M  V30 34 H -0.584912 -2.619733 -0.427656 0
M  V30 35 H 0.491142 -3.494390 1.580287 0
M  V30 36 H 1.844288 -2.380567 1.445209 0
M  V30 37 H 2.937668 0.715487 -1.029638 0
M  V30 38 H 4.481678 1.815005 -2.521150 0
M  V30 39 H 2.899110 5.545032 -1.370295 0
M  V30 40 H 1.288077 4.410152 0.184013 0
M  V30 41 H -1.601152 -1.910980 3.351985 0
M  V30 42 H -3.256260 -1.160056 3.518440 0
M  V30 43 H -2.332419 -2.132260 5.607797 0
M  V30 44 H -1.113511 -0.750852 5.666215 0
M  V30 45 H -2.853933 0.237852 6.782659 0
M  V30 46 H -4.096288 -0.812338 6.079352 0
M  V30 47 H -4.472662 0.629908 4.352747 0
M  V30 48 H -3.769779 1.860142 5.432087 0
M  V30 49 H 0.696922 -4.631540 -0.353898 0
M  V30 50 H 2.189622 -3.762913 -0.998668 0
M  V30 51 H -1.190190 -4.942763 -1.558489 0
M  V30 52 H -2.374326 -5.201489 -3.630403 0
M  V30 53 H -1.397607 -4.238574 -5.689699 0
M  V30 54 H 1.947602 -2.805533 -3.370138 0
M  V30 END ATOM
M  V30 BEGIN BOND
M  V30 1 1 1 2
M  V30 2 1 2 3
M  V30 3 1 3 4
M  V30 4 1 4 5
M  V30 5 2 5 6
M  V30 6 1 6 7
M  V30 7 1 7 8
M  V30 8 2 8 9
M  V30 9 1 9 10
M  V30 10 2 10 11
M  V30 11 1 11 12
M  V30 12 2 12 13
M  V30 13 2 7 14
M  V30 14 1 14 15
M  V30 15 1 15 16
M  V30 16 1 16 17
M  V30 17 2 17 18
M  V30 18 1 18 19
M  V30 19 1 18 20
M  V30 20 1 20 21
M  V30 21 1 21 22
M  V30 22 1 22 23
M  V30 23 1 2 24
M  V30 24 1 24 25
M  V30 25 2 25 26
M  V30 26 1 26 27
M  V30 27 2 27 28
M  V30 28 1 28 29
M  V30 29 1 29 30
M  V30 30 2 29 31
M  V30 31 1 19 5
M  V30 32 1 31 25
M  V30 33 1 13 8
M  V30 34 2 19 15
M  V30 35 1 23 17
M  V30 36 1 1 32
M  V30 37 1 1 33
M  V30 38 1 2 34 CFG=1
M  V30 39 1 3 35
M  V30 40 1 3 36
M  V30 41 1 9 37
M  V30 42 1 10 38
M  V30 43 1 12 39
M  V30 44 1 13 40
M  V30 45 1 20 41
M  V30 46 1 20 42
M  V30 47 1 21 43
M  V30 48 1 21 44
M  V30 49 1 22 45
M  V30 50 1 22 46
M  V30 51 1 23 47
M  V30 52 1 23 48
M  V30 53 1 24 49
M  V30 54 1 24 50
M  V30 55 1 26 51
M  V30 56 1 27 52
M  V30 57 1 28 53
M  V30 58 1 31 54
M  V30 END BOND
M  V30 END CTAB
M  END
>  <Dataset>  (837) 
ChEMBL_Kinases

>  <Ligand_Instance>  (837) 
nan

>  <PDB_ID>  (837) 
nan

>  <Standardized_SMILES>  (837) 
N[C@H](COc1nc(-c2ccncc2)nc2sc3c(c12)CCCC3)Cc1cccc(F)c1

>  <Name>  (837) 
nan

>  <Pocket>  (837) 
nan

>  <ATP_Site>  (837) 
nan

>  <Peripheral>  (837) 
nan

>  <Num_H_Atoms_ProtBoundConf>  (837) 
nan

>  <Num_Resolved_Atoms>  (837) 
nan

>  <Num_Not_Resolved_Atoms>  (837) 
nan

$$$$
CHEMBL526655
     RDKit          3D

  0  0  0  0  0  0  0  0  0  0999 V3000
M  V30 BEGIN CTAB
M  V30 COUNTS 46 49 0 0 0
M  V30 BEGIN ATOM
M  V30 1 C 0.973385 -3.458571 4.758218 0
M  V30 2 N 2.053246 -4.100497 4.009640 0
M  V30 3 C 2.181659 -5.466085 4.475576 0
M  V30 4 C 2.770988 -3.367752 3.014458 0
M  V30 5 N 4.055884 -3.475778 2.817235 0
M  V30 6 C 2.041586 -2.437452 2.158466 0
M  V30 7 C 2.750888 -1.334123 1.697476 0
M  V30 8 C 2.168760 -0.382102 0.880398 0
M  V30 9 N 0.862876 -0.527649 0.515547 0
M  V30 10 C 0.041636 0.227813 -0.258480 0
M  V30 11 C 0.481246 1.459367 -0.895485 0
M  V30 12 C 0.637473 1.803189 -2.232976 0
M  V30 13 C 1.074371 3.073817 -2.536447 0
M  V30 14 N 1.348126 3.973428 -1.573703 0
M  V30 15 C 1.196464 3.639864 -0.263917 0
M  V30 16 N 1.502500 4.636235 0.692446 0
M  V30 17 N 0.769968 2.401478 0.049431 0
M  V30 18 C -1.207756 -0.386521 -0.301600 0
M  V30 19 C -2.381478 0.093373 -1.023036 0
M  V30 20 C -2.528418 0.175371 -2.384987 0
M  V30 21 C -3.668390 0.646828 -3.001150 0
M  V30 22 C -4.736789 1.065455 -2.210736 0
M  V30 23 F -5.851125 1.525740 -2.824803 0
M  V30 24 C -4.654594 1.009074 -0.824967 0
M  V30 25 C -3.476604 0.523768 -0.283174 0
M  V30 26 N -1.068941 -1.496608 0.460932 0
M  V30 27 C 0.176257 -1.596866 0.962124 0
M  V30 28 C 0.709909 -2.575312 1.779208 0
M  V30 29 H 1.280223 -3.225927 5.792346 0
M  V30 30 H 0.067487 -4.079399 4.827649 0
M  V30 31 H 0.761653 -2.464838 4.284755 0
M  V30 32 H 3.022322 -5.965710 3.973629 0
M  V30 33 H 1.246554 -6.040320 4.389562 0
M  V30 34 H 2.435368 -5.404960 5.571701 0
M  V30 35 H 4.613084 -4.139693 3.419859 0
M  V30 36 H 3.781466 -1.199265 1.971286 0
M  V30 37 H 2.732300 0.483438 0.521232 0
M  V30 38 H 0.385005 0.992103 -2.869906 0
M  V30 39 H 1.168251 3.260952 -3.609443 0
M  V30 40 H 2.331324 4.707790 1.287960 0
M  V30 41 H 0.938991 5.476016 0.961029 0
M  V30 42 H -1.698535 -0.155372 -2.985987 0
M  V30 43 H -3.709985 0.682795 -4.082066 0
M  V30 44 H -5.460414 1.324941 -0.172884 0
M  V30 45 H -3.417457 0.480416 0.805064 0
M  V30 46 H 0.187534 -3.428923 2.146421 0
M  V30 END ATOM
M  V30 BEGIN BOND
M  V30 1 1 1 2
M  V30 2 1 2 3
M  V30 3 1 2 4
M  V30 4 2 4 5 CFG=2
M  V30 5 1 4 6
M  V30 6 1 6 7
M  V30 7 2 7 8
M  V30 8 1 8 9
M  V30 9 1 9 10
M  V30 10 1 10 11
M  V30 11 2 11 12
M  V30 12 1 12 13
M  V30 13 2 13 14
M  V30 14 1 14 15
M  V30 15 1 15 16
M  V30 16 2 15 17
M  V30 17 2 10 18
M  V30 18 1 18 19
M  V30 19 2 19 20
M  V30 20 1 20 21
M  V30 21 2 21 22
M  V30 22 1 22 23
M  V30 23 1 22 24
M  V30 24 2 24 25
M  V30 25 1 18 26
M  V30 26 2 26 27
M  V30 27 1 27 28
M  V30 28 2 28 6
M  V30 29 1 27 9
M  V30 30 1 17 11
M  V30 31 1 25 19
M  V30 32 1 1 29
M  V30 33 1 1 30
M  V30 34 1 1 31
M  V30 35 1 3 32
M  V30 36 1 3 33
M  V30 37 1 3 34
M  V30 38 1 5 35
M  V30 39 1 7 36
M  V30 40 1 8 37
M  V30 41 1 12 38
M  V30 42 1 13 39
M  V30 43 1 16 40
M  V30 44 1 16 41
M  V30 45 1 20 42
M  V30 46 1 21 43
M  V30 47 1 24 44
M  V30 48 1 25 45
M  V30 49 1 28 46
M  V30 END BOND
M  V30 END CTAB
M  END
>  <Dataset>  (838) 
ChEMBL_Kinases

>  <Ligand_Instance>  (838) 
nan

>  <PDB_ID>  (838) 
nan

>  <Standardized_SMILES>  (838) 
CN(C)C(=N)c1ccn2c(-c3ccnc(N)n3)c(-c3ccc(F)cc3)nc2c1

>  <Name>  (838) 
nan

>  <Pocket>  (838) 
nan

>  <ATP_Site>  (838) 
nan

>  <Peripheral>  (838) 
nan

>  <Num_H_Atoms_ProtBoundConf>  (838) 
nan

>  <Num_Resolved_Atoms>  (838) 
nan

>  <Num_Not_Resolved_Atoms>  (838) 
nan

$$$$
CHEMBL526667
     RDKit          3D

  0  0  0  0  0  0  0  0  0  0999 V3000
M  V30 BEGIN CTAB
M  V30 COUNTS 68 72 0 0 0
M  V30 BEGIN ATOM
M  V30 1 C 3.929614 -2.742773 3.994967 0
M  V30 2 C 3.380093 -1.516799 3.355754 0
M  V30 3 C 3.455374 -1.602566 1.820802 0
M  V30 4 C 2.685616 -2.748165 1.299251 0
M  V30 5 C 1.202343 -2.658516 1.660432 0
M  V30 6 C 2.851687 -3.108434 -0.124082 0
M  V30 7 N 2.512083 -2.123434 -1.109688 0
M  V30 8 C 2.326338 -2.894053 -2.390193 0
M  V30 9 C 1.911530 -1.988644 -3.486079 0
M  V30 10 C 2.082268 -0.512309 -3.087142 0
M  V30 11 C 1.029920 -0.130971 -2.120291 0
M  V30 12 C 1.193687 0.419380 -0.870140 0
M  V30 13 C 0.176841 0.713904 0.007778 0
M  V30 14 N -1.094059 0.460710 -0.340051 0
M  V30 15 C -2.248672 0.634189 0.326572 0
M  V30 16 C -2.510945 1.176829 1.660601 0
M  V30 17 C -2.978842 0.493835 2.762449 0
M  V30 18 C -3.166607 1.206360 3.934396 0
M  V30 19 N -2.901560 2.517601 3.992850 0
M  V30 20 C -2.445942 3.200215 2.927559 0
M  V30 21 N -2.186945 4.594084 3.040499 0
M  V30 22 N -2.255208 2.513784 1.768528 0
M  V30 23 C -3.255916 0.184316 -0.502241 0
M  V30 24 C -4.697779 0.160025 -0.198915 0
M  V30 25 C -5.123238 -1.172927 -0.206038 0
M  V30 26 C -6.447866 -1.498687 0.049424 0
M  V30 27 C -7.340983 -0.452125 0.313494 0
M  V30 28 F -8.635298 -0.709638 0.567782 0
M  V30 29 C -6.889559 0.854002 0.314024 0
M  V30 30 C -5.554286 1.183855 0.056576 0
M  V30 31 N -2.678103 -0.245248 -1.641334 0
M  V30 32 C -1.336234 -0.079279 -1.551735 0
M  V30 33 C -0.312166 -0.375214 -2.437464 0
M  V30 34 C 3.426483 -0.310670 -2.471685 0
M  V30 35 C 3.746942 -1.378527 -1.447569 0
M  V30 36 H 4.697332 -2.454938 4.751016 0
M  V30 37 H 4.462990 -3.389315 3.268471 0
M  V30 38 H 3.136536 -3.392624 4.464741 0
M  V30 39 H 3.992452 -0.621730 3.673800 0
M  V30 40 H 2.348255 -1.257665 3.694276 0
M  V30 41 H 4.533372 -1.609674 1.603666 0
M  V30 42 H 3.045758 -0.629434 1.410282 0
M  V30 43 H 3.025486 -3.668653 1.894338 0
M  V30 44 H 0.657158 -1.922750 1.040711 0
M  V30 45 H 1.091169 -2.553823 2.735850 0
M  V30 46 H 0.782736 -3.669208 1.378429 0
M  V30 47 H 2.272233 -4.057133 -0.373363 0
M  V30 48 H 3.934551 -3.446857 -0.250816 0
M  V30 49 H 3.197135 -3.537543 -2.578417 0
M  V30 50 H 1.473635 -3.557356 -2.129613 0
M  V30 51 H 0.865742 -2.174307 -3.762755 0
M  V30 52 H 2.545121 -2.167078 -4.366561 0
M  V30 53 H 1.961040 0.045594 -4.013935 0
M  V30 54 H 2.181669 0.641622 -0.525074 0
M  V30 55 H 0.398775 1.153576 0.985122 0
M  V30 56 H -3.162617 -0.566350 2.614726 0
M  V30 57 H -3.542431 0.645918 4.807293 0
M  V30 58 H -1.325824 5.025059 2.586057 0
M  V30 59 H -2.835599 5.213281 3.569229 0
M  V30 60 H -4.540143 -2.068460 -0.393829 0
M  V30 61 H -6.872700 -2.490083 0.066520 0
M  V30 62 H -7.540170 1.692109 0.512366 0
M  V30 63 H -5.094187 2.137756 0.025700 0
M  V30 64 H -0.626016 -0.803292 -3.393011 0
M  V30 65 H 4.236340 -0.390237 -3.235092 0
M  V30 66 H 3.478638 0.667559 -1.998012 0
M  V30 67 H 4.104340 -0.895848 -0.552270 0
M  V30 68 H 4.449394 -2.143088 -1.844164 0
M  V30 END ATOM
M  V30 BEGIN BOND
M  V30 1 1 1 2
M  V30 2 1 2 3
M  V30 3 1 3 4
M  V30 4 1 4 5
M  V30 5 1 4 6
M  V30 6 1 6 7
M  V30 7 1 7 8
M  V30 8 1 8 9
M  V30 9 1 9 10
M  V30 10 1 10 11
M  V30 11 1 11 12
M  V30 12 2 12 13
M  V30 13 1 13 14
M  V30 14 1 14 15
M  V30 15 1 15 16
M  V30 16 2 16 17
M  V30 17 1 17 18
M  V30 18 2 18 19
M  V30 19 1 19 20
M  V30 20 1 20 21
M  V30 21 2 20 22
M  V30 22 2 15 23
M  V30 23 1 23 24
M  V30 24 2 24 25
M  V30 25 1 25 26
M  V30 26 2 26 27
M  V30 27 1 27 28
M  V30 28 1 27 29
M  V30 29 2 29 30
M  V30 30 1 23 31
M  V30 31 2 31 32
M  V30 32 1 32 33
M  V30 33 1 10 34
M  V30 34 1 34 35
M  V30 35 1 35 7
M  V30 36 2 33 11
M  V30 37 1 32 14
M  V30 38 1 22 16
M  V30 39 1 30 24
M  V30 40 1 1 36
M  V30 41 1 1 37
M  V30 42 1 1 38
M  V30 43 1 2 39
M  V30 44 1 2 40
M  V30 45 1 3 41
M  V30 46 1 3 42
M  V30 47 1 4 43
M  V30 48 1 5 44
M  V30 49 1 5 45
M  V30 50 1 5 46
M  V30 51 1 6 47
M  V30 52 1 6 48
M  V30 53 1 8 49
M  V30 54 1 8 50
M  V30 55 1 9 51
M  V30 56 1 9 52
M  V30 57 1 10 53
M  V30 58 1 12 54
M  V30 59 1 13 55
M  V30 60 1 17 56
M  V30 61 1 18 57
M  V30 62 1 21 58
M  V30 63 1 21 59
M  V30 64 1 25 60
M  V30 65 1 26 61
M  V30 66 1 29 62
M  V30 67 1 30 63
M  V30 68 1 33 64
M  V30 69 1 34 65
M  V30 70 1 34 66
M  V30 71 1 35 67
M  V30 72 1 35 68
M  V30 END BOND
M  V30 END CTAB
M  END
>  <Dataset>  (839) 
ChEMBL_Kinases

>  <Ligand_Instance>  (839) 
nan

>  <PDB_ID>  (839) 
nan

>  <Standardized_SMILES>  (839) 
CCCC(C)CN1CCC(c2ccn3c(-c4ccnc(N)n4)c(-c4ccc(F)cc4)nc3c2)CC1

>  <Name>  (839) 
nan

>  <Pocket>  (839) 
nan

>  <ATP_Site>  (839) 
nan

>  <Peripheral>  (839) 
nan

>  <Num_H_Atoms_ProtBoundConf>  (839) 
nan

>  <Num_Resolved_Atoms>  (839) 
nan

>  <Num_Not_Resolved_Atoms>  (839) 
nan

$$$$
CHEMBL526721
     RDKit          3D

  0  0  0  0  0  0  0  0  0  0999 V3000
M  V30 BEGIN CTAB
M  V30 COUNTS 43 47 0 0 0
M  V30 BEGIN ATOM
M  V30 1 C 2.903114 -6.309073 3.992583 0
M  V30 2 S 3.975982 -5.140621 3.149600 0
M  V30 3 O 4.880052 -4.542207 4.166573 0
M  V30 4 O 4.742657 -5.880216 2.095717 0
M  V30 5 C 2.966186 -3.913435 2.415520 0
M  V30 6 C 2.503901 -4.095047 1.129786 0
M  V30 7 C 1.706449 -3.143359 0.527836 0
M  V30 8 C 1.341240 -1.989256 1.170894 0
M  V30 9 C 0.504447 -0.904081 0.688196 0
M  V30 10 C 1.130647 0.340021 0.838692 0
M  V30 11 C 0.499823 1.493152 0.417925 0
M  V30 12 N 0.884661 2.804063 0.448961 0
M  V30 13 C -0.138351 3.482672 -0.100224 0
M  V30 14 C -0.175855 4.865163 -0.272651 0
M  V30 15 C -1.278115 5.459286 -0.849154 0
M  V30 16 C -2.337401 4.637355 -1.246941 0
M  V30 17 O -3.439298 5.248594 -1.825209 0
M  V30 18 C -2.223758 3.287793 -1.042986 0
M  V30 19 C -1.162175 2.648631 -0.480226 0
M  V30 20 C -0.749633 1.394122 -0.148777 0
M  V30 21 C -1.375874 0.199244 -0.304257 0
M  V30 22 C -0.749439 -0.948001 0.113919 0
M  V30 23 C -1.547344 -2.146227 -0.112771 0
M  V30 24 O -1.280395 -3.347045 0.148950 0
M  V30 25 N -2.751214 -1.634579 -0.722871 0
M  V30 26 C -2.634708 -0.235332 -0.830663 0
M  V30 27 O -3.595000 0.350044 -1.337799 0
M  V30 28 C 1.837697 -1.852485 2.476618 0
M  V30 29 C 2.637584 -2.774617 3.121289 0
M  V30 30 H 2.644264 -5.949566 5.014200 0
M  V30 31 H 1.922742 -6.303820 3.435049 0
M  V30 32 H 3.270777 -7.333186 3.952404 0
M  V30 33 H 2.744127 -4.969805 0.559884 0
M  V30 34 H 1.347593 -3.261332 -0.465859 0
M  V30 35 H 2.127452 0.489063 1.283120 0
M  V30 36 H 1.794559 3.167852 0.828994 0
M  V30 37 H 0.611026 5.515175 0.018412 0
M  V30 38 H -1.333803 6.528569 -0.994856 0
M  V30 39 H -4.205987 5.496222 -1.190254 0
M  V30 40 H -3.071478 2.743814 -1.374378 0
M  V30 41 H -3.517134 -2.315452 -0.995127 0
M  V30 42 H 1.588533 -0.952210 3.058711 0
M  V30 43 H 2.976418 -2.589264 4.129962 0
M  V30 END ATOM
M  V30 BEGIN BOND
M  V30 1 1 1 2
M  V30 2 2 2 3
M  V30 3 2 2 4
M  V30 4 1 2 5
M  V30 5 2 5 6
M  V30 6 1 6 7
M  V30 7 2 7 8
M  V30 8 1 8 9
M  V30 9 2 9 10
M  V30 10 1 10 11
M  V30 11 1 11 12
M  V30 12 1 12 13
M  V30 13 2 13 14
M  V30 14 1 14 15
M  V30 15 2 15 16
M  V30 16 1 16 17
M  V30 17 1 16 18
M  V30 18 2 18 19
M  V30 19 1 19 20
M  V30 20 1 20 21
M  V30 21 2 21 22
M  V30 22 1 22 23
M  V30 23 2 23 24
M  V30 24 1 23 25
M  V30 25 1 25 26
M  V30 26 2 26 27
M  V30 27 1 8 28
M  V30 28 2 28 29
M  V30 29 1 29 5
M  V30 30 1 22 9
M  V30 31 2 20 11
M  V30 32 1 26 21
M  V30 33 1 19 13
M  V30 34 1 1 30
M  V30 35 1 1 31
M  V30 36 1 1 32
M  V30 37 1 6 33
M  V30 38 1 7 34
M  V30 39 1 10 35
M  V30 40 1 12 36
M  V30 41 1 14 37
M  V30 42 1 15 38
M  V30 43 1 17 39
M  V30 44 1 18 40
M  V30 45 1 25 41
M  V30 46 1 28 42
M  V30 47 1 29 43
M  V30 END BOND
M  V30 END CTAB
M  END
>  <Dataset>  (840) 
ChEMBL_Kinases

>  <Ligand_Instance>  (840) 
nan

>  <PDB_ID>  (840) 
nan

>  <Standardized_SMILES>  (840) 
CS(=O)(=O)c1ccc(-c2cc3[nH]c4ccc(O)cc4c3c3c2C(=O)NC3=O)cc1

>  <Name>  (840) 
nan

>  <Pocket>  (840) 
nan

>  <ATP_Site>  (840) 
nan

>  <Peripheral>  (840) 
nan

>  <Num_H_Atoms_ProtBoundConf>  (840) 
nan

>  <Num_Resolved_Atoms>  (840) 
nan

>  <Num_Not_Resolved_Atoms>  (840) 
nan

$$$$
CHEMBL526930
     RDKit          3D

  0  0  0  0  0  0  0  0  0  0999 V3000
M  V30 BEGIN CTAB
M  V30 COUNTS 68 72 0 0 0
M  V30 BEGIN ATOM
M  V30 1 C 6.075265 -4.391619 0.796113 0
M  V30 2 C 4.708329 -3.981818 0.386064 0
M  V30 3 C 3.685513 -4.909800 0.502269 0
M  V30 4 C 2.392343 -4.603570 0.142154 0
M  V30 5 C 2.087665 -3.340488 -0.350894 0
M  V30 6 C 3.101773 -2.406724 -0.470895 0
M  V30 7 N 2.999761 -1.070972 -0.949024 0
M  V30 8 N 3.087641 -0.964422 -2.280894 0
M  V30 9 C 2.976677 0.350887 -2.612703 0
M  V30 10 C 2.999304 1.069840 -3.918814 0
M  V30 11 C 3.185918 0.064914 -5.034246 0
M  V30 12 C 1.687895 1.778897 -4.152256 0
M  V30 13 C 4.103689 2.099060 -3.963010 0
M  V30 14 C 2.815516 1.071929 -1.442002 0
M  V30 15 C 2.833359 0.144492 -0.394380 0
M  V30 16 N 2.717292 0.244544 1.030595 0
M  V30 17 C 1.380611 0.154451 1.524427 0
M  V30 18 O 0.379099 -0.000327 0.769866 0
M  V30 19 N 1.072608 0.233523 2.922383 0
M  V30 20 C -0.295517 0.133445 3.320840 0
M  V30 21 C -0.988182 1.323792 3.393579 0
M  V30 22 C -2.322728 1.176367 3.787227 0
M  V30 23 C -2.916163 -0.056725 4.083492 0
M  V30 24 N -4.272049 -0.129243 4.468784 0
M  V30 25 C -5.574884 -0.263884 4.025469 0
M  V30 26 N -6.545284 -0.257948 4.979775 0
M  V30 27 C -7.838325 -0.381154 4.659401 0
M  V30 28 N -8.211088 -0.514415 3.379605 0
M  V30 29 C -7.287964 -0.524777 2.414705 0
M  V30 30 C -7.766690 -0.668115 1.107853 0
M  V30 31 C -6.799667 -0.678299 0.104061 0
M  V30 32 C -5.448106 -0.551186 0.419812 0
M  V30 33 N -4.509569 -0.570241 -0.658742 0 CHG=1 VAL=4
M  V30 34 O -3.289452 -0.459140 -0.417640 0
M  V30 35 O -4.820310 -0.703418 -1.987994 0 CHG=-1 VAL=1
M  V30 36 C -5.005962 -0.411280 1.717638 0
M  V30 37 C -5.949388 -0.400275 2.710320 0
M  V30 38 C -2.096971 -1.186038 3.968754 0
M  V30 39 C -0.769680 -1.133779 3.587008 0
M  V30 40 C 4.391818 -2.733390 -0.104274 0
M  V30 41 H 6.309484 -5.444819 0.505545 0
M  V30 42 H 6.180455 -4.319238 1.887987 0
M  V30 43 H 6.827637 -3.767675 0.286345 0
M  V30 44 H 3.883278 -5.895348 0.879534 0
M  V30 45 H 1.543894 -5.287630 0.209040 0
M  V30 46 H 1.124379 -2.964258 -0.669731 0
M  V30 47 H 3.638353 0.469967 -5.941185 0
M  V30 48 H 2.221616 -0.403813 -5.336705 0
M  V30 49 H 3.813614 -0.801342 -4.679689 0
M  V30 50 H 1.884556 2.823851 -4.452067 0
M  V30 51 H 1.115243 1.739797 -3.188602 0
M  V30 52 H 1.078613 1.243313 -4.937395 0
M  V30 53 H 3.831442 2.782102 -4.815589 0
M  V30 54 H 5.080950 1.678995 -4.210282 0
M  V30 55 H 4.092991 2.715398 -3.037651 0
M  V30 56 H 2.688345 2.126899 -1.189804 0
M  V30 57 H 3.487689 0.374208 1.746930 0
M  V30 58 H 1.853595 0.361758 3.606377 0
M  V30 59 H -0.555812 2.274643 3.172455 0
M  V30 60 H -2.956612 2.056731 3.875304 0
M  V30 61 H -4.024840 -0.029244 5.477668 0
M  V30 62 H -8.574242 -0.371021 5.451739 0
M  V30 63 H -8.811770 -0.764287 0.887074 0
M  V30 64 H -7.101099 -0.786713 -0.940766 0
M  V30 65 H -3.979323 -0.316039 1.944975 0
M  V30 66 H -2.558977 -2.156733 4.200867 0
M  V30 67 H -0.141781 -2.006540 3.499616 0
M  V30 68 H 5.257004 -2.066922 -0.161650 0
M  V30 END ATOM
M  V30 BEGIN BOND
M  V30 1 1 1 2
M  V30 2 2 2 3
M  V30 3 1 3 4
M  V30 4 2 4 5
M  V30 5 1 5 6
M  V30 6 1 6 7
M  V30 7 1 7 8
M  V30 8 2 8 9
M  V30 9 1 9 10
M  V30 10 1 10 11
M  V30 11 1 10 12
M  V30 12 1 10 13
M  V30 13 1 9 14
M  V30 14 2 14 15
M  V30 15 1 15 16
M  V30 16 1 16 17
M  V30 17 2 17 18
M  V30 18 1 17 19
M  V30 19 1 19 20
M  V30 20 2 20 21
M  V30 21 1 21 22
M  V30 22 2 22 23
M  V30 23 1 23 24
M  V30 24 1 24 25
M  V30 25 2 25 26
M  V30 26 1 26 27
M  V30 27 2 27 28
M  V30 28 1 28 29
M  V30 29 2 29 30
M  V30 30 1 30 31
M  V30 31 2 31 32
M  V30 32 1 32 33
M  V30 33 2 33 34
M  V30 34 1 33 35
M  V30 35 1 32 36
M  V30 36 2 36 37
M  V30 37 1 23 38
M  V30 38 2 38 39
M  V30 39 2 6 40
M  V30 40 1 40 2
M  V30 41 1 15 7
M  V30 42 1 39 20
M  V30 43 1 37 25
M  V30 44 1 37 29
M  V30 45 1 1 41
M  V30 46 1 1 42
M  V30 47 1 1 43
M  V30 48 1 3 44
M  V30 49 1 4 45
M  V30 50 1 5 46
M  V30 51 1 11 47
M  V30 52 1 11 48
M  V30 53 1 11 49
M  V30 54 1 12 50
M  V30 55 1 12 51
M  V30 56 1 12 52
M  V30 57 1 13 53
M  V30 58 1 13 54
M  V30 59 1 13 55
M  V30 60 1 14 56
M  V30 61 1 16 57
M  V30 62 1 19 58
M  V30 63 1 21 59
M  V30 64 1 22 60
M  V30 65 1 24 61
M  V30 66 1 27 62
M  V30 67 1 30 63
M  V30 68 1 31 64
M  V30 69 1 36 65
M  V30 70 1 38 66
M  V30 71 1 39 67
M  V30 72 1 40 68
M  V30 END BOND
M  V30 END CTAB
M  END
>  <Dataset>  (841) 
ChEMBL_Kinases

>  <Ligand_Instance>  (841) 
nan

>  <PDB_ID>  (841) 
nan

>  <Standardized_SMILES>  (841) 
Cc1cccc(-n2nc(C(C)(C)C)cc2NC(=O)Nc2ccc(Nc3ncnc4ccc([N+](=O)[O-])cc34)cc2)c1

>  <Name>  (841) 
nan

>  <Pocket>  (841) 
nan

>  <ATP_Site>  (841) 
nan

>  <Peripheral>  (841) 
nan

>  <Num_H_Atoms_ProtBoundConf>  (841) 
nan

>  <Num_Resolved_Atoms>  (841) 
nan

>  <Num_Not_Resolved_Atoms>  (841) 
nan

$$$$
CHEMBL573428
     RDKit          3D

  0  0  0  0  0  0  0  0  0  0999 V3000
M  V30 BEGIN CTAB
M  V30 COUNTS 27 26 0 0 0
M  V30 BEGIN ATOM
M  V30 1 C 0.893725 2.142762 3.052302 0
M  V30 2 S 1.493586 0.532309 3.320173 0 CHG=1 VAL=3
M  V30 3 O 0.722918 -0.364484 4.459674 0 CHG=-1 VAL=1
M  V30 4 C 2.035655 -0.306922 1.904265 0
M  V30 5 C 0.971487 -0.498176 0.845423 0
M  V30 6 C -0.196020 -1.270806 1.305744 0
M  V30 7 C -1.294250 -1.497051 0.333451 0
M  V30 8 C -1.102223 -2.262929 -0.881786 0
M  V30 9 C -0.164602 -1.956148 -1.940812 0
M  V30 10 N -0.180623 -0.730592 -2.624257 0
M  V30 11 C -0.408213 0.429200 -2.224054 0
M  V30 12 S 0.314094 1.885710 -2.077523 0
M  V30 13 H 0.673222 2.394130 2.007320 0
M  V30 14 H 1.679646 2.886230 3.370194 0
M  V30 15 H 0.039988 2.360635 3.746206 0
M  V30 16 H 2.389402 -1.314501 2.207994 0
M  V30 17 H 2.915525 0.221086 1.483396 0
M  V30 18 H 1.405756 -0.891042 -0.076555 0
M  V30 19 H 0.636033 0.551848 0.591005 0
M  V30 20 H 0.107988 -2.299383 1.694130 0
M  V30 21 H -0.617308 -0.791272 2.241143 0
M  V30 22 H -2.094800 -2.066581 0.929592 0
M  V30 23 H -1.813124 -0.506960 0.196094 0
M  V30 24 H -0.845564 -3.329335 -0.539533 0
M  V30 25 H -2.136372 -2.460205 -1.338845 0
M  V30 26 H -0.440261 -2.718968 -2.785564 0
M  V30 27 H 0.859995 -2.282918 -1.720945 0
M  V30 END ATOM
M  V30 BEGIN BOND
M  V30 1 1 1 2
M  V30 2 1 2 3
M  V30 3 1 2 4
M  V30 4 1 4 5
M  V30 5 1 5 6
M  V30 6 1 6 7
M  V30 7 1 7 8
M  V30 8 1 8 9
M  V30 9 1 9 10
M  V30 10 2 10 11
M  V30 11 2 11 12
M  V30 12 1 1 13
M  V30 13 1 1 14
M  V30 14 1 1 15
M  V30 15 1 4 16
M  V30 16 1 4 17
M  V30 17 1 5 18
M  V30 18 1 5 19
M  V30 19 1 6 20
M  V30 20 1 6 21
M  V30 21 1 7 22
M  V30 22 1 7 23
M  V30 23 1 8 24
M  V30 24 1 8 25
M  V30 25 1 9 26
M  V30 26 1 9 27
M  V30 END BOND
M  V30 END CTAB
M  END
>  <Dataset>  (842) 
ChEMBL_Kinases

>  <Ligand_Instance>  (842) 
nan

>  <PDB_ID>  (842) 
nan

>  <Standardized_SMILES>  (842) 
C[S+]([O-])CCCCCCN=C=S

>  <Name>  (842) 
nan

>  <Pocket>  (842) 
nan

>  <ATP_Site>  (842) 
nan

>  <Peripheral>  (842) 
nan

>  <Num_H_Atoms_ProtBoundConf>  (842) 
nan

>  <Num_Resolved_Atoms>  (842) 
nan

>  <Num_Not_Resolved_Atoms>  (842) 
nan

$$$$
CHEMBL527652
     RDKit          3D

  0  0  0  0  0  0  0  0  0  0999 V3000
M  V30 BEGIN CTAB
M  V30 COUNTS 56 59 0 0 0
M  V30 BEGIN ATOM
M  V30 1 O -1.288092 -3.922911 0.558339 0
M  V30 2 C -0.232543 -3.368588 1.044744 0
M  V30 3 O 0.357674 -2.687000 2.152284 0
M  V30 4 C 1.760191 -2.504559 1.818088 0
M  V30 5 C 2.587890 -2.894473 3.050523 0
M  V30 6 O 3.936309 -2.760014 2.778193 0
M  V30 7 C 2.015577 -1.072630 1.515659 0
M  V30 8 O 1.315645 -0.375286 0.656585 0
M  V30 9 C 0.623354 0.314350 -0.194210 0
M  V30 10 O 1.241582 -0.364383 -1.018790 0
M  V30 11 C -0.391304 1.369009 -0.020288 0
M  V30 12 C 0.165317 2.350924 1.003464 0
M  V30 13 C 1.519868 2.497026 1.063918 0
M  V30 14 C 2.068842 3.342225 2.009507 0
M  V30 15 C 1.286717 4.041503 2.889406 0
M  V30 16 C -0.070789 3.868899 2.796474 0
M  V30 17 C -0.645314 3.036587 1.866631 0
M  V30 18 C -1.713589 0.920913 0.429787 0
M  V30 19 C -1.832014 0.470420 1.709659 0
M  V30 20 C -3.015861 0.065470 2.271188 0
M  V30 21 C -4.203775 0.079070 1.571331 0
M  V30 22 C -4.102265 0.535664 0.265613 0
M  V30 23 C -2.926550 0.933467 -0.285005 0
M  V30 24 C 2.084322 -3.434853 0.727254 0
M  V30 25 C 0.776639 -3.496163 -0.000105 0
M  V30 26 C 0.844592 -3.518717 -1.280440 0
M  V30 27 C -0.259569 -3.371842 -2.211117 0
M  V30 28 C -1.088191 -2.314667 -1.864781 0
M  V30 29 C -2.103710 -1.857597 -2.668363 0
M  V30 30 C -2.205769 -2.581029 -3.862521 0
M  V30 31 Cl -3.459357 -1.972320 -4.978414 0
M  V30 32 C -1.407967 -3.636665 -4.227011 0
M  V30 33 C -0.411055 -4.041229 -3.388323 0
M  V30 34 H 2.404494 -3.931198 3.332724 0
M  V30 35 H 2.363780 -2.172790 3.876077 0
M  V30 36 H 4.115553 -2.679859 1.796911 0
M  V30 37 H 2.293256 -0.460340 2.439565 0
M  V30 38 H 3.133694 -1.105802 1.058939 0
M  V30 39 H -0.477764 1.885282 -1.016587 0
M  V30 40 H 2.131437 1.921409 0.351350 0
M  V30 41 H 3.177918 3.364412 1.941565 0
M  V30 42 H 1.788459 4.672374 3.592014 0
M  V30 43 H -0.679374 4.426251 3.493175 0
M  V30 44 H -1.688937 2.895555 1.792147 0
M  V30 45 H -0.977588 0.409964 2.360578 0
M  V30 46 H -3.085920 -0.280185 3.311419 0
M  V30 47 H -5.118673 -0.231633 2.021533 0
M  V30 48 H -4.994412 0.554621 -0.322918 0
M  V30 49 H -2.840488 1.294640 -1.322574 0
M  V30 50 H 2.918810 -3.077548 0.115906 0
M  V30 51 H 2.242408 -4.481313 1.088631 0
M  V30 52 H 1.775178 -3.655506 -1.880305 0
M  V30 53 H -1.027081 -1.766820 -0.933111 0
M  V30 54 H -2.744893 -1.034951 -2.397377 0
M  V30 55 H -1.579723 -4.138917 -5.165987 0
M  V30 56 H 0.266569 -4.864110 -3.590107 0
M  V30 END ATOM
M  V30 BEGIN BOND
M  V30 1 2 1 2
M  V30 2 1 2 3
M  V30 3 1 3 4
M  V30 4 1 4 5
M  V30 5 1 5 6
M  V30 6 1 4 7
M  V30 7 1 7 8
M  V30 8 1 8 9
M  V30 9 2 9 10
M  V30 10 1 9 11
M  V30 11 1 11 12
M  V30 12 2 12 13
M  V30 13 1 13 14
M  V30 14 2 14 15
M  V30 15 1 15 16
M  V30 16 2 16 17
M  V30 17 1 11 18
M  V30 18 2 18 19
M  V30 19 1 19 20
M  V30 20 2 20 21
M  V30 21 1 21 22
M  V30 22 2 22 23
M  V30 23 1 4 24
M  V30 24 1 24 25
M  V30 25 2 25 26
M  V30 26 1 26 27
M  V30 27 2 27 28
M  V30 28 1 28 29
M  V30 29 2 29 30
M  V30 30 1 30 31
M  V30 31 1 30 32
M  V30 32 2 32 33
M  V30 33 1 25 2
M  V30 34 1 33 27
M  V30 35 1 17 12
M  V30 36 1 23 18
M  V30 37 1 5 34
M  V30 38 1 5 35
M  V30 39 1 6 36
M  V30 40 1 7 37
M  V30 41 1 7 38
M  V30 42 1 11 39
M  V30 43 1 13 40
M  V30 44 1 14 41
M  V30 45 1 15 42
M  V30 46 1 16 43
M  V30 47 1 17 44
M  V30 48 1 19 45
M  V30 49 1 20 46
M  V30 50 1 21 47
M  V30 51 1 22 48
M  V30 52 1 23 49
M  V30 53 1 24 50
M  V30 54 1 24 51
M  V30 55 1 26 52
M  V30 56 1 28 53
M  V30 57 1 29 54
M  V30 58 1 32 55
M  V30 59 1 33 56
M  V30 END BOND
M  V30 END CTAB
M  END
>  <Dataset>  (843) 
ChEMBL_Kinases

>  <Ligand_Instance>  (843) 
nan

>  <PDB_ID>  (843) 
nan

>  <Standardized_SMILES>  (843) 
O=C1OC(CO)(COC(=O)C(c2ccccc2)c2ccccc2)C/C1=C/c1ccc(Cl)cc1

>  <Name>  (843) 
nan

>  <Pocket>  (843) 
nan

>  <ATP_Site>  (843) 
nan

>  <Peripheral>  (843) 
nan

>  <Num_H_Atoms_ProtBoundConf>  (843) 
nan

>  <Num_Resolved_Atoms>  (843) 
nan

>  <Num_Not_Resolved_Atoms>  (843) 
nan

$$$$
CHEMBL3728683
     RDKit          3D

  0  0  0  0  0  0  0  0  0  0999 V3000
M  V30 BEGIN CTAB
M  V30 COUNTS 48 51 0 0 0
M  V30 BEGIN ATOM
M  V30 1 C 0.878082 -5.215615 4.399895 0
M  V30 2 C 1.979230 -5.218433 3.339473 0
M  V30 3 C 1.691901 -6.246641 2.268633 0
M  V30 4 O 3.205564 -5.558118 3.922998 0
M  V30 5 C 2.055424 -3.924772 2.663836 0
M  V30 6 C 2.140085 -2.836447 2.101789 0
M  V30 7 C 2.214364 -1.564722 1.440197 0
M  V30 8 C 3.491884 -0.961242 1.403531 0
M  V30 9 S 3.173711 0.656607 0.469897 0
M  V30 10 C 1.474695 0.335541 0.261913 0
M  V30 11 C 0.514216 1.118188 -0.369797 0
M  V30 12 N 0.925024 2.351230 -0.935680 0
M  V30 13 C -0.083460 3.155332 -1.589882 0 CFG=2
M  V30 14 C 0.524375 4.443620 -2.142420 0
M  V30 15 C 0.460704 5.342332 -0.926636 0
M  V30 16 N -0.804554 5.049242 -0.325965 0
M  V30 17 C -1.140418 3.684160 -0.672706 0
M  V30 18 N -0.778003 0.697692 -0.434029 0
M  V30 19 C -0.995405 -0.511067 0.161964 0
M  V30 20 C -2.379158 -1.023739 0.126445 0
M  V30 21 C -3.323214 -0.241417 -0.501365 0
M  V30 22 C -4.640745 -0.710526 -0.545352 0
M  V30 23 N -4.968072 -1.896864 0.014070 0
M  V30 24 C -4.011730 -2.622546 0.614426 0
M  V30 25 C -2.704415 -2.234036 0.699103 0
M  V30 26 F -1.741571 -2.985083 1.314432 0
M  V30 27 N -0.063256 -1.257266 0.767912 0
M  V30 28 C 1.218109 -0.853817 0.838810 0
M  V30 29 H 1.317130 -5.299210 5.404955 0
M  V30 30 H 0.186819 -6.060844 4.257555 0
M  V30 31 H 0.364931 -4.227011 4.374937 0
M  V30 32 H 2.658673 -6.437123 1.755951 0
M  V30 33 H 1.342483 -7.203609 2.679795 0
M  V30 34 H 0.947983 -5.767958 1.587176 0
M  V30 35 H 3.430226 -5.009574 4.714620 0
M  V30 36 H 4.469597 -1.290233 1.797147 0
M  V30 37 H 1.902698 2.681837 -0.893584 0
M  V30 38 H -0.535838 2.628912 -2.455576 0
M  V30 39 H 1.588209 4.287392 -2.411109 0
M  V30 40 H -0.075536 4.870180 -2.944285 0
M  V30 41 H 0.472271 6.395176 -1.244193 0
M  V30 42 H 1.339770 5.151891 -0.285254 0
M  V30 43 H -0.822509 5.235931 0.686988 0
M  V30 44 H -1.222242 3.128277 0.274785 0
M  V30 45 H -2.111879 3.738350 -1.222469 0
M  V30 46 H -3.121927 0.728127 -0.973338 0
M  V30 47 H -5.391202 -0.111982 -1.031971 0
M  V30 48 H -4.308997 -3.577335 1.057106 0
M  V30 END ATOM
M  V30 BEGIN BOND
M  V30 1 1 1 2
M  V30 2 1 2 3
M  V30 3 1 2 4
M  V30 4 1 2 5
M  V30 5 3 5 6
M  V30 6 1 6 7
M  V30 7 2 7 8
M  V30 8 1 8 9
M  V30 9 1 9 10
M  V30 10 2 10 11
M  V30 11 1 11 12
M  V30 12 1 12 13
M  V30 13 1 13 14
M  V30 14 1 14 15
M  V30 15 1 15 16
M  V30 16 1 16 17
M  V30 17 1 11 18
M  V30 18 2 18 19
M  V30 19 1 19 20
M  V30 20 2 20 21
M  V30 21 1 21 22
M  V30 22 2 22 23
M  V30 23 1 23 24
M  V30 24 2 24 25
M  V30 25 1 25 26
M  V30 26 1 19 27
M  V30 27 2 27 28
M  V30 28 1 28 7
M  V30 29 1 28 10
M  V30 30 1 17 13
M  V30 31 1 25 20
M  V30 32 1 1 29
M  V30 33 1 1 30
M  V30 34 1 1 31
M  V30 35 1 3 32
M  V30 36 1 3 33
M  V30 37 1 3 34
M  V30 38 1 4 35
M  V30 39 1 8 36
M  V30 40 1 12 37
M  V30 41 1 13 38 CFG=3
M  V30 42 1 14 39
M  V30 43 1 14 40
M  V30 44 1 15 41
M  V30 45 1 15 42
M  V30 46 1 16 43
M  V30 47 1 17 44
M  V30 48 1 17 45
M  V30 49 1 21 46
M  V30 50 1 22 47
M  V30 51 1 24 48
M  V30 END BOND
M  V30 END CTAB
M  END
>  <Dataset>  (844) 
ChEMBL_Kinases

>  <Ligand_Instance>  (844) 
nan

>  <PDB_ID>  (844) 
nan

>  <Standardized_SMILES>  (844) 
CC(C)(O)C#Cc1csc2c(N[C@@H]3CCNC3)nc(-c3ccncc3F)nc12

>  <Name>  (844) 
nan

>  <Pocket>  (844) 
nan

>  <ATP_Site>  (844) 
nan

>  <Peripheral>  (844) 
nan

>  <Num_H_Atoms_ProtBoundConf>  (844) 
nan

>  <Num_Resolved_Atoms>  (844) 
nan

>  <Num_Not_Resolved_Atoms>  (844) 
nan

$$$$
CHEMBL573287
     RDKit          3D

  0  0  0  0  0  0  0  0  0  0999 V3000
M  V30 BEGIN CTAB
M  V30 COUNTS 52 55 0 0 0
M  V30 BEGIN ATOM
M  V30 1 C -1.359988 -6.913946 2.694044 0
M  V30 2 O -0.022422 -6.559663 2.974600 0
M  V30 3 C 0.564199 -5.578610 2.186202 0
M  V30 4 C 1.886280 -5.300146 2.542701 0
M  V30 5 C 2.583456 -4.331351 1.823320 0
M  V30 6 C 1.911279 -3.701862 0.790871 0
M  V30 7 N 2.602162 -2.716750 0.049674 0
M  V30 8 C 2.143254 -1.927225 -1.046035 0
M  V30 9 C 1.578114 -0.748674 -0.658683 0
M  V30 10 C 1.074987 0.148324 -1.595336 0
M  V30 11 O 0.462326 1.379637 -1.567032 0
M  V30 12 C 0.065933 2.060788 -0.447339 0
M  V30 13 C 0.802367 3.244105 -0.348418 0
M  V30 14 C 0.607856 4.145978 0.705413 0
M  V30 15 C 1.332044 5.405173 0.887896 0
M  V30 16 C -0.348100 3.825595 1.657898 0
M  V30 17 C -0.602576 4.742517 2.804325 0
M  V30 18 N -1.051376 2.684094 1.551861 0
M  V30 19 C -0.860526 1.823537 0.538609 0
M  V30 20 C -1.652795 0.615899 0.420197 0
M  V30 21 C -3.001446 0.940330 0.630852 0
M  V30 22 C -4.057761 0.037730 0.599374 0
M  V30 23 C -3.787500 -1.290599 0.342607 0
M  V30 24 C -2.462787 -1.607142 0.136064 0
M  V30 25 N -1.513597 -0.669261 0.185873 0
M  V30 26 C 1.184977 -0.231579 -2.937360 0
M  V30 27 C 1.772768 -1.452036 -3.295251 0
M  V30 28 N 2.242990 -2.280598 -2.338030 0
M  V30 29 C 0.605370 -3.987680 0.450625 0
M  V30 30 C -0.094060 -4.943449 1.154484 0
M  V30 31 H -1.790778 -7.560593 3.485206 0
M  V30 32 H -1.396386 -7.405801 1.704553 0
M  V30 33 H -1.965987 -5.974605 2.684659 0
M  V30 34 H 2.399207 -5.788716 3.339612 0
M  V30 35 H 3.606314 -4.120843 2.104626 0
M  V30 36 H 3.572474 -2.418525 0.202409 0
M  V30 37 H 1.419392 -0.314199 0.320902 0
M  V30 38 H 1.573409 3.616877 -1.015073 0
M  V30 39 H 0.619094 6.233097 0.767060 0
M  V30 40 H 1.912878 5.454571 1.828023 0
M  V30 41 H 2.075808 5.489620 0.055860 0
M  V30 42 H -1.523374 4.418423 3.330942 0
M  V30 43 H -0.777107 5.786007 2.509806 0
M  V30 44 H 0.230966 4.600796 3.526320 0
M  V30 45 H -3.413745 1.941430 0.848443 0
M  V30 46 H -5.091291 0.261483 0.756594 0
M  V30 47 H -4.455381 -2.132906 0.276567 0
M  V30 48 H -2.062096 -2.588072 -0.076727 0
M  V30 49 H 0.875189 0.281996 -3.840204 0
M  V30 50 H 1.905090 -1.834607 -4.283881 0
M  V30 51 H 0.157122 -3.454150 -0.363650 0
M  V30 52 H -1.111890 -5.200961 0.927636 0
M  V30 END ATOM
M  V30 BEGIN BOND
M  V30 1 1 1 2
M  V30 2 1 2 3
M  V30 3 2 3 4
M  V30 4 1 4 5
M  V30 5 2 5 6
M  V30 6 1 6 7
M  V30 7 1 7 8
M  V30 8 2 8 9
M  V30 9 1 9 10
M  V30 10 1 10 11
M  V30 11 1 11 12
M  V30 12 2 12 13
M  V30 13 1 13 14
M  V30 14 1 14 15
M  V30 15 2 14 16
M  V30 16 1 16 17
M  V30 17 1 16 18
M  V30 18 2 18 19
M  V30 19 1 19 20
M  V30 20 2 20 21
M  V30 21 1 21 22
M  V30 22 2 22 23
M  V30 23 1 23 24
M  V30 24 2 24 25
M  V30 25 2 10 26
M  V30 26 1 26 27
M  V30 27 2 27 28
M  V30 28 1 6 29
M  V30 29 2 29 30
M  V30 30 1 30 3
M  V30 31 1 28 8
M  V30 32 1 19 12
M  V30 33 1 25 20
M  V30 34 1 1 31
M  V30 35 1 1 32
M  V30 36 1 1 33
M  V30 37 1 4 34
M  V30 38 1 5 35
M  V30 39 1 7 36
M  V30 40 1 9 37
M  V30 41 1 13 38
M  V30 42 1 15 39
M  V30 43 1 15 40
M  V30 44 1 15 41
M  V30 45 1 17 42
M  V30 46 1 17 43
M  V30 47 1 17 44
M  V30 48 1 21 45
M  V30 49 1 22 46
M  V30 50 1 23 47
M  V30 51 1 24 48
M  V30 52 1 26 49
M  V30 53 1 27 50
M  V30 54 1 29 51
M  V30 55 1 30 52
M  V30 END BOND
M  V30 END CTAB
M  END
>  <Dataset>  (845) 
ChEMBL_Kinases

>  <Ligand_Instance>  (845) 
nan

>  <PDB_ID>  (845) 
nan

>  <Standardized_SMILES>  (845) 
COc1ccc(Nc2cc(Oc3cc(C)c(C)nc3-c3ccccn3)ccn2)cc1

>  <Name>  (845) 
nan

>  <Pocket>  (845) 
nan

>  <ATP_Site>  (845) 
nan

>  <Peripheral>  (845) 
nan

>  <Num_H_Atoms_ProtBoundConf>  (845) 
nan

>  <Num_Resolved_Atoms>  (845) 
nan

>  <Num_Not_Resolved_Atoms>  (845) 
nan

$$$$
CHEMBL3728676
     RDKit          3D

  0  0  0  0  0  0  0  0  0  0999 V3000
M  V30 BEGIN CTAB
M  V30 COUNTS 45 48 0 0 0
M  V30 BEGIN ATOM
M  V30 1 C 1.095900 -3.389431 -1.303553 0
M  V30 2 C 1.114994 -1.982883 -1.848569 0 CFG=1
M  V30 3 N 1.379922 -2.137575 -3.289066 0
M  V30 4 C -0.235556 -1.303454 -1.764112 0
M  V30 5 N -0.722543 -1.199103 -0.420651 0
M  V30 6 C -0.022196 -0.438424 0.555790 0
M  V30 7 N 1.098254 0.147288 0.127853 0
M  V30 8 C 1.938605 0.899571 0.813421 0
M  V30 9 C 3.144183 1.513625 0.297010 0
M  V30 10 C 3.550215 1.373054 -1.008251 0
M  V30 11 C 4.723112 2.006498 -1.391717 0
M  V30 12 N 5.467742 2.738881 -0.559228 0
M  V30 13 C 5.097300 2.896131 0.726055 0
M  V30 14 C 3.939378 2.270827 1.104825 0
M  V30 15 F 3.559747 2.426273 2.403416 0
M  V30 16 N 1.590795 1.075225 2.096170 0
M  V30 17 C 0.471812 0.499226 2.551830 0
M  V30 18 S -0.188593 0.588095 4.208724 0
M  V30 19 C -1.619188 -0.435824 3.867903 0
M  V30 20 C -1.485634 -0.767305 2.519020 0
M  V30 21 C -0.406675 -0.276459 1.868650 0
M  V30 22 C -2.675225 -1.601448 2.271149 0
M  V30 23 C -3.901007 -0.728842 2.618802 0
M  V30 24 C -4.045469 -0.639075 4.126199 0
M  V30 25 C -2.699788 -0.846212 4.799073 0
M  V30 26 H 0.103566 -3.823996 -1.526066 0
M  V30 27 H 1.866818 -4.024568 -1.792648 0
M  V30 28 H 1.312095 -3.432181 -0.211360 0
M  V30 29 H 1.951913 -1.366000 -1.484269 0
M  V30 30 H 2.151975 -2.847499 -3.329229 0
M  V30 31 H 0.535587 -2.569197 -3.710985 0
M  V30 32 H -0.020702 -0.232133 -2.087359 0
M  V30 33 H -0.892248 -1.707106 -2.517612 0
M  V30 34 H -1.570837 -1.777209 -0.485026 0
M  V30 35 H 2.975654 0.790016 -1.710081 0
M  V30 36 H 5.000732 1.865445 -2.430555 0
M  V30 37 H 5.690253 3.489009 1.420486 0
M  V30 38 H -2.714129 -2.491889 2.948624 0
M  V30 39 H -2.863427 -1.908115 1.239459 0
M  V30 40 H -3.683249 0.282209 2.232526 0
M  V30 41 H -4.823113 -1.152038 2.195267 0
M  V30 42 H -4.806408 -1.372328 4.446562 0
M  V30 43 H -4.370614 0.391824 4.369867 0
M  V30 44 H -2.605024 -0.260421 5.721664 0
M  V30 45 H -2.580090 -1.915487 5.060136 0
M  V30 END ATOM
M  V30 BEGIN BOND
M  V30 1 1 1 2
M  V30 2 1 2 3
M  V30 3 1 2 4
M  V30 4 1 4 5
M  V30 5 1 5 6
M  V30 6 2 6 7
M  V30 7 1 7 8
M  V30 8 1 8 9
M  V30 9 2 9 10
M  V30 10 1 10 11
M  V30 11 2 11 12
M  V30 12 1 12 13
M  V30 13 2 13 14
M  V30 14 1 14 15
M  V30 15 2 8 16
M  V30 16 1 16 17
M  V30 17 1 17 18
M  V30 18 1 18 19
M  V30 19 2 19 20
M  V30 20 1 20 21
M  V30 21 1 20 22
M  V30 22 1 22 23
M  V30 23 1 23 24
M  V30 24 1 24 25
M  V30 25 1 21 6
M  V30 26 1 14 9
M  V30 27 2 21 17
M  V30 28 1 25 19
M  V30 29 1 1 26
M  V30 30 1 1 27
M  V30 31 1 1 28
M  V30 32 1 2 29 CFG=1
M  V30 33 1 3 30
M  V30 34 1 3 31
M  V30 35 1 4 32
M  V30 36 1 4 33
M  V30 37 1 5 34
M  V30 38 1 10 35
M  V30 39 1 11 36
M  V30 40 1 13 37
M  V30 41 1 22 38
M  V30 42 1 22 39
M  V30 43 1 23 40
M  V30 44 1 23 41
M  V30 45 1 24 42
M  V30 46 1 24 43
M  V30 47 1 25 44
M  V30 48 1 25 45
M  V30 END BOND
M  V30 END CTAB
M  END
>  <Dataset>  (846) 
ChEMBL_Kinases

>  <Ligand_Instance>  (846) 
nan

>  <PDB_ID>  (846) 
nan

>  <Standardized_SMILES>  (846) 
C[C@@H](N)CNc1nc(-c2ccncc2F)nc2sc3c(c12)CCCC3

>  <Name>  (846) 
nan

>  <Pocket>  (846) 
nan

>  <ATP_Site>  (846) 
nan

>  <Peripheral>  (846) 
nan

>  <Num_H_Atoms_ProtBoundConf>  (846) 
nan

>  <Num_Resolved_Atoms>  (846) 
nan

>  <Num_Not_Resolved_Atoms>  (846) 
nan

$$$$
CHEMBL529221
     RDKit          3D

  0  0  0  0  0  0  0  0  0  0999 V3000
M  V30 BEGIN CTAB
M  V30 COUNTS 57 58 0 0 0
M  V30 BEGIN ATOM
M  V30 1 C -2.194605 -3.977883 1.002208 0
M  V30 2 C -0.965372 -4.794309 0.617085 0
M  V30 3 C -0.228282 -4.229493 -0.526563 0
M  V30 4 C 0.308377 -2.807056 -0.332469 0
M  V30 5 C 1.285275 -2.600426 0.702868 0
M  V30 6 C 1.820863 -1.221056 0.968541 0
M  V30 7 C 2.235084 -0.246745 0.139908 0
M  V30 8 C 2.775192 1.148946 0.192468 0
M  V30 9 C 2.261456 1.732588 -1.108034 0
M  V30 10 C 3.373948 2.464581 -1.841065 0
M  V30 11 O 3.835564 3.549816 -1.124661 0
M  V30 12 C 1.037654 2.599482 -0.911050 0
M  V30 13 O 0.052481 1.811499 -0.295982 0
M  V30 14 C -1.184256 2.382949 -0.003383 0
M  V30 15 O -1.191414 3.595985 -0.373397 0
M  V30 16 C -2.293083 1.712506 0.622412 0
M  V30 17 C -2.273404 0.396438 1.019519 0
M  V30 18 C -3.405703 -0.124413 1.608210 0
M  V30 19 C -4.563880 0.609513 1.820984 0
M  V30 20 C -5.736044 -0.041195 2.464720 0
M  V30 21 C -4.563708 1.943317 1.410912 0
M  V30 22 C -3.431271 2.466667 0.821395 0
M  V30 23 O 1.871141 0.645601 -1.935508 0
M  V30 24 C 2.322166 -0.516476 -1.308832 0
M  V30 25 O 2.753757 -1.650750 -1.695389 0
M  V30 26 C 2.208772 -3.668337 1.196790 0
M  V30 27 C 3.127915 -4.275920 0.182522 0
M  V30 28 H -2.734268 -4.594759 1.757543 0
M  V30 29 H -1.917523 -2.995128 1.384809 0
M  V30 30 H -2.857724 -3.952622 0.120823 0
M  V30 31 H -0.455195 -5.063409 1.522028 0
M  V30 32 H -1.417829 -5.765342 0.235593 0
M  V30 33 H 0.532193 -4.941030 -0.852015 0
M  V30 34 H -0.962455 -4.181977 -1.386289 0
M  V30 35 H -0.655013 -2.244019 -0.033496 0
M  V30 36 H 0.429022 -2.451271 -1.365265 0
M  V30 37 H 0.544767 -2.618609 1.617472 0
M  V30 38 H 1.941991 -0.832719 2.015953 0
M  V30 39 H 3.880055 1.174548 0.246283 0
M  V30 40 H 2.382467 1.707457 1.051035 0
M  V30 41 H 4.187568 1.734203 -2.006275 0
M  V30 42 H 3.052763 2.801406 -2.835720 0
M  V30 43 H 3.764638 3.375425 -0.158019 0
M  V30 44 H 1.264465 3.531871 -0.357373 0
M  V30 45 H 0.671386 2.831731 -1.943373 0
M  V30 46 H -1.363461 -0.121788 0.834428 0
M  V30 47 H -3.382307 -1.168912 1.920426 0
M  V30 48 H -5.965929 -0.974164 1.887353 0
M  V30 49 H -5.427853 -0.387903 3.485763 0
M  V30 50 H -6.575840 0.664955 2.469854 0
M  V30 51 H -5.475395 2.506545 1.582850 0
M  V30 52 H -3.539812 3.517164 0.539541 0
M  V30 53 H 1.753429 -4.508923 1.741845 0
M  V30 54 H 2.805898 -3.191268 2.045419 0
M  V30 55 H 4.096735 -3.703497 0.239397 0
M  V30 56 H 3.436000 -5.324759 0.468782 0
M  V30 57 H 2.810618 -4.242789 -0.852488 0
M  V30 END ATOM
M  V30 BEGIN BOND
M  V30 1 1 1 2
M  V30 2 1 2 3
M  V30 3 1 3 4
M  V30 4 1 4 5
M  V30 5 1 5 6
M  V30 6 2 6 7
M  V30 7 1 7 8
M  V30 8 1 8 9
M  V30 9 1 9 10
M  V30 10 1 10 11
M  V30 11 1 9 12
M  V30 12 1 12 13
M  V30 13 1 13 14
M  V30 14 2 14 15
M  V30 15 1 14 16
M  V30 16 2 16 17
M  V30 17 1 17 18
M  V30 18 2 18 19
M  V30 19 1 19 20
M  V30 20 1 19 21
M  V30 21 2 21 22
M  V30 22 1 9 23
M  V30 23 1 23 24
M  V30 24 2 24 25
M  V30 25 1 5 26
M  V30 26 1 26 27
M  V30 27 1 24 7
M  V30 28 1 22 16
M  V30 29 1 1 28
M  V30 30 1 1 29
M  V30 31 1 1 30
M  V30 32 1 2 31
M  V30 33 1 2 32
M  V30 34 1 3 33
M  V30 35 1 3 34
M  V30 36 1 4 35
M  V30 37 1 4 36
M  V30 38 1 5 37
M  V30 39 1 6 38
M  V30 40 1 8 39
M  V30 41 1 8 40
M  V30 42 1 10 41
M  V30 43 1 10 42
M  V30 44 1 11 43
M  V30 45 1 12 44
M  V30 46 1 12 45
M  V30 47 1 17 46
M  V30 48 1 18 47
M  V30 49 1 20 48
M  V30 50 1 20 49
M  V30 51 1 20 50
M  V30 52 1 21 51
M  V30 53 1 22 52
M  V30 54 1 26 53
M  V30 55 1 26 54
M  V30 56 1 27 55
M  V30 57 1 27 56
M  V30 58 1 27 57
M  V30 END BOND
M  V30 END CTAB
M  END
>  <Dataset>  (847) 
ChEMBL_Kinases

>  <Ligand_Instance>  (847) 
nan

>  <PDB_ID>  (847) 
nan

>  <Standardized_SMILES>  (847) 
CCCCC(/C=C1/CC(CO)(COC(=O)c2ccc(C)cc2)OC1=O)CC

>  <Name>  (847) 
nan

>  <Pocket>  (847) 
nan

>  <ATP_Site>  (847) 
nan

>  <Peripheral>  (847) 
nan

>  <Num_H_Atoms_ProtBoundConf>  (847) 
nan

>  <Num_Resolved_Atoms>  (847) 
nan

>  <Num_Not_Resolved_Atoms>  (847) 
nan

$$$$
CHEMBL3728670
     RDKit          3D

  0  0  0  0  0  0  0  0  0  0999 V3000
M  V30 BEGIN CTAB
M  V30 COUNTS 53 56 0 0 0
M  V30 BEGIN ATOM
M  V30 1 C 1.260517 -2.132800 5.010995 0
M  V30 2 C 0.191009 -1.795510 4.033263 0
M  V30 3 C -1.122259 -1.609035 4.814562 0
M  V30 4 C 0.369347 -0.562463 3.238038 0
M  V30 5 C 1.545297 -0.443861 2.362918 0 CFG=1
M  V30 6 N 2.760610 -0.526926 3.123181 0
M  V30 7 C 1.632800 -1.457671 1.264117 0
M  V30 8 O 0.565163 -1.540463 0.418356 0
M  V30 9 C 0.011139 -0.590012 -0.407772 0
M  V30 10 N 0.608477 0.592723 -0.377606 0
M  V30 11 C 0.262828 1.680702 -1.085944 0
M  V30 12 C 0.930429 2.972298 -1.040569 0
M  V30 13 C 2.023938 3.158856 -0.214457 0
M  V30 14 C 2.654804 4.390874 -0.176134 0
M  V30 15 N 2.219744 5.414361 -0.932694 0
M  V30 16 C 1.156213 5.220169 -1.731200 0
M  V30 17 C 0.469349 4.029530 -1.831681 0
M  V30 18 N -0.798775 1.510282 -1.892480 0
M  V30 19 C -1.443162 0.279524 -1.942624 0
M  V30 20 S -2.843416 -0.255578 -2.885421 0
M  V30 21 C -2.859138 -1.867399 -2.270078 0
M  V30 22 C -1.813709 -1.901025 -1.397349 0
M  V30 23 C -1.084804 -0.790589 -1.230828 0
M  V30 24 C -1.720694 -3.283346 -0.782413 0
M  V30 25 C -1.568631 -4.330218 -1.871175 0
M  V30 26 C -2.717726 -4.269495 -2.854331 0
M  V30 27 C -3.673096 -3.176419 -2.429169 0
M  V30 28 H 1.877337 -1.282759 5.359925 0
M  V30 29 H 0.776023 -2.544340 5.950258 0
M  V30 30 H 1.911916 -2.981094 4.684771 0
M  V30 31 H 0.003254 -2.707911 3.424943 0
M  V30 32 H -1.641146 -2.577436 4.974563 0
M  V30 33 H -0.911814 -1.050473 5.743223 0
M  V30 34 H -1.837831 -0.966445 4.230941 0
M  V30 35 H 0.412680 0.291313 3.980004 0
M  V30 36 H -0.609481 -0.368467 2.712819 0
M  V30 37 H 1.559990 0.558655 1.868973 0
M  V30 38 H 3.124885 -1.457006 3.322072 0
M  V30 39 H 2.897490 0.213159 3.817659 0
M  V30 40 H 1.809683 -2.456779 1.713714 0
M  V30 41 H 2.546859 -1.231479 0.684907 0
M  V30 42 H 2.381115 2.344008 0.396720 0
M  V30 43 H 3.506580 4.484522 0.487543 0
M  V30 44 H 0.875978 6.099239 -2.304257 0
M  V30 45 H -0.375333 3.933033 -2.488355 0
M  V30 46 H -2.596422 -3.499168 -0.138119 0
M  V30 47 H -0.819229 -3.374210 -0.151282 0
M  V30 48 H -1.559066 -5.306744 -1.355693 0
M  V30 49 H -0.585593 -4.115445 -2.350036 0
M  V30 50 H -2.303115 -4.112659 -3.869820 0
M  V30 51 H -3.318736 -5.201348 -2.849577 0
M  V30 52 H -4.427877 -2.961812 -3.207724 0
M  V30 53 H -4.128337 -3.458847 -1.482074 0
M  V30 END ATOM
M  V30 BEGIN BOND
M  V30 1 1 1 2
M  V30 2 1 2 3
M  V30 3 1 2 4
M  V30 4 1 4 5
M  V30 5 1 5 6
M  V30 6 1 5 7
M  V30 7 1 7 8
M  V30 8 1 8 9
M  V30 9 2 9 10
M  V30 10 1 10 11
M  V30 11 1 11 12
M  V30 12 2 12 13
M  V30 13 1 13 14
M  V30 14 2 14 15
M  V30 15 1 15 16
M  V30 16 2 16 17
M  V30 17 2 11 18
M  V30 18 1 18 19
M  V30 19 1 19 20
M  V30 20 1 20 21
M  V30 21 2 21 22
M  V30 22 1 22 23
M  V30 23 1 22 24
M  V30 24 1 24 25
M  V30 25 1 25 26
M  V30 26 1 26 27
M  V30 27 1 23 9
M  V30 28 1 17 12
M  V30 29 2 23 19
M  V30 30 1 27 21
M  V30 31 1 1 28
M  V30 32 1 1 29
M  V30 33 1 1 30
M  V30 34 1 2 31
M  V30 35 1 3 32
M  V30 36 1 3 33
M  V30 37 1 3 34
M  V30 38 1 4 35
M  V30 39 1 4 36
M  V30 40 1 5 37 CFG=3
M  V30 41 1 6 38
M  V30 42 1 6 39
M  V30 43 1 7 40
M  V30 44 1 7 41
M  V30 45 1 13 42
M  V30 46 1 14 43
M  V30 47 1 16 44
M  V30 48 1 17 45
M  V30 49 1 24 46
M  V30 50 1 24 47
M  V30 51 1 25 48
M  V30 52 1 25 49
M  V30 53 1 26 50
M  V30 54 1 26 51
M  V30 55 1 27 52
M  V30 56 1 27 53
M  V30 END BOND
M  V30 END CTAB
M  END
>  <Dataset>  (848) 
ChEMBL_Kinases

>  <Ligand_Instance>  (848) 
nan

>  <PDB_ID>  (848) 
nan

>  <Standardized_SMILES>  (848) 
CC(C)C[C@@H](N)COc1nc(-c2ccncc2)nc2sc3c(c12)CCCC3

>  <Name>  (848) 
nan

>  <Pocket>  (848) 
nan

>  <ATP_Site>  (848) 
nan

>  <Peripheral>  (848) 
nan

>  <Num_H_Atoms_ProtBoundConf>  (848) 
nan

>  <Num_Resolved_Atoms>  (848) 
nan

>  <Num_Not_Resolved_Atoms>  (848) 
nan

$$$$
CHEMBL527653
     RDKit          3D

  0  0  0  0  0  0  0  0  0  0999 V3000
M  V30 BEGIN CTAB
M  V30 COUNTS 58 60 0 0 0
M  V30 BEGIN ATOM
M  V30 1 C 2.943437 -5.931377 3.498357 0
M  V30 2 C 2.833808 -4.763195 2.587968 0
M  V30 3 C 3.132601 -3.509927 3.073265 0
M  V30 4 C 3.049774 -2.367412 2.268309 0
M  V30 5 C 3.399178 -1.081152 2.914468 0
M  V30 6 C 2.661810 -2.464247 0.949802 0
M  V30 7 C 2.574063 -1.255376 0.102160 0
M  V30 8 O 2.214943 -1.438361 -1.077886 0
M  V30 9 O 2.878277 -0.039686 0.629056 0
M  V30 10 C 2.851947 1.191792 0.020935 0
M  V30 11 C 1.481843 1.607151 -0.390674 0
M  V30 12 C 1.441568 3.036335 -0.906530 0
M  V30 13 O 2.168127 3.195340 -2.071353 0
M  V30 14 C 0.491968 1.534199 0.773432 0
M  V30 15 C -0.758834 1.129898 0.090352 0
M  V30 16 C -1.997884 1.029689 0.495136 0
M  V30 17 C -3.251895 0.631616 -0.163007 0
M  V30 18 C -3.960684 -0.480407 0.614844 0
M  V30 19 C -5.068367 -0.991746 -0.248062 0
M  V30 20 C -5.439505 -0.088827 -1.373973 0
M  V30 21 C -5.397518 1.373223 -1.036524 0
M  V30 22 C -4.280036 1.776768 -0.123395 0
M  V30 23 C -0.451204 0.799593 -1.294244 0
M  V30 24 O -1.203610 0.628422 -2.267924 0
M  V30 25 O 0.955441 0.704953 -1.321137 0
M  V30 26 C 2.354461 -3.732036 0.440913 0
M  V30 27 C 1.935979 -3.898993 -0.953060 0
M  V30 28 C 2.446739 -4.853945 1.269573 0
M  V30 29 H 2.582041 -5.682943 4.530089 0
M  V30 30 H 3.987501 -6.321163 3.580867 0
M  V30 31 H 2.268016 -6.726571 3.132521 0
M  V30 32 H 3.436098 -3.423560 4.100374 0
M  V30 33 H 2.554654 -0.371224 2.892943 0
M  V30 34 H 4.253984 -0.600396 2.395509 0
M  V30 35 H 3.772413 -1.240136 3.961496 0
M  V30 36 H 3.480088 1.181071 -0.916075 0
M  V30 37 H 3.357686 1.955607 0.656604 0
M  V30 38 H 1.822161 3.670285 -0.079748 0
M  V30 39 H 0.368975 3.302187 -1.045496 0
M  V30 40 H 2.042436 2.380460 -2.646759 0
M  V30 41 H 0.885342 0.710928 1.429290 0
M  V30 42 H 0.415677 2.506564 1.295551 0
M  V30 43 H -2.206084 1.284977 1.542422 0
M  V30 44 H -3.180467 0.381214 -1.231409 0
M  V30 45 H -4.406006 0.001085 1.508642 0
M  V30 46 H -3.243209 -1.256868 0.947936 0
M  V30 47 H -5.948951 -1.371368 0.337191 0
M  V30 48 H -4.666330 -1.928925 -0.728396 0
M  V30 49 H -6.503898 -0.325164 -1.640141 0
M  V30 50 H -4.845633 -0.299127 -2.284906 0
M  V30 51 H -6.391723 1.739152 -0.645861 0
M  V30 52 H -5.262557 1.919905 -1.992884 0
M  V30 53 H -4.677240 1.861592 0.918803 0
M  V30 54 H -3.762710 2.703985 -0.410290 0
M  V30 55 H 0.984265 -3.402411 -1.226255 0
M  V30 56 H 1.729572 -4.993805 -1.142210 0
M  V30 57 H 2.685185 -3.621781 -1.712197 0
M  V30 58 H 2.206892 -5.813712 0.858856 0
M  V30 END ATOM
M  V30 BEGIN BOND
M  V30 1 1 1 2
M  V30 2 2 2 3
M  V30 3 1 3 4
M  V30 4 1 4 5
M  V30 5 2 4 6
M  V30 6 1 6 7
M  V30 7 2 7 8
M  V30 8 1 7 9
M  V30 9 1 9 10
M  V30 10 1 10 11
M  V30 11 1 11 12
M  V30 12 1 12 13
M  V30 13 1 11 14
M  V30 14 1 14 15
M  V30 15 2 15 16
M  V30 16 1 16 17
M  V30 17 1 17 18
M  V30 18 1 18 19
M  V30 19 1 19 20
M  V30 20 1 20 21
M  V30 21 1 21 22
M  V30 22 1 15 23
M  V30 23 2 23 24
M  V30 24 1 23 25
M  V30 25 1 6 26
M  V30 26 1 26 27
M  V30 27 2 26 28
M  V30 28 1 28 2
M  V30 29 1 25 11
M  V30 30 1 22 17
M  V30 31 1 1 29
M  V30 32 1 1 30
M  V30 33 1 1 31
M  V30 34 1 3 32
M  V30 35 1 5 33
M  V30 36 1 5 34
M  V30 37 1 5 35
M  V30 38 1 10 36
M  V30 39 1 10 37
M  V30 40 1 12 38
M  V30 41 1 12 39
M  V30 42 1 13 40
M  V30 43 1 14 41
M  V30 44 1 14 42
M  V30 45 1 16 43
M  V30 46 1 17 44
M  V30 47 1 18 45
M  V30 48 1 18 46
M  V30 49 1 19 47
M  V30 50 1 19 48
M  V30 51 1 20 49
M  V30 52 1 20 50
M  V30 53 1 21 51
M  V30 54 1 21 52
M  V30 55 1 22 53
M  V30 56 1 22 54
M  V30 57 1 27 55
M  V30 58 1 27 56
M  V30 59 1 27 57
M  V30 60 1 28 58
M  V30 END BOND
M  V30 END CTAB
M  END
>  <Dataset>  (849) 
ChEMBL_Kinases

>  <Ligand_Instance>  (849) 
nan

>  <PDB_ID>  (849) 
nan

>  <Standardized_SMILES>  (849) 
Cc1cc(C)c(C(=O)OCC2(CO)C/C(=C/C3CCCCC3)C(=O)O2)c(C)c1

>  <Name>  (849) 
nan

>  <Pocket>  (849) 
nan

>  <ATP_Site>  (849) 
nan

>  <Peripheral>  (849) 
nan

>  <Num_H_Atoms_ProtBoundConf>  (849) 
nan

>  <Num_Resolved_Atoms>  (849) 
nan

>  <Num_Not_Resolved_Atoms>  (849) 
nan

$$$$
CHEMBL527875
     RDKit          3D

  0  0  0  0  0  0  0  0  0  0999 V3000
M  V30 BEGIN CTAB
M  V30 COUNTS 54 55 0 0 0
M  V30 BEGIN ATOM
M  V30 1 C -0.714416 -1.379879 4.538070 0
M  V30 2 C 0.526012 -1.818580 3.750074 0
M  V30 3 C 1.297810 -0.623786 3.255956 0
M  V30 4 C 2.499163 -1.117302 2.482661 0
M  V30 5 C 3.271471 0.081482 1.971139 0
M  V30 6 C 4.471516 -0.283755 1.182264 0
M  V30 7 C 4.197130 -1.104606 -0.054536 0
M  V30 8 C 2.363388 0.944814 1.182438 0
M  V30 9 O 2.116685 2.157705 1.259289 0
M  V30 10 O 1.533944 0.606372 0.133770 0
M  V30 11 C 0.734945 1.636529 -0.473148 0
M  V30 12 C -0.098429 0.952601 -1.529851 0
M  V30 13 C -1.046723 1.912437 -2.172523 0
M  V30 14 O -1.898327 2.527964 -1.264321 0
M  V30 15 C -0.932490 -0.166538 -0.901908 0
M  V30 16 C -0.950009 -1.191700 -1.951386 0
M  V30 17 C -1.856436 -2.125044 -2.069423 0
M  V30 18 C -3.015074 -2.361975 -1.223239 0
M  V30 19 C -4.248354 -2.671427 -1.821919 0
M  V30 20 C -5.307014 -2.907348 -0.975363 0
M  V30 21 C -5.269542 -2.869238 0.394076 0
M  V30 22 F -6.312952 -3.105678 1.215779 0
M  V30 23 C -4.021176 -2.559268 0.866667 0
M  V30 24 Br -3.845575 -2.473106 2.771289 0
M  V30 25 C -2.846457 -2.291396 0.166036 0
M  V30 26 C 0.223872 -0.910642 -2.755982 0
M  V30 27 O 0.605044 -1.779942 -3.610086 0
M  V30 28 O 0.769122 0.334466 -2.443178 0
M  V30 29 H -0.485684 -0.693344 5.353268 0
M  V30 30 H -1.217414 -2.280128 4.950983 0
M  V30 31 H -1.419227 -0.842562 3.838055 0
M  V30 32 H 1.203938 -2.369497 4.448299 0
M  V30 33 H 0.192507 -2.462215 2.930260 0
M  V30 34 H 0.609383 -0.050859 2.577164 0
M  V30 35 H 1.580488 -0.013144 4.134533 0
M  V30 36 H 3.153531 -1.677550 3.166135 0
M  V30 37 H 2.128077 -1.713429 1.642486 0
M  V30 38 H 3.586944 0.697630 2.855223 0
M  V30 39 H 5.222496 -0.814505 1.826351 0
M  V30 40 H 5.036201 0.618685 0.812986 0
M  V30 41 H 3.547569 -0.569382 -0.756324 0
M  V30 42 H 5.203592 -1.197736 -0.564359 0
M  V30 43 H 3.896477 -2.137711 0.179943 0
M  V30 44 H 1.444796 2.359439 -0.899617 0
M  V30 45 H 0.138267 2.122503 0.297913 0
M  V30 46 H -0.455059 2.706444 -2.689772 0
M  V30 47 H -1.715869 1.385530 -2.899665 0
M  V30 48 H -1.449560 3.056887 -0.580454 0
M  V30 49 H -0.350826 -0.484446 -0.002249 0
M  V30 50 H -1.905559 0.186622 -0.562843 0
M  V30 51 H -1.777952 -2.833570 -2.885050 0
M  V30 52 H -4.329041 -2.714412 -2.896651 0
M  V30 53 H -6.266129 -3.148610 -1.458353 0
M  V30 54 H -1.928114 -2.067251 0.667792 0
M  V30 END ATOM
M  V30 BEGIN BOND
M  V30 1 1 1 2
M  V30 2 1 2 3
M  V30 3 1 3 4
M  V30 4 1 4 5
M  V30 5 1 5 6
M  V30 6 1 6 7
M  V30 7 1 5 8
M  V30 8 2 8 9
M  V30 9 1 8 10
M  V30 10 1 10 11
M  V30 11 1 11 12
M  V30 12 1 12 13
M  V30 13 1 13 14
M  V30 14 1 12 15
M  V30 15 1 15 16
M  V30 16 2 16 17
M  V30 17 1 17 18
M  V30 18 2 18 19
M  V30 19 1 19 20
M  V30 20 2 20 21
M  V30 21 1 21 22
M  V30 22 1 21 23
M  V30 23 1 23 24
M  V30 24 2 23 25
M  V30 25 1 16 26
M  V30 26 2 26 27
M  V30 27 1 26 28
M  V30 28 1 28 12
M  V30 29 1 25 18
M  V30 30 1 1 29
M  V30 31 1 1 30
M  V30 32 1 1 31
M  V30 33 1 2 32
M  V30 34 1 2 33
M  V30 35 1 3 34
M  V30 36 1 3 35
M  V30 37 1 4 36
M  V30 38 1 4 37
M  V30 39 1 5 38
M  V30 40 1 6 39
M  V30 41 1 6 40
M  V30 42 1 7 41
M  V30 43 1 7 42
M  V30 44 1 7 43
M  V30 45 1 11 44
M  V30 46 1 11 45
M  V30 47 1 13 46
M  V30 48 1 13 47
M  V30 49 1 14 48
M  V30 50 1 15 49
M  V30 51 1 15 50
M  V30 52 1 17 51
M  V30 53 1 19 52
M  V30 54 1 20 53
M  V30 55 1 25 54
M  V30 END BOND
M  V30 END CTAB
M  END
>  <Dataset>  (850) 
ChEMBL_Kinases

>  <Ligand_Instance>  (850) 
nan

>  <PDB_ID>  (850) 
nan

>  <Standardized_SMILES>  (850) 
CCCCC(CC)C(=O)OCC1(CO)C/C(=C\c2ccc(F)c(Br)c2)C(=O)O1

>  <Name>  (850) 
nan

>  <Pocket>  (850) 
nan

>  <ATP_Site>  (850) 
nan

>  <Peripheral>  (850) 
nan

>  <Num_H_Atoms_ProtBoundConf>  (850) 
nan

>  <Num_Resolved_Atoms>  (850) 
nan

>  <Num_Not_Resolved_Atoms>  (850) 
nan

$$$$
CHEMBL527879
     RDKit          3D

  0  0  0  0  0  0  0  0  0  0999 V3000
M  V30 BEGIN CTAB
M  V30 COUNTS 73 75 0 0 0
M  V30 BEGIN ATOM
M  V30 1 C 2.404101 -5.736990 0.663187 0
M  V30 2 C 3.086117 -5.345863 -0.657240 0
M  V30 3 C 2.770941 -6.454906 -1.624878 0
M  V30 4 C 2.547122 -4.040234 -1.144739 0
M  V30 5 C 1.221732 -3.891069 -1.576378 0
M  V30 6 C 0.757371 -2.661230 -2.018495 0
M  V30 7 C -0.659683 -2.604726 -2.454776 0
M  V30 8 C -0.838790 -2.901605 -3.913096 0
M  V30 9 C -1.455214 -3.639738 -1.687249 0
M  V30 10 C 1.624805 -1.561520 -2.031587 0
M  V30 11 C 0.963747 -0.342434 -2.533681 0
M  V30 12 O 0.827165 0.178501 -3.669969 0
M  V30 13 O 0.393133 0.320949 -1.467677 0
M  V30 14 C -0.332756 1.534664 -1.532502 0
M  V30 15 C -0.726302 1.823141 -0.108858 0
M  V30 16 C 0.508856 1.950002 0.757155 0
M  V30 17 O 0.178018 2.104076 2.103229 0
M  V30 18 C -1.686134 0.785166 0.426449 0
M  V30 19 C -2.422168 1.543108 1.436567 0
M  V30 20 C -3.367892 1.059450 2.259664 0
M  V30 21 C -4.070198 1.869485 3.246136 0
M  V30 22 C -4.125280 1.237245 4.496397 0
M  V30 23 C -4.754187 1.807297 5.582422 0
M  V30 24 C -5.360854 3.056115 5.446259 0
M  V30 25 C -6.022305 3.614145 6.664991 0
M  V30 26 F -7.159837 4.311070 6.404379 0
M  V30 27 F -6.333305 2.584413 7.550724 0
M  V30 28 F -5.114209 4.427604 7.356893 0
M  V30 29 C -5.297971 3.660605 4.216007 0
M  V30 30 C -4.665148 3.076079 3.140430 0
M  V30 31 C -1.915002 2.926627 1.410324 0
M  V30 32 O -1.972237 3.662757 2.460649 0
M  V30 33 O -1.471347 3.010596 0.069350 0
M  V30 34 C 2.929479 -1.703114 -1.607851 0
M  V30 35 C 3.693032 -0.442542 -1.692296 0
M  V30 36 C 4.337786 -0.276064 -3.063324 0
M  V30 37 C 4.867759 -0.612607 -0.713305 0
M  V30 38 C 3.385713 -2.927641 -1.169582 0
M  V30 39 H 1.513163 -6.346632 0.522236 0
M  V30 40 H 2.072367 -4.801144 1.202893 0
M  V30 41 H 3.115938 -6.212069 1.361537 0
M  V30 42 H 4.151802 -5.291972 -0.421078 0
M  V30 43 H 1.671667 -6.603070 -1.669534 0
M  V30 44 H 3.262819 -6.371066 -2.602812 0
M  V30 45 H 3.159489 -7.400071 -1.159076 0
M  V30 46 H 0.609016 -4.779901 -1.538738 0
M  V30 47 H -1.132387 -1.627259 -2.244235 0
M  V30 48 H 0.051822 -2.666962 -4.529806 0
M  V30 49 H -1.161962 -3.941167 -4.102787 0
M  V30 50 H -1.658726 -2.256653 -4.343147 0
M  V30 51 H -1.021369 -3.713700 -0.675847 0
M  V30 52 H -1.527166 -4.602785 -2.228559 0
M  V30 53 H -2.510032 -3.268154 -1.546136 0
M  V30 54 H 0.165907 2.357028 -2.031351 0
M  V30 55 H -1.271295 1.293019 -2.070462 0
M  V30 56 H 1.161672 1.069595 0.704070 0
M  V30 57 H 0.992295 2.907666 0.455693 0
M  V30 58 H 0.255640 1.279843 2.618008 0
M  V30 59 H -1.171692 -0.113239 0.807501 0
M  V30 60 H -2.390391 0.552336 -0.413899 0
M  V30 61 H -3.624188 -0.012792 2.179571 0
M  V30 62 H -3.680747 0.253744 4.713882 0
M  V30 63 H -4.790164 1.300820 6.558512 0
M  V30 64 H -5.765070 4.615851 4.119855 0
M  V30 65 H -4.624874 3.531825 2.182067 0
M  V30 66 H 3.160276 0.450434 -1.349028 0
M  V30 67 H 5.438595 -0.155930 -3.014845 0
M  V30 68 H 4.172123 -1.197025 -3.696458 0
M  V30 69 H 3.942356 0.620155 -3.584024 0
M  V30 70 H 5.755565 -1.041314 -1.231756 0
M  V30 71 H 4.562604 -1.168794 0.191303 0
M  V30 72 H 5.192861 0.390807 -0.368832 0
M  V30 73 H 4.416760 -2.957855 -0.855321 0
M  V30 END ATOM
M  V30 BEGIN BOND
M  V30 1 1 1 2
M  V30 2 1 2 3
M  V30 3 1 2 4
M  V30 4 2 4 5
M  V30 5 1 5 6
M  V30 6 1 6 7
M  V30 7 1 7 8
M  V30 8 1 7 9
M  V30 9 2 6 10
M  V30 10 1 10 11
M  V30 11 2 11 12
M  V30 12 1 11 13
M  V30 13 1 13 14
M  V30 14 1 14 15
M  V30 15 1 15 16
M  V30 16 1 16 17
M  V30 17 1 15 18
M  V30 18 1 18 19
M  V30 19 2 19 20
M  V30 20 1 20 21
M  V30 21 2 21 22
M  V30 22 1 22 23
M  V30 23 2 23 24
M  V30 24 1 24 25
M  V30 25 1 25 26
M  V30 26 1 25 27
M  V30 27 1 25 28
M  V30 28 1 24 29
M  V30 29 2 29 30
M  V30 30 1 19 31
M  V30 31 2 31 32
M  V30 32 1 31 33
M  V30 33 1 10 34
M  V30 34 1 34 35
M  V30 35 1 35 36
M  V30 36 1 35 37
M  V30 37 2 34 38
M  V30 38 1 38 4
M  V30 39 1 33 15
M  V30 40 1 30 21
M  V30 41 1 1 39
M  V30 42 1 1 40
M  V30 43 1 1 41
M  V30 44 1 2 42
M  V30 45 1 3 43
M  V30 46 1 3 44
M  V30 47 1 3 45
M  V30 48 1 5 46
M  V30 49 1 7 47
M  V30 50 1 8 48
M  V30 51 1 8 49
M  V30 52 1 8 50
M  V30 53 1 9 51
M  V30 54 1 9 52
M  V30 55 1 9 53
M  V30 56 1 14 54
M  V30 57 1 14 55
M  V30 58 1 16 56
M  V30 59 1 16 57
M  V30 60 1 17 58
M  V30 61 1 18 59
M  V30 62 1 18 60
M  V30 63 1 20 61
M  V30 64 1 22 62
M  V30 65 1 23 63
M  V30 66 1 29 64
M  V30 67 1 30 65
M  V30 68 1 35 66
M  V30 69 1 36 67
M  V30 70 1 36 68
M  V30 71 1 36 69
M  V30 72 1 37 70
M  V30 73 1 37 71
M  V30 74 1 37 72
M  V30 75 1 38 73
M  V30 END BOND
M  V30 END CTAB
M  END
>  <Dataset>  (851) 
ChEMBL_Kinases

>  <Ligand_Instance>  (851) 
nan

>  <PDB_ID>  (851) 
nan

>  <Standardized_SMILES>  (851) 
CC(C)c1cc(C(C)C)c(C(=O)OCC2(CO)C/C(=C/c3ccc(C(F)(F)F)cc3)C(=O)O2)c(C(C)C)c1

>  <Name>  (851) 
nan

>  <Pocket>  (851) 
nan

>  <ATP_Site>  (851) 
nan

>  <Peripheral>  (851) 
nan

>  <Num_H_Atoms_ProtBoundConf>  (851) 
nan

>  <Num_Resolved_Atoms>  (851) 
nan

>  <Num_Not_Resolved_Atoms>  (851) 
nan

$$$$
CHEMBL528109
     RDKit          3D

  0  0  0  0  0  0  0  0  0  0999 V3000
M  V30 BEGIN CTAB
M  V30 COUNTS 58 60 0 0 0
M  V30 BEGIN ATOM
M  V30 1 C 6.906057 2.921153 0.309521 0
M  V30 2 C 6.050766 1.985547 1.116887 0
M  V30 3 C 6.374984 2.257294 2.577415 0
M  V30 4 C 6.405835 0.558285 0.802245 0
M  V30 5 C 4.594594 2.242734 0.910425 0
M  V30 6 O 3.861045 2.529852 1.873536 0
M  V30 7 O 4.257663 2.120073 -0.373245 0
M  V30 8 C 3.030745 2.256430 -0.993602 0
M  V30 9 C 2.061128 1.196003 -0.653807 0
M  V30 10 C 2.555035 -0.164683 -1.121304 0
M  V30 11 O 1.616892 -1.164083 -0.820265 0
M  V30 12 C 1.500830 1.148906 0.731183 0
M  V30 13 C 0.212824 0.415680 0.495561 0
M  V30 14 C -0.585448 -0.163765 1.392059 0
M  V30 15 C -1.828880 -0.860459 1.113033 0
M  V30 16 C -2.898616 -0.498291 0.365625 0
M  V30 17 C -3.993345 -1.318373 0.180588 0
M  V30 18 C -4.021497 -2.567729 0.774737 0
M  V30 19 C -5.230798 -3.350530 0.507132 0
M  V30 20 C -6.429475 -2.691128 0.331014 0
M  V30 21 C -7.556270 -3.482586 0.073777 0
M  V30 22 C -7.461047 -4.844775 0.002697 0
M  V30 23 C -8.626950 -5.743642 -0.271076 0
M  V30 24 F -9.530591 -5.176424 -1.131749 0
M  V30 25 F -9.172132 -6.097145 0.948284 0
M  V30 26 F -8.177902 -6.936631 -0.854270 0
M  V30 27 C -6.236699 -5.419403 0.189150 0
M  V30 28 C -5.071227 -4.726569 0.447158 0
M  V30 29 C -2.958645 -2.984973 1.546664 0
M  V30 30 C -1.874946 -2.132181 1.709644 0
M  V30 31 C -0.033062 0.391538 -0.941379 0
M  V30 32 O -0.838758 -0.387594 -1.561636 0
M  V30 33 O 0.814779 1.397632 -1.381104 0
M  V30 34 H 6.644192 3.953543 0.576218 0
M  V30 35 H 6.789073 2.730864 -0.783654 0
M  V30 36 H 7.958933 2.744665 0.606891 0
M  V30 37 H 7.041263 1.451576 2.953593 0
M  V30 38 H 5.430606 2.322735 3.177683 0
M  V30 39 H 6.852272 3.251116 2.693370 0
M  V30 40 H 5.439419 -0.016777 0.914321 0
M  V30 41 H 6.677649 0.454746 -0.272278 0
M  V30 42 H 7.159256 0.146694 1.479971 0
M  V30 43 H 3.175584 2.214305 -2.112452 0
M  V30 44 H 2.588050 3.284338 -0.838629 0
M  V30 45 H 2.589585 -0.104315 -2.226380 0
M  V30 46 H 3.487720 -0.464332 -0.638918 0
M  V30 47 H 2.074287 -2.049617 -0.820122 0
M  V30 48 H 1.317030 2.162751 1.095321 0
M  V30 49 H 2.120603 0.609657 1.473936 0
M  V30 50 H -0.277383 -0.111740 2.452867 0
M  V30 51 H -2.856757 0.471050 -0.064128 0
M  V30 52 H -4.779259 -0.918051 -0.433952 0
M  V30 53 H -6.507561 -1.625782 0.385900 0
M  V30 54 H -8.529563 -3.016127 -0.073008 0
M  V30 55 H -6.133448 -6.511272 0.137720 0
M  V30 56 H -4.117215 -5.218213 0.589424 0
M  V30 57 H -3.015786 -3.965382 1.994265 0
M  V30 58 H -1.100833 -2.544445 2.324411 0
M  V30 END ATOM
M  V30 BEGIN BOND
M  V30 1 1 1 2
M  V30 2 1 2 3
M  V30 3 1 2 4
M  V30 4 1 2 5
M  V30 5 2 5 6
M  V30 6 1 5 7
M  V30 7 1 7 8
M  V30 8 1 8 9
M  V30 9 1 9 10
M  V30 10 1 10 11
M  V30 11 1 9 12
M  V30 12 1 12 13
M  V30 13 2 13 14
M  V30 14 1 14 15
M  V30 15 2 15 16
M  V30 16 1 16 17
M  V30 17 2 17 18
M  V30 18 1 18 19
M  V30 19 2 19 20
M  V30 20 1 20 21
M  V30 21 2 21 22
M  V30 22 1 22 23
M  V30 23 1 23 24
M  V30 24 1 23 25
M  V30 25 1 23 26
M  V30 26 1 22 27
M  V30 27 2 27 28
M  V30 28 1 18 29
M  V30 29 2 29 30
M  V30 30 1 13 31
M  V30 31 2 31 32
M  V30 32 1 31 33
M  V30 33 1 33 9
M  V30 34 1 30 15
M  V30 35 1 28 19
M  V30 36 1 1 34
M  V30 37 1 1 35
M  V30 38 1 1 36
M  V30 39 1 3 37
M  V30 40 1 3 38
M  V30 41 1 3 39
M  V30 42 1 4 40
M  V30 43 1 4 41
M  V30 44 1 4 42
M  V30 45 1 8 43
M  V30 46 1 8 44
M  V30 47 1 10 45
M  V30 48 1 10 46
M  V30 49 1 11 47
M  V30 50 1 12 48
M  V30 51 1 12 49
M  V30 52 1 14 50
M  V30 53 1 16 51
M  V30 54 1 17 52
M  V30 55 1 20 53
M  V30 56 1 21 54
M  V30 57 1 27 55
M  V30 58 1 28 56
M  V30 59 1 29 57
M  V30 60 1 30 58
M  V30 END BOND
M  V30 END CTAB
M  END
>  <Dataset>  (852) 
ChEMBL_Kinases

>  <Ligand_Instance>  (852) 
nan

>  <PDB_ID>  (852) 
nan

>  <Standardized_SMILES>  (852) 
CC(C)(C)C(=O)OCC1(CO)C/C(=C/c2ccc(-c3ccc(C(F)(F)F)cc3)cc2)C(=O)O1

>  <Name>  (852) 
nan

>  <Pocket>  (852) 
nan

>  <ATP_Site>  (852) 
nan

>  <Peripheral>  (852) 
nan

>  <Num_H_Atoms_ProtBoundConf>  (852) 
nan

>  <Num_Resolved_Atoms>  (852) 
nan

>  <Num_Not_Resolved_Atoms>  (852) 
nan

$$$$
CHEMBL528323
     RDKit          3D

  0  0  0  0  0  0  0  0  0  0999 V3000
M  V30 BEGIN CTAB
M  V30 COUNTS 52 55 0 0 0
M  V30 BEGIN ATOM
M  V30 1 C -0.785589 -6.231953 4.231147 0
M  V30 2 O -0.493008 -5.908608 2.899086 0
M  V30 3 C 0.162052 -4.761116 2.549836 0
M  V30 4 C 0.425298 -4.494593 1.210702 0
M  V30 5 C 1.073600 -3.366704 0.822875 0
M  V30 6 C 1.512591 -2.415725 1.713801 0
M  V30 7 C 2.210833 -1.210491 1.288737 0
M  V30 8 O 2.391813 -1.122874 0.085098 0
M  V30 9 O 2.610625 -0.290810 2.149949 0
M  V30 10 C 3.245667 0.906926 2.177097 0
M  V30 11 C 2.603438 2.062965 1.496054 0
M  V30 12 C 3.324727 3.377014 1.882306 0
M  V30 13 O 4.610895 3.405206 1.400685 0
M  V30 14 C 2.418678 2.019807 0.032051 0
M  V30 15 C 0.964813 1.711992 -0.138073 0
M  V30 16 C 0.180923 1.517106 -1.196136 0
M  V30 17 C -1.239991 1.223024 -1.273272 0
M  V30 18 C -2.335215 1.793562 -0.664383 0
M  V30 19 N -3.579627 1.338595 -0.847564 0
M  V30 20 C -3.804271 0.294436 -1.644510 0
M  V30 21 C -5.097803 -0.147344 -1.808399 0
M  V30 22 C -5.461965 -1.228595 -2.613688 0
M  V30 23 C -4.386594 -1.848517 -3.260655 0
M  V30 24 C -3.110777 -1.408444 -3.095525 0
M  V30 25 C -2.774506 -0.345178 -2.300442 0
M  V30 26 C -1.499113 0.124055 -2.110285 0
M  V30 27 C 0.392604 1.583660 1.223835 0
M  V30 28 O -0.691782 1.018936 1.552738 0
M  V30 29 O 1.304784 2.218388 2.076385 0
M  V30 30 C 1.236020 -2.709995 3.030343 0
M  V30 31 C 0.579806 -3.841000 3.492605 0
M  V30 32 H -1.012967 -7.325020 4.306169 0
M  V30 33 H 0.091326 -6.043329 4.908576 0
M  V30 34 H -1.653102 -5.692775 4.618330 0
M  V30 35 H 0.096606 -5.215549 0.482415 0
M  V30 36 H 1.242403 -3.227704 -0.236886 0
M  V30 37 H 3.305123 1.208768 3.273033 0
M  V30 38 H 4.329094 0.795026 1.872975 0
M  V30 39 H 3.247227 3.462822 2.987684 0
M  V30 40 H 2.705641 4.166361 1.426676 0
M  V30 41 H 4.826345 4.275580 0.986147 0
M  V30 42 H 3.041016 1.364823 -0.558531 0
M  V30 43 H 2.569429 3.052368 -0.428827 0
M  V30 44 H 0.743472 1.603584 -2.133734 0
M  V30 45 H -2.074748 2.643309 -0.048165 0
M  V30 46 H -5.889926 0.388087 -1.268507 0
M  V30 47 H -6.476601 -1.542180 -2.715459 0
M  V30 48 H -4.612760 -2.691971 -3.897076 0
M  V30 49 H -2.286942 -1.905200 -3.608327 0
M  V30 50 H -0.746285 -0.430865 -2.660495 0
M  V30 51 H 1.551877 -2.002897 3.799093 0
M  V30 52 H 0.379187 -4.043503 4.516202 0
M  V30 END ATOM
M  V30 BEGIN BOND
M  V30 1 1 1 2
M  V30 2 1 2 3
M  V30 3 2 3 4
M  V30 4 1 4 5
M  V30 5 2 5 6
M  V30 6 1 6 7
M  V30 7 2 7 8
M  V30 8 1 7 9
M  V30 9 1 9 10
M  V30 10 1 10 11
M  V30 11 1 11 12
M  V30 12 1 12 13
M  V30 13 1 11 14
M  V30 14 1 14 15
M  V30 15 2 15 16
M  V30 16 1 16 17
M  V30 17 2 17 18
M  V30 18 1 18 19
M  V30 19 2 19 20
M  V30 20 1 20 21
M  V30 21 2 21 22
M  V30 22 1 22 23
M  V30 23 2 23 24
M  V30 24 1 24 25
M  V30 25 2 25 26
M  V30 26 1 15 27
M  V30 27 2 27 28
M  V30 28 1 27 29
M  V30 29 1 6 30
M  V30 30 2 30 31
M  V30 31 1 31 3
M  V30 32 1 29 11
M  V30 33 1 26 17
M  V30 34 1 25 20
M  V30 35 1 1 32
M  V30 36 1 1 33
M  V30 37 1 1 34
M  V30 38 1 4 35
M  V30 39 1 5 36
M  V30 40 1 10 37
M  V30 41 1 10 38
M  V30 42 1 12 39
M  V30 43 1 12 40
M  V30 44 1 13 41
M  V30 45 1 14 42
M  V30 46 1 14 43
M  V30 47 1 16 44
M  V30 48 1 18 45
M  V30 49 1 21 46
M  V30 50 1 22 47
M  V30 51 1 23 48
M  V30 52 1 24 49
M  V30 53 1 26 50
M  V30 54 1 30 51
M  V30 55 1 31 52
M  V30 END BOND
M  V30 END CTAB
M  END
>  <Dataset>  (853) 
ChEMBL_Kinases

>  <Ligand_Instance>  (853) 
nan

>  <PDB_ID>  (853) 
nan

>  <Standardized_SMILES>  (853) 
COc1ccc(C(=O)OCC2(CO)C/C(=C/c3cnc4ccccc4c3)C(=O)O2)cc1

>  <Name>  (853) 
nan

>  <Pocket>  (853) 
nan

>  <ATP_Site>  (853) 
nan

>  <Peripheral>  (853) 
nan

>  <Num_H_Atoms_ProtBoundConf>  (853) 
nan

>  <Num_Resolved_Atoms>  (853) 
nan

>  <Num_Not_Resolved_Atoms>  (853) 
nan

$$$$
CHEMBL573280
     RDKit          3D

  0  0  0  0  0  0  0  0  0  0999 V3000
M  V30 BEGIN CTAB
M  V30 COUNTS 38 41 0 0 0
M  V30 BEGIN ATOM
M  V30 1 C 0.569253 -4.223835 0.619122 0
M  V30 2 C 1.770642 -3.920505 -0.171530 0
M  V30 3 C 2.873398 -4.762887 -0.029699 0
M  V30 4 C 4.075539 -4.634229 -0.685918 0
M  V30 5 C 4.158679 -3.562090 -1.554757 0
M  V30 6 C 3.114036 -2.695986 -1.741838 0
M  V30 7 Cl 3.287796 -1.354988 -2.860714 0
M  V30 8 C 1.923208 -2.864537 -1.059927 0
M  V30 9 C 0.779957 -1.965125 -1.226986 0
M  V30 10 N 0.651597 -1.055994 -0.082972 0
M  V30 11 C -0.395145 -0.083744 -0.021057 0
M  V30 12 N -1.346464 0.108932 -0.955935 0
M  V30 13 N -2.174139 1.089044 -0.602029 0
M  V30 14 C -1.747133 1.542033 0.592655 0
M  V30 15 C -0.631652 0.833580 0.995681 0
M  V30 16 C -0.113469 1.281480 2.298964 0
M  V30 17 C -1.086283 2.376366 2.632857 0
M  V30 18 C -1.067268 3.154986 3.775586 0
M  V30 19 C -2.036743 4.130520 3.942307 0
M  V30 20 C -3.001445 4.306535 2.966545 0
M  V30 21 Br -4.344541 5.658022 3.197735 0
M  V30 22 C -3.001793 3.515536 1.829779 0
M  V30 23 C -2.037883 2.526323 1.636353 0
M  V30 24 H 0.670180 -3.751800 1.631094 0
M  V30 25 H 0.516611 -5.325411 0.762409 0
M  V30 26 H -0.380292 -3.912588 0.206867 0
M  V30 27 H 2.797506 -5.611209 0.662498 0
M  V30 28 H 4.874702 -5.339752 -0.509523 0
M  V30 29 H 5.115993 -3.456113 -2.080276 0
M  V30 30 H -0.174661 -2.524424 -1.273575 0
M  V30 31 H 0.879773 -1.355904 -2.171892 0
M  V30 32 H 1.326392 -1.099817 0.715204 0
M  V30 33 H -3.002337 1.478413 -1.097364 0
M  V30 34 H 0.886970 1.752481 2.205934 0
M  V30 35 H -0.158155 0.498856 3.080171 0
M  V30 36 H -0.331187 3.048531 4.560001 0
M  V30 37 H -2.025342 4.749325 4.846040 0
M  V30 38 H -3.741581 3.628841 1.050373 0
M  V30 END ATOM
M  V30 BEGIN BOND
M  V30 1 1 1 2
M  V30 2 2 2 3
M  V30 3 1 3 4
M  V30 4 2 4 5
M  V30 5 1 5 6
M  V30 6 1 6 7
M  V30 7 2 6 8
M  V30 8 1 8 9
M  V30 9 1 9 10
M  V30 10 1 10 11
M  V30 11 2 11 12
M  V30 12 1 12 13
M  V30 13 1 13 14
M  V30 14 2 14 15
M  V30 15 1 15 16
M  V30 16 1 16 17
M  V30 17 2 17 18
M  V30 18 1 18 19
M  V30 19 2 19 20
M  V30 20 1 20 21
M  V30 21 1 20 22
M  V30 22 2 22 23
M  V30 23 1 8 2
M  V30 24 1 15 11
M  V30 25 1 23 17
M  V30 26 1 23 14
M  V30 27 1 1 24
M  V30 28 1 1 25
M  V30 29 1 1 26
M  V30 30 1 3 27
M  V30 31 1 4 28
M  V30 32 1 5 29
M  V30 33 1 9 30
M  V30 34 1 9 31
M  V30 35 1 10 32
M  V30 36 1 13 33
M  V30 37 1 16 34
M  V30 38 1 16 35
M  V30 39 1 18 36
M  V30 40 1 19 37
M  V30 41 1 22 38
M  V30 END BOND
M  V30 END CTAB
M  END
>  <Dataset>  (854) 
ChEMBL_Kinases

>  <Ligand_Instance>  (854) 
nan

>  <PDB_ID>  (854) 
nan

>  <Standardized_SMILES>  (854) 
Cc1cccc(Cl)c1CNc1n[nH]c2c1Cc1ccc(Br)cc1-2

>  <Name>  (854) 
nan

>  <Pocket>  (854) 
nan

>  <ATP_Site>  (854) 
nan

>  <Peripheral>  (854) 
nan

>  <Num_H_Atoms_ProtBoundConf>  (854) 
nan

>  <Num_Resolved_Atoms>  (854) 
nan

>  <Num_Not_Resolved_Atoms>  (854) 
nan

$$$$
CHEMBL52851
     RDKit          3D

  0  0  0  0  0  0  0  0  0  0999 V3000
M  V30 BEGIN CTAB
M  V30 COUNTS 43 47 0 0 0
M  V30 BEGIN ATOM
M  V30 1 C -2.655780 -4.494034 1.181116 0
M  V30 2 N -1.642280 -3.450149 1.349501 0
M  V30 3 C -1.966435 -2.254914 1.866615 0
M  V30 4 C -0.831313 -1.436792 1.922238 0
M  V30 5 C -0.826415 -0.073979 2.437223 0
M  V30 6 C -0.308509 1.102128 2.031566 0
M  V30 7 C 0.463807 1.281636 0.816717 0
M  V30 8 C 0.038808 0.626404 -0.347659 0
M  V30 9 N 0.888138 0.909355 -1.359577 0
M  V30 10 C 0.780507 0.412269 -2.722131 0
M  V30 11 C 1.861236 1.727485 -0.911807 0
M  V30 12 N 2.948894 2.313864 -1.466191 0
M  V30 13 C 3.764250 3.111115 -0.711787 0
M  V30 14 C 3.486428 3.326213 0.622629 0
M  V30 15 C 2.374250 2.738638 1.226882 0
M  V30 16 C 1.585930 1.944692 0.420877 0
M  V30 17 C -0.664537 2.125286 3.003963 0
M  V30 18 O -0.388226 3.358270 3.013192 0
M  V30 19 N -1.435144 1.564323 4.060450 0
M  V30 20 C -1.537497 0.192821 3.709464 0
M  V30 21 O -2.179664 -0.618823 4.459440 0
M  V30 22 C 0.152469 -2.249160 1.403871 0
M  V30 23 C 1.492587 -1.997724 1.211222 0
M  V30 24 C 2.296248 -2.980385 0.673924 0
M  V30 25 C 1.804138 -4.221720 0.317395 0
M  V30 26 C 0.455233 -4.477406 0.511204 0
M  V30 27 C -0.333423 -3.485978 1.048819 0
M  V30 28 H -2.364024 -5.143278 0.348753 0
M  V30 29 H -2.719041 -5.091200 2.112974 0
M  V30 30 H -3.637162 -4.032136 0.914238 0
M  V30 31 H -2.957445 -1.919688 2.209683 0
M  V30 32 H -0.833897 -0.030067 -0.497533 0
M  V30 33 H -0.314276 0.264519 -2.939012 0
M  V30 34 H 1.206732 -0.632103 -2.768788 0
M  V30 35 H 1.196064 1.079761 -3.477362 0
M  V30 36 H 4.608055 3.532825 -1.249556 0
M  V30 37 H 4.167377 3.960732 1.151123 0
M  V30 38 H 2.171151 2.910638 2.273405 0
M  V30 39 H -1.838106 2.039727 4.903876 0
M  V30 40 H 1.925600 -1.059405 1.475663 0
M  V30 41 H 3.361402 -2.800061 0.512660 0
M  V30 42 H 2.390660 -5.013727 -0.103701 0
M  V30 43 H -0.011825 -5.439357 0.253214 0
M  V30 END ATOM
M  V30 BEGIN BOND
M  V30 1 1 1 2
M  V30 2 1 2 3
M  V30 3 2 3 4
M  V30 4 1 4 5
M  V30 5 2 5 6
M  V30 6 1 6 7
M  V30 7 2 7 8
M  V30 8 1 8 9
M  V30 9 1 9 10
M  V30 10 1 9 11
M  V30 11 2 11 12
M  V30 12 1 12 13
M  V30 13 2 13 14
M  V30 14 1 14 15
M  V30 15 2 15 16
M  V30 16 1 6 17
M  V30 17 2 17 18
M  V30 18 1 17 19
M  V30 19 1 19 20
M  V30 20 2 20 21
M  V30 21 1 4 22
M  V30 22 2 22 23
M  V30 23 1 23 24
M  V30 24 2 24 25
M  V30 25 1 25 26
M  V30 26 2 26 27
M  V30 27 1 27 2
M  V30 28 1 20 5
M  V30 29 1 27 22
M  V30 30 1 16 7
M  V30 31 1 16 11
M  V30 32 1 1 28
M  V30 33 1 1 29
M  V30 34 1 1 30
M  V30 35 1 3 31
M  V30 36 1 8 32
M  V30 37 1 10 33
M  V30 38 1 10 34
M  V30 39 1 10 35
M  V30 40 1 13 36
M  V30 41 1 14 37
M  V30 42 1 15 38
M  V30 43 1 19 39
M  V30 44 1 23 40
M  V30 45 1 24 41
M  V30 46 1 25 42
M  V30 47 1 26 43
M  V30 END BOND
M  V30 END CTAB
M  END
>  <Dataset>  (855) 
ChEMBL_Kinases

>  <Ligand_Instance>  (855) 
nan

>  <PDB_ID>  (855) 
nan

>  <Standardized_SMILES>  (855) 
Cn1cc(C2=C(c3cn(C)c4ncccc34)C(=O)NC2=O)c2ccccc21

>  <Name>  (855) 
nan

>  <Pocket>  (855) 
nan

>  <ATP_Site>  (855) 
nan

>  <Peripheral>  (855) 
nan

>  <Num_H_Atoms_ProtBoundConf>  (855) 
nan

>  <Num_Resolved_Atoms>  (855) 
nan

>  <Num_Not_Resolved_Atoms>  (855) 
nan

$$$$
CHEMBL528776
     RDKit          3D

  0  0  0  0  0  0  0  0  0  0999 V3000
M  V30 BEGIN CTAB
M  V30 COUNTS 48 50 0 0 0
M  V30 BEGIN ATOM
M  V30 1 O 0.921053 -4.036446 0.926026 0
M  V30 2 C 1.022597 -3.183031 1.869684 0
M  V30 3 O 2.065666 -2.654675 2.635003 0
M  V30 4 C 1.748446 -1.255869 2.732521 0
M  V30 5 C 2.701560 -0.551401 3.653464 0
M  V30 6 O 3.984253 -0.730882 3.086860 0
M  V30 7 C 1.783124 -0.708112 1.331835 0
M  V30 8 O 1.471751 0.674413 1.302320 0
M  V30 9 C 1.431041 1.374165 0.108768 0
M  V30 10 O 1.723022 0.422617 -0.646919 0
M  V30 11 C 1.137087 2.765959 -0.137301 0
M  V30 12 C 0.825213 3.815099 0.695459 0
M  V30 13 C 0.576300 5.060275 0.165500 0
M  V30 14 C 0.627765 5.304099 -1.189493 0
M  V30 15 C 0.343908 6.677290 -1.703278 0
M  V30 16 F 1.338774 7.572162 -1.401039 0
M  V30 17 F 0.048135 6.634557 -3.068994 0
M  V30 18 F -0.823994 7.148738 -1.092617 0
M  V30 19 C 0.940983 4.263759 -2.053021 0
M  V30 20 C 1.193132 3.002176 -1.516745 0
M  V30 21 C 0.336190 -1.337142 3.227731 0
M  V30 22 C -0.171135 -2.486921 2.400921 0
M  V30 23 C -1.419755 -2.837918 2.179821 0
M  V30 24 C -1.930168 -3.935481 1.407336 0
M  V30 25 C -1.639122 -5.259207 1.377248 0
M  V30 26 C -2.233351 -6.154961 0.514205 0
M  V30 27 C -3.187793 -5.744553 -0.395750 0
M  V30 28 N -3.789713 -6.672681 -1.282732 0 CHG=1 VAL=4
M  V30 29 O -4.648906 -6.225066 -2.099085 0
M  V30 30 O -3.429645 -8.010113 -1.236440 0 CHG=-1 VAL=1
M  V30 31 C -3.516428 -4.403507 -0.399592 0
M  V30 32 C -2.902177 -3.536648 0.476840 0
M  V30 33 H 2.472311 0.528805 3.651968 0
M  V30 34 H 2.661050 -0.898936 4.683508 0
M  V30 35 H 4.138959 0.005396 2.444027 0
M  V30 36 H 1.034828 -1.307670 0.742285 0
M  V30 37 H 2.775854 -0.950510 0.894253 0
M  V30 38 H 0.818698 3.492877 1.724778 0
M  V30 39 H 0.341608 5.819700 0.899819 0
M  V30 40 H 0.962465 4.529555 -3.094283 0
M  V30 41 H 1.421094 2.306645 -2.317556 0
M  V30 42 H 0.357893 -1.709716 4.279890 0
M  V30 43 H -0.260103 -0.421289 3.103617 0
M  V30 44 H -2.174284 -2.188647 2.663725 0
M  V30 45 H -0.894697 -5.568389 2.116880 0
M  V30 46 H -1.916138 -7.200916 0.582447 0
M  V30 47 H -4.265390 -4.092554 -1.114890 0
M  V30 48 H -3.257936 -2.502256 0.365726 0
M  V30 END ATOM
M  V30 BEGIN BOND
M  V30 1 2 1 2
M  V30 2 1 2 3
M  V30 3 1 3 4
M  V30 4 1 4 5
M  V30 5 1 5 6
M  V30 6 1 4 7
M  V30 7 1 7 8
M  V30 8 1 8 9
M  V30 9 2 9 10
M  V30 10 1 9 11
M  V30 11 2 11 12
M  V30 12 1 12 13
M  V30 13 2 13 14
M  V30 14 1 14 15
M  V30 15 1 15 16
M  V30 16 1 15 17
M  V30 17 1 15 18
M  V30 18 1 14 19
M  V30 19 2 19 20
M  V30 20 1 4 21
M  V30 21 1 21 22
M  V30 22 2 22 23
M  V30 23 1 23 24
M  V30 24 2 24 25
M  V30 25 1 25 26
M  V30 26 2 26 27
M  V30 27 1 27 28
M  V30 28 2 28 29
M  V30 29 1 28 30
M  V30 30 1 27 31
M  V30 31 2 31 32
M  V30 32 1 22 2
M  V30 33 1 32 24
M  V30 34 1 20 11
M  V30 35 1 5 33
M  V30 36 1 5 34
M  V30 37 1 6 35
M  V30 38 1 7 36
M  V30 39 1 7 37
M  V30 40 1 12 38
M  V30 41 1 13 39
M  V30 42 1 19 40
M  V30 43 1 20 41
M  V30 44 1 21 42
M  V30 45 1 21 43
M  V30 46 1 23 44
M  V30 47 1 25 45
M  V30 48 1 26 46
M  V30 49 1 31 47
M  V30 50 1 32 48
M  V30 END BOND
M  V30 END CTAB
M  END
>  <Dataset>  (856) 
ChEMBL_Kinases

>  <Ligand_Instance>  (856) 
nan

>  <PDB_ID>  (856) 
nan

>  <Standardized_SMILES>  (856) 
O=C1OC(CO)(COC(=O)c2ccc(C(F)(F)F)cc2)C/C1=C/c1ccc([N+](=O)[O-])cc1

>  <Name>  (856) 
nan

>  <Pocket>  (856) 
nan

>  <ATP_Site>  (856) 
nan

>  <Peripheral>  (856) 
nan

>  <Num_H_Atoms_ProtBoundConf>  (856) 
nan

>  <Num_Resolved_Atoms>  (856) 
nan

>  <Num_Not_Resolved_Atoms>  (856) 
nan

$$$$
CHEMBL528998
     RDKit          3D

  0  0  0  0  0  0  0  0  0  0999 V3000
M  V30 BEGIN CTAB
M  V30 COUNTS 56 59 0 0 0
M  V30 BEGIN ATOM
M  V30 1 O -2.071927 -4.019408 0.642951 0
M  V30 2 C -0.933718 -3.560159 1.030636 0
M  V30 3 O -0.556344 -2.524309 1.869986 0
M  V30 4 C 0.862511 -2.486247 1.923447 0
M  V30 5 C 1.369740 -1.985359 3.236200 0
M  V30 6 O 0.956714 -2.784972 4.294504 0
M  V30 7 C 1.329104 -1.583195 0.808854 0
M  V30 8 O 0.823242 -0.274826 0.950643 0
M  V30 9 C 1.112720 0.696214 0.040893 0
M  V30 10 O 1.845883 0.045222 -0.770809 0
M  V30 11 C 0.684472 2.109198 0.017862 0
M  V30 12 C 1.176748 2.862834 1.194187 0
M  V30 13 C 1.426883 2.367169 2.445376 0
M  V30 14 C 1.882148 3.088211 3.522737 0
M  V30 15 C 2.114635 4.454276 3.336146 0
M  V30 16 C 1.878420 5.012705 2.087826 0
M  V30 17 C 1.417762 4.221700 1.042560 0
M  V30 18 C -0.811514 2.218938 -0.117036 0
M  V30 19 C -1.749221 1.379637 0.448031 0
M  V30 20 C -3.094730 1.603326 0.237583 0
M  V30 21 C -3.551244 2.653681 -0.530832 0
M  V30 22 C -2.669473 3.526801 -1.122220 0
M  V30 23 C -1.332464 3.264725 -0.884640 0
M  V30 24 C 1.220893 -3.935920 1.649388 0
M  V30 25 C 0.287192 -4.221890 0.519245 0
M  V30 26 C 0.495476 -4.859369 -0.607835 0
M  V30 27 C -0.549553 -5.015849 -1.612908 0
M  V30 28 C -1.342377 -3.936998 -2.022919 0
M  V30 29 C -2.360201 -4.011254 -2.952975 0
M  V30 30 C -2.608581 -5.255222 -3.520150 0
M  V30 31 F -3.621342 -5.300681 -4.439068 0
M  V30 32 C -1.868557 -6.335293 -3.158359 0
M  V30 33 Br -2.235108 -8.039984 -3.958988 0
M  V30 34 C -0.859365 -6.228953 -2.226674 0
M  V30 35 H 0.992524 -0.941185 3.341416 0
M  V30 36 H 2.473673 -1.975825 3.201646 0
M  V30 37 H 1.694053 -3.308232 4.681943 0
M  V30 38 H 2.436356 -1.556854 0.866137 0
M  V30 39 H 1.107834 -2.016551 -0.197093 0
M  V30 40 H 1.116186 2.591121 -0.883584 0
M  V30 41 H 1.249625 1.314274 2.596333 0
M  V30 42 H 2.062622 2.637830 4.488764 0
M  V30 43 H 2.469005 4.986709 4.196457 0
M  V30 44 H 2.075625 6.072448 2.003701 0
M  V30 45 H 1.272702 4.768387 0.126001 0
M  V30 46 H -1.351489 0.574680 1.039346 0
M  V30 47 H -3.778478 0.894155 0.719539 0
M  V30 48 H -4.633175 2.762491 -0.649429 0
M  V30 49 H -2.987087 4.349103 -1.722523 0
M  V30 50 H -0.623656 3.948365 -1.346943 0
M  V30 51 H 0.988861 -4.554759 2.522115 0
M  V30 52 H 2.281115 -4.046523 1.346076 0
M  V30 53 H 1.492972 -5.288070 -0.795615 0
M  V30 54 H -1.186521 -2.921484 -1.624892 0
M  V30 55 H -2.943652 -3.147229 -3.234597 0
M  V30 56 H -0.254412 -7.093460 -1.925594 0
M  V30 END ATOM
M  V30 BEGIN BOND
M  V30 1 2 1 2
M  V30 2 1 2 3
M  V30 3 1 3 4
M  V30 4 1 4 5
M  V30 5 1 5 6
M  V30 6 1 4 7
M  V30 7 1 7 8
M  V30 8 1 8 9
M  V30 9 2 9 10
M  V30 10 1 9 11
M  V30 11 1 11 12
M  V30 12 2 12 13
M  V30 13 1 13 14
M  V30 14 2 14 15
M  V30 15 1 15 16
M  V30 16 2 16 17
M  V30 17 1 11 18
M  V30 18 2 18 19
M  V30 19 1 19 20
M  V30 20 2 20 21
M  V30 21 1 21 22
M  V30 22 2 22 23
M  V30 23 1 4 24
M  V30 24 1 24 25
M  V30 25 2 25 26
M  V30 26 1 26 27
M  V30 27 2 27 28
M  V30 28 1 28 29
M  V30 29 2 29 30
M  V30 30 1 30 31
M  V30 31 1 30 32
M  V30 32 1 32 33
M  V30 33 2 32 34
M  V30 34 1 25 2
M  V30 35 1 34 27
M  V30 36 1 17 12
M  V30 37 1 23 18
M  V30 38 1 5 35
M  V30 39 1 5 36
M  V30 40 1 6 37
M  V30 41 1 7 38
M  V30 42 1 7 39
M  V30 43 1 11 40
M  V30 44 1 13 41
M  V30 45 1 14 42
M  V30 46 1 15 43
M  V30 47 1 16 44
M  V30 48 1 17 45
M  V30 49 1 19 46
M  V30 50 1 20 47
M  V30 51 1 21 48
M  V30 52 1 22 49
M  V30 53 1 23 50
M  V30 54 1 24 51
M  V30 55 1 24 52
M  V30 56 1 26 53
M  V30 57 1 28 54
M  V30 58 1 29 55
M  V30 59 1 34 56
M  V30 END BOND
M  V30 END CTAB
M  END
>  <Dataset>  (857) 
ChEMBL_Kinases

>  <Ligand_Instance>  (857) 
nan

>  <PDB_ID>  (857) 
nan

>  <Standardized_SMILES>  (857) 
O=C1OC(CO)(COC(=O)C(c2ccccc2)c2ccccc2)C/C1=C/c1ccc(F)c(Br)c1

>  <Name>  (857) 
nan

>  <Pocket>  (857) 
nan

>  <ATP_Site>  (857) 
nan

>  <Peripheral>  (857) 
nan

>  <Num_H_Atoms_ProtBoundConf>  (857) 
nan

>  <Num_Resolved_Atoms>  (857) 
nan

>  <Num_Not_Resolved_Atoms>  (857) 
nan

$$$$
CHEMBL529000
     RDKit          3D

  0  0  0  0  0  0  0  0  0  0999 V3000
M  V30 BEGIN CTAB
M  V30 COUNTS 59 61 0 0 0
M  V30 BEGIN ATOM
M  V30 1 C 1.471814 1.437874 4.409242 0
M  V30 2 C 2.716613 0.954843 3.751534 0
M  V30 3 C 3.555122 1.989690 3.111622 0
M  V30 4 C 2.961087 2.790812 2.022815 0
M  V30 5 C 3.892098 3.803015 1.459807 0
M  V30 6 C 5.164868 3.372595 0.879199 0
M  V30 7 C 5.107738 2.430193 -0.293555 0
M  V30 8 C 2.302009 2.053009 0.923765 0
M  V30 9 O 2.197445 1.718941 -0.279484 0
M  V30 10 O 1.170298 1.229501 1.103828 0
M  V30 11 C 0.569055 0.549478 0.026462 0
M  V30 12 C -0.614838 -0.216946 0.573655 0
M  V30 13 C -0.120252 -1.262754 1.520093 0
M  V30 14 O 0.756507 -2.147229 0.874130 0
M  V30 15 C -1.406251 -0.872232 -0.546694 0
M  V30 16 C -2.767931 -0.915756 0.046635 0
M  V30 17 C -3.797241 -1.715933 -0.089994 0
M  V30 18 C -3.668960 -2.842071 -1.009002 0
M  V30 19 C -3.049941 -2.868286 -2.241173 0
M  V30 20 C -3.028094 -4.051312 -2.966524 0
M  V30 21 C -3.620878 -5.178857 -2.451953 0
M  V30 22 C -3.611076 -6.366719 -3.158125 0
M  V30 23 C -4.219973 -7.506340 -2.619480 0
M  V30 24 C -4.836579 -7.464606 -1.382749 0
M  V30 25 C -4.850185 -6.264960 -0.662495 0
M  V30 26 C -4.238309 -5.145919 -1.219121 0
M  V30 27 N -4.238404 -3.991130 -0.552458 0
M  V30 28 C -2.805424 0.237447 0.941022 0
M  V30 29 O -3.805862 0.801921 1.500103 0
M  V30 30 O -1.498765 0.724557 1.155241 0
M  V30 31 H 0.586829 1.534338 3.748385 0
M  V30 32 H 1.625731 2.339763 5.039665 0
M  V30 33 H 1.153744 0.648020 5.149219 0
M  V30 34 H 2.446954 0.147229 3.039353 0
M  V30 35 H 3.289021 0.398109 4.556992 0
M  V30 36 H 4.469714 1.496553 2.723645 0
M  V30 37 H 3.810513 2.728644 3.926754 0
M  V30 38 H 2.082930 3.338934 2.529406 0
M  V30 39 H 4.070243 4.556277 2.273098 0
M  V30 40 H 3.377214 4.429597 0.668917 0
M  V30 41 H 5.901133 2.934765 1.581160 0
M  V30 42 H 5.706502 4.286742 0.482629 0
M  V30 43 H 4.870092 1.380101 -0.020786 0
M  V30 44 H 4.519247 2.820895 -1.147394 0
M  V30 45 H 6.186438 2.355779 -0.652215 0
M  V30 46 H 1.245100 -0.175061 -0.481775 0
M  V30 47 H 0.226155 1.257905 -0.765997 0
M  V30 48 H -0.971436 -1.927559 1.861801 0
M  V30 49 H 0.414561 -0.852583 2.391786 0
M  V30 50 H 0.288078 -2.935967 0.501213 0
M  V30 51 H -1.444488 -0.188569 -1.415315 0
M  V30 52 H -0.998921 -1.851614 -0.806408 0
M  V30 53 H -4.720562 -1.557806 0.456117 0
M  V30 54 H -2.618441 -1.929455 -2.555848 0
M  V30 55 H -2.535623 -4.043537 -3.930093 0
M  V30 56 H -3.136460 -6.430634 -4.128851 0
M  V30 57 H -4.231220 -8.468989 -3.154380 0
M  V30 58 H -5.301754 -8.374332 -0.993899 0
M  V30 59 H -5.328117 -6.215307 0.306019 0
M  V30 END ATOM
M  V30 BEGIN BOND
M  V30 1 1 1 2
M  V30 2 1 2 3
M  V30 3 1 3 4
M  V30 4 1 4 5
M  V30 5 1 5 6
M  V30 6 1 6 7
M  V30 7 1 4 8
M  V30 8 2 8 9
M  V30 9 1 8 10
M  V30 10 1 10 11
M  V30 11 1 11 12
M  V30 12 1 12 13
M  V30 13 1 13 14
M  V30 14 1 12 15
M  V30 15 1 15 16
M  V30 16 2 16 17
M  V30 17 1 17 18
M  V30 18 2 18 19
M  V30 19 1 19 20
M  V30 20 2 20 21
M  V30 21 1 21 22
M  V30 22 2 22 23
M  V30 23 1 23 24
M  V30 24 2 24 25
M  V30 25 1 25 26
M  V30 26 2 26 27
M  V30 27 1 16 28
M  V30 28 2 28 29
M  V30 29 1 28 30
M  V30 30 1 30 12
M  V30 31 1 27 18
M  V30 32 1 26 21
M  V30 33 1 1 31
M  V30 34 1 1 32
M  V30 35 1 1 33
M  V30 36 1 2 34
M  V30 37 1 2 35
M  V30 38 1 3 36
M  V30 39 1 3 37
M  V30 40 1 4 38
M  V30 41 1 5 39
M  V30 42 1 5 40
M  V30 43 1 6 41
M  V30 44 1 6 42
M  V30 45 1 7 43
M  V30 46 1 7 44
M  V30 47 1 7 45
M  V30 48 1 11 46
M  V30 49 1 11 47
M  V30 50 1 13 48
M  V30 51 1 13 49
M  V30 52 1 14 50
M  V30 53 1 15 51
M  V30 54 1 15 52
M  V30 55 1 17 53
M  V30 56 1 19 54
M  V30 57 1 20 55
M  V30 58 1 22 56
M  V30 59 1 23 57
M  V30 60 1 24 58
M  V30 61 1 25 59
M  V30 END BOND
M  V30 END CTAB
M  END
>  <Dataset>  (858) 
ChEMBL_Kinases

>  <Ligand_Instance>  (858) 
nan

>  <PDB_ID>  (858) 
nan

>  <Standardized_SMILES>  (858) 
CCCC(CCC)C(=O)OCC1(CO)C/C(=C\c2ccc3ccccc3n2)C(=O)O1

>  <Name>  (858) 
nan

>  <Pocket>  (858) 
nan

>  <ATP_Site>  (858) 
nan

>  <Peripheral>  (858) 
nan

>  <Num_H_Atoms_ProtBoundConf>  (858) 
nan

>  <Num_Resolved_Atoms>  (858) 
nan

>  <Num_Not_Resolved_Atoms>  (858) 
nan

$$$$
CHEMBL3728675
     RDKit          3D

  0  0  0  0  0  0  0  0  0  0999 V3000
M  V30 BEGIN CTAB
M  V30 COUNTS 54 58 0 0 0
M  V30 BEGIN ATOM
M  V30 1 C -1.025481 -2.737242 3.591414 0
M  V30 2 C 0.188858 -2.083622 3.587274 0
M  V30 3 C 0.395130 -1.333364 2.450290 0
M  V30 4 C 1.642506 -0.571716 2.285645 0
M  V30 5 N 1.805022 0.160508 1.138992 0
M  V30 6 C 2.958016 0.849847 1.012930 0
M  V30 7 N 3.275567 1.653104 -0.112198 0
M  V30 8 C 2.219662 1.645584 -1.105620 0 CFG=2
M  V30 9 C 2.639555 2.532290 -2.281439 0
M  V30 10 C 2.325898 3.896787 -1.759172 0
M  V30 11 N 1.464824 3.765895 -0.626485 0
M  V30 12 C 1.000366 2.413481 -0.624953 0
M  V30 13 C 3.946567 0.808506 2.028938 0
M  V30 14 S 5.490814 1.545327 2.191487 0
M  V30 15 C 5.838099 0.773099 3.895311 0
M  V30 16 C 4.674422 0.009756 4.142749 0
M  V30 17 C 3.728508 0.041720 3.184069 0
M  V30 18 N 2.555728 -0.615212 3.233664 0
M  V30 19 C -0.516374 -1.243074 1.420789 0
M  V30 20 C -1.709258 -1.928121 1.501245 0
M  V30 21 N -2.649998 -1.832282 0.443773 0
M  V30 22 C -3.919222 -2.521040 0.442919 0
M  V30 23 C -3.646432 -4.007451 0.469038 0
M  V30 24 C -2.945457 -4.326528 -0.841701 0
M  V30 25 C -3.987516 -4.310098 -1.932866 0
M  V30 26 C -5.116274 -3.402802 -1.569451 0
M  V30 27 C -4.729619 -2.188951 -0.792587 0
M  V30 28 N -1.930871 -2.665738 2.601132 0
M  V30 29 H -1.310632 -3.364168 4.433967 0
M  V30 30 H 0.896837 -2.150567 4.381234 0
M  V30 31 H 4.146562 2.177400 -0.213741 0
M  V30 32 H 1.915297 0.637399 -1.417461 0
M  V30 33 H 3.706731 2.333256 -2.474432 0
M  V30 34 H 2.028216 2.258451 -3.180651 0
M  V30 35 H 1.786175 4.492522 -2.550384 0
M  V30 36 H 3.285324 4.402949 -1.480592 0
M  V30 37 H 1.903019 4.064685 0.276741 0
M  V30 38 H 0.232779 2.277109 -1.410347 0
M  V30 39 H 0.585514 2.067709 0.315638 0
M  V30 40 H 6.736218 0.900468 4.525191 0
M  V30 41 H 4.681636 -0.515642 5.083580 0
M  V30 42 H -0.354469 -0.649319 0.519691 0
M  V30 43 H -2.432771 -1.237997 -0.386509 0
M  V30 44 H -4.492591 -2.219904 1.362524 0
M  V30 45 H -3.071547 -4.309936 1.357681 0
M  V30 46 H -4.643452 -4.527987 0.468532 0
M  V30 47 H -2.141999 -3.583745 -1.003352 0
M  V30 48 H -2.446403 -5.330479 -0.771175 0
M  V30 49 H -4.318838 -5.369857 -2.048983 0
M  V30 50 H -3.500651 -4.043036 -2.897949 0
M  V30 51 H -5.917198 -3.927975 -1.007203 0
M  V30 52 H -5.573798 -3.047594 -2.518697 0
M  V30 53 H -5.659719 -1.672260 -0.496286 0
M  V30 54 H -4.122321 -1.513601 -1.433504 0
M  V30 END ATOM
M  V30 BEGIN BOND
M  V30 1 2 1 2
M  V30 2 1 2 3
M  V30 3 1 3 4
M  V30 4 2 4 5
M  V30 5 1 5 6
M  V30 6 1 6 7
M  V30 7 1 7 8
M  V30 8 1 8 9
M  V30 9 1 9 10
M  V30 10 1 10 11
M  V30 11 1 11 12
M  V30 12 2 6 13
M  V30 13 1 13 14
M  V30 14 1 14 15
M  V30 15 2 15 16
M  V30 16 1 16 17
M  V30 17 2 17 18
M  V30 18 2 3 19
M  V30 19 1 19 20
M  V30 20 1 20 21
M  V30 21 1 21 22
M  V30 22 1 22 23
M  V30 23 1 23 24
M  V30 24 1 24 25
M  V30 25 1 25 26
M  V30 26 1 26 27
M  V30 27 2 20 28
M  V30 28 1 28 1
M  V30 29 1 18 4
M  V30 30 1 27 22
M  V30 31 1 12 8
M  V30 32 1 17 13
M  V30 33 1 1 29
M  V30 34 1 2 30
M  V30 35 1 7 31
M  V30 36 1 8 32 CFG=3
M  V30 37 1 9 33
M  V30 38 1 9 34
M  V30 39 1 10 35
M  V30 40 1 10 36
M  V30 41 1 11 37
M  V30 42 1 12 38
M  V30 43 1 12 39
M  V30 44 1 15 40
M  V30 45 1 16 41
M  V30 46 1 19 42
M  V30 47 1 21 43
M  V30 48 1 22 44
M  V30 49 1 23 45
M  V30 50 1 23 46
M  V30 51 1 24 47
M  V30 52 1 24 48
M  V30 53 1 25 49
M  V30 54 1 25 50
M  V30 55 1 26 51
M  V30 56 1 26 52
M  V30 57 1 27 53
M  V30 58 1 27 54
M  V30 END BOND
M  V30 END CTAB
M  END
>  <Dataset>  (859) 
ChEMBL_Kinases

>  <Ligand_Instance>  (859) 
nan

>  <PDB_ID>  (859) 
nan

>  <Standardized_SMILES>  (859) 
c1cc(-c2nc(N[C@@H]3CCNC3)c3sccc3n2)cc(NC2CCCCC2)n1

>  <Name>  (859) 
nan

>  <Pocket>  (859) 
nan

>  <ATP_Site>  (859) 
nan

>  <Peripheral>  (859) 
nan

>  <Num_H_Atoms_ProtBoundConf>  (859) 
nan

>  <Num_Resolved_Atoms>  (859) 
nan

>  <Num_Not_Resolved_Atoms>  (859) 
nan

$$$$
CHEMBL549479
     RDKit          3D

  0  0  0  0  0  0  0  0  0  0999 V3000
M  V30 BEGIN CTAB
M  V30 COUNTS 36 39 0 0 0
M  V30 BEGIN ATOM
M  V30 1 C -1.895352 -5.508024 2.509949 0
M  V30 2 N -1.350378 -4.332610 2.018358 0
M  V30 3 C -0.796688 -3.138402 1.518905 0
M  V30 4 N 0.381128 -2.828966 0.977279 0
M  V30 5 C 0.693923 -1.593904 0.564600 0
M  V30 6 N 1.829226 -1.159143 0.010751 0
M  V30 7 C 1.546452 0.139801 -0.179223 0
M  V30 8 C 2.506851 1.077349 -0.781172 0
M  V30 9 C 3.762884 0.618303 -1.177430 0
M  V30 10 C 4.702051 1.456291 -1.747127 0
M  V30 11 C 4.376729 2.778211 -1.922822 0
M  V30 12 F 5.330104 3.577051 -2.488867 0
M  V30 13 C 3.132606 3.226829 -1.528896 0
M  V30 14 C 2.184285 2.405785 -0.959488 0
M  V30 15 C 0.283721 0.499585 0.240204 0
M  V30 16 C -0.287807 -0.651660 0.736206 0
M  V30 17 C -1.534747 -0.848182 1.279046 0
M  V30 18 C -1.799282 -2.161696 1.690691 0
M  V30 19 N -3.075256 -2.032485 2.169704 0
M  V30 20 C -3.500876 -0.771761 2.045857 0
M  V30 21 N -2.553876 -0.005491 1.489288 0
M  V30 22 C -2.649345 1.395933 1.201319 0
M  V30 23 H -2.931250 -5.279818 2.983842 0
M  V30 24 H -2.130418 -6.246263 1.690338 0
M  V30 25 H -1.326406 -6.095102 3.281224 0
M  V30 26 H -0.466662 -4.903895 1.800098 0
M  V30 27 H 2.672843 -1.716492 -0.195876 0
M  V30 28 H 4.029683 -0.433318 -1.040678 0
M  V30 29 H 5.661467 1.046570 -2.036382 0
M  V30 30 H 2.905236 4.267710 -1.679074 0
M  V30 31 H 1.212782 2.783873 -0.658225 0
M  V30 32 H -0.127352 1.489951 0.173392 0
M  V30 33 H -4.497572 -0.494291 2.379377 0
M  V30 34 H -3.651699 1.798218 1.483718 0
M  V30 35 H -2.522443 1.583760 0.118959 0
M  V30 36 H -1.900896 1.929414 1.827140 0
M  V30 END ATOM
M  V30 BEGIN BOND
M  V30 1 1 1 2
M  V30 2 1 2 3
M  V30 3 2 3 4
M  V30 4 1 4 5
M  V30 5 1 5 6
M  V30 6 1 6 7
M  V30 7 1 7 8
M  V30 8 2 8 9
M  V30 9 1 9 10
M  V30 10 2 10 11
M  V30 11 1 11 12
M  V30 12 1 11 13
M  V30 13 2 13 14
M  V30 14 2 7 15
M  V30 15 1 15 16
M  V30 16 1 16 17
M  V30 17 2 17 18
M  V30 18 1 18 19
M  V30 19 2 19 20
M  V30 20 1 20 21
M  V30 21 1 21 22
M  V30 22 1 18 3
M  V30 23 2 16 5
M  V30 24 1 21 17
M  V30 25 1 14 8
M  V30 26 1 1 23
M  V30 27 1 1 24
M  V30 28 1 1 25
M  V30 29 1 2 26
M  V30 30 1 6 27
M  V30 31 1 9 28
M  V30 32 1 10 29
M  V30 33 1 13 30
M  V30 34 1 14 31
M  V30 35 1 15 32
M  V30 36 1 20 33
M  V30 37 1 22 34
M  V30 38 1 22 35
M  V30 39 1 22 36
M  V30 END BOND
M  V30 END CTAB
M  END
>  <Dataset>  (860) 
ChEMBL_Kinases

>  <Ligand_Instance>  (860) 
nan

>  <PDB_ID>  (860) 
nan

>  <Standardized_SMILES>  (860) 
CNc1nc2[nH]c(-c3ccc(F)cc3)cc2c2c1ncn2C

>  <Name>  (860) 
nan

>  <Pocket>  (860) 
nan

>  <ATP_Site>  (860) 
nan

>  <Peripheral>  (860) 
nan

>  <Num_H_Atoms_ProtBoundConf>  (860) 
nan

>  <Num_Resolved_Atoms>  (860) 
nan

>  <Num_Not_Resolved_Atoms>  (860) 
nan

$$$$
CHEMBL549585
     RDKit          3D

  0  0  0  0  0  0  0  0  0  0999 V3000
M  V30 BEGIN CTAB
M  V30 COUNTS 41 45 0 0 0
M  V30 BEGIN ATOM
M  V30 1 C -0.424921 -5.083015 -1.708137 0
M  V30 2 C 0.113311 -5.124400 -0.294965 0 CFG=2
M  V30 3 C -0.347607 -3.977048 0.529986 0
M  V30 4 N 0.172590 -2.691242 0.076542 0
M  V30 5 C 1.463855 -2.142599 0.282077 0
M  V30 6 C 2.564534 -3.018399 0.001025 0
M  V30 7 S 4.029367 -2.091408 0.207432 0
M  V30 8 C 3.157810 -0.516448 0.678225 0
M  V30 9 C 3.718352 0.684699 0.995657 0
M  V30 10 C 2.858382 1.707394 1.320501 0
M  V30 11 C 1.516331 1.395843 1.289889 0
M  V30 12 N 0.746827 2.462036 1.666071 0
M  V30 13 C -0.591704 2.393483 1.750164 0
M  V30 14 C -1.328894 3.581336 2.158537 0
M  V30 15 C -0.582236 4.708565 2.433337 0
M  V30 16 N -1.203217 5.860579 2.822067 0
M  V30 17 C -2.537407 5.906927 2.939759 0
M  V30 18 N -3.273767 4.803181 2.671094 0
M  V30 19 C -2.697025 3.650256 2.285543 0
M  V30 20 C -1.166342 1.182395 1.437070 0
M  V30 21 C -0.363611 0.128645 1.061047 0
M  V30 22 C 0.993646 0.174483 0.964776 0
M  V30 23 C 1.785266 -0.875446 0.628597 0
M  V30 24 C 2.686479 -4.421301 -0.372625 0
M  V30 25 O 3.817469 -4.802326 -0.716426 0
M  V30 26 N 1.546053 -5.321703 -0.343500 0
M  V30 27 H -0.215613 -4.102399 -2.153855 0
M  V30 28 H 0.139237 -5.839377 -2.286100 0
M  V30 29 H -1.492948 -5.383824 -1.742307 0
M  V30 30 H -0.312461 -6.046911 0.198223 0
M  V30 31 H -1.452320 -3.934637 0.435551 0
M  V30 32 H -0.150190 -4.174434 1.594324 0
M  V30 33 H -0.400808 -1.995932 -0.521810 0
M  V30 34 H 4.774552 0.791662 0.982819 0
M  V30 35 H 3.273162 2.665510 1.572158 0
M  V30 36 H 0.502672 4.743144 2.358987 0
M  V30 37 H -3.137099 6.750182 3.235616 0
M  V30 38 H -3.290299 2.775672 2.073421 0
M  V30 39 H -2.241607 1.138708 1.509661 0
M  V30 40 H -0.960881 -0.739297 0.899277 0
M  V30 41 H 1.863896 -6.318605 -0.364627 0
M  V30 END ATOM
M  V30 BEGIN BOND
M  V30 1 1 1 2
M  V30 2 1 2 3
M  V30 3 1 3 4
M  V30 4 1 4 5
M  V30 5 2 5 6
M  V30 6 1 6 7
M  V30 7 1 7 8
M  V30 8 2 8 9
M  V30 9 1 9 10
M  V30 10 2 10 11
M  V30 11 1 11 12
M  V30 12 2 12 13
M  V30 13 1 13 14
M  V30 14 2 14 15
M  V30 15 1 15 16
M  V30 16 2 16 17
M  V30 17 1 17 18
M  V30 18 2 18 19
M  V30 19 1 13 20
M  V30 20 2 20 21
M  V30 21 1 21 22
M  V30 22 2 22 23
M  V30 23 1 6 24
M  V30 24 2 24 25
M  V30 25 1 24 26
M  V30 26 1 26 2
M  V30 27 1 23 5
M  V30 28 1 23 8
M  V30 29 1 22 11
M  V30 30 1 19 14
M  V30 31 1 1 27
M  V30 32 1 1 28
M  V30 33 1 1 29
M  V30 34 1 2 30 CFG=1
M  V30 35 1 3 31
M  V30 36 1 3 32
M  V30 37 1 4 33
M  V30 38 1 9 34
M  V30 39 1 10 35
M  V30 40 1 15 36
M  V30 41 1 17 37
M  V30 42 1 19 38
M  V30 43 1 20 39
M  V30 44 1 21 40
M  V30 45 1 26 41
M  V30 END BOND
M  V30 END CTAB
M  END
>  <Dataset>  (861) 
ChEMBL_Kinases

>  <Ligand_Instance>  (861) 
nan

>  <PDB_ID>  (861) 
nan

>  <Standardized_SMILES>  (861) 
C[C@@H]1CNc2c(sc3ccc4nc(-c5cncnc5)ccc4c23)C(=O)N1

>  <Name>  (861) 
nan

>  <Pocket>  (861) 
nan

>  <ATP_Site>  (861) 
nan

>  <Peripheral>  (861) 
nan

>  <Num_H_Atoms_ProtBoundConf>  (861) 
nan

>  <Num_Resolved_Atoms>  (861) 
nan

>  <Num_Not_Resolved_Atoms>  (861) 
nan

$$$$
CHEMBL549629
     RDKit          3D

  0  0  0  0  0  0  0  0  0  0999 V3000
M  V30 BEGIN CTAB
M  V30 COUNTS 36 38 0 0 0
M  V30 BEGIN ATOM
M  V30 1 N 0.573197 -2.263377 0.380528 0
M  V30 2 C -0.094285 -1.033351 0.571609 0
M  V30 3 C 0.460649 0.205835 0.444402 0
M  V30 4 C 1.865300 0.247530 0.068838 0
M  V30 5 O 2.432469 -0.873037 -0.158886 0
M  V30 6 C 2.838334 1.309942 -0.122863 0
M  V30 7 C 3.638167 1.346953 -1.270770 0
M  V30 8 C 4.558513 2.304554 -1.543979 0
M  V30 9 C 4.726600 3.320445 -0.630798 0
M  V30 10 F 5.637191 4.284534 -0.882557 0
M  V30 11 C 3.978810 3.359435 0.527339 0
M  V30 12 C 3.060907 2.354136 0.742668 0
M  V30 13 F 2.370119 2.424792 1.879157 0
M  V30 14 C -0.346976 1.296315 0.669695 0
M  V30 15 C -1.676577 1.224400 1.015158 0
M  V30 16 N -2.217567 0.001334 1.139137 0 CHG=1 VAL=4
M  V30 17 O -3.541197 -0.126754 1.482276 0 CHG=-1 VAL=1
M  V30 18 C -1.449928 -1.080839 0.924063 0
M  V30 19 C -2.099080 -2.381014 1.074999 0
M  V30 20 C -2.680847 -2.891748 -0.085783 0
M  V30 21 C -3.325462 -4.108502 -0.083114 0
M  V30 22 C -3.390385 -4.817852 1.079181 0
M  V30 23 F -4.027598 -6.026617 1.093649 0
M  V30 24 C -2.827576 -4.346557 2.247281 0
M  V30 25 C -2.180850 -3.123785 2.240573 0
M  V30 26 F -1.584348 -2.543001 3.317665 0
M  V30 27 H 1.102257 -2.927844 0.971668 0
M  V30 28 H 1.105725 -2.920337 1.003916 0
M  V30 29 H 3.520211 0.558159 -1.998384 0
M  V30 30 H 5.160734 2.302761 -2.442357 0
M  V30 31 H 4.121513 4.157939 1.229444 0
M  V30 32 H 0.068933 2.274867 0.567533 0
M  V30 33 H -2.273436 2.106945 1.182946 0
M  V30 34 H -2.650586 -2.357541 -1.030674 0
M  V30 35 H -3.781414 -4.508859 -0.992714 0
M  V30 36 H -2.857851 -4.876735 3.184137 0
M  V30 END ATOM
M  V30 BEGIN BOND
M  V30 1 1 1 2
M  V30 2 2 2 3
M  V30 3 1 3 4
M  V30 4 2 4 5
M  V30 5 1 4 6
M  V30 6 2 6 7
M  V30 7 1 7 8
M  V30 8 2 8 9
M  V30 9 1 9 10
M  V30 10 1 9 11
M  V30 11 2 11 12
M  V30 12 1 12 13
M  V30 13 1 3 14
M  V30 14 2 14 15
M  V30 15 1 15 16
M  V30 16 1 16 17
M  V30 17 2 16 18
M  V30 18 1 18 19
M  V30 19 2 19 20
M  V30 20 1 20 21
M  V30 21 2 21 22
M  V30 22 1 22 23
M  V30 23 1 22 24
M  V30 24 2 24 25
M  V30 25 1 25 26
M  V30 26 1 18 2
M  V30 27 1 25 19
M  V30 28 1 12 6
M  V30 29 1 1 27
M  V30 30 1 1 28
M  V30 31 1 7 29
M  V30 32 1 8 30
M  V30 33 1 11 31
M  V30 34 1 14 32
M  V30 35 1 15 33
M  V30 36 1 20 34
M  V30 37 1 21 35
M  V30 38 1 24 36
M  V30 END BOND
M  V30 END CTAB
M  END
>  <Dataset>  (862) 
ChEMBL_Kinases

>  <Ligand_Instance>  (862) 
nan

>  <PDB_ID>  (862) 
nan

>  <Standardized_SMILES>  (862) 
Nc1c(C(=O)c2ccc(F)cc2F)cc[n+]([O-])c1-c1ccc(F)cc1F

>  <Name>  (862) 
nan

>  <Pocket>  (862) 
nan

>  <ATP_Site>  (862) 
nan

>  <Peripheral>  (862) 
nan

>  <Num_H_Atoms_ProtBoundConf>  (862) 
nan

>  <Num_Resolved_Atoms>  (862) 
nan

>  <Num_Not_Resolved_Atoms>  (862) 
nan

$$$$
CHEMBL549630
     RDKit          3D

  0  0  0  0  0  0  0  0  0  0999 V3000
M  V30 BEGIN CTAB
M  V30 COUNTS 39 41 0 0 0
M  V30 BEGIN ATOM
M  V30 1 C 2.024019 -3.451443 0.361654 0
M  V30 2 C 2.040882 -2.939629 -1.014306 0
M  V30 3 C 3.002283 -3.418928 -1.884541 0
M  V30 4 C 3.088984 -2.992182 -3.192231 0
M  V30 5 Cl 4.302819 -3.587820 -4.315821 0
M  V30 6 C 2.165413 -2.051931 -3.611190 0
M  V30 7 C 1.186813 -1.544534 -2.776450 0
M  V30 8 C 1.123779 -1.994436 -1.460482 0
M  V30 9 C 0.137901 -1.538886 -0.474188 0
M  V30 10 C 0.436013 -0.429237 0.329093 0
M  V30 11 N 1.703047 0.197572 0.132109 0
M  V30 12 C -0.504942 -0.041607 1.228720 0
M  V30 13 C -0.166326 1.104908 2.055352 0
M  V30 14 O 0.980265 1.608265 1.911593 0
M  V30 15 C -0.867725 1.865895 3.075189 0
M  V30 16 C -0.266433 2.164358 4.300091 0
M  V30 17 C -0.912497 2.868268 5.292340 0
M  V30 18 C -2.202538 3.307677 5.096812 0
M  V30 19 F -2.840828 4.000449 6.071745 0
M  V30 20 C -2.846930 3.042663 3.906863 0
M  V30 21 C -2.156430 2.334835 2.946142 0
M  V30 22 F -2.842386 2.124204 1.805093 0
M  V30 23 C -1.669955 -0.770855 1.275307 0
M  V30 24 C -1.935837 -1.848571 0.480935 0
M  V30 25 N -1.001151 -2.223881 -0.404355 0 CHG=1 VAL=4
M  V30 26 O -1.227733 -3.309240 -1.228779 0 CHG=-1 VAL=1
M  V30 27 H 1.606312 -4.494693 0.340345 0
M  V30 28 H 3.064839 -3.586929 0.738365 0
M  V30 29 H 1.529002 -2.792289 1.088580 0
M  V30 30 H 3.736749 -4.158731 -1.572092 0
M  V30 31 H 2.219962 -1.701557 -4.648119 0
M  V30 32 H 0.460413 -0.813580 -3.083566 0
M  V30 33 H 1.444611 0.842144 -0.648021 0
M  V30 34 H 2.642729 0.121347 0.560654 0
M  V30 35 H 0.733400 1.847981 4.505982 0
M  V30 36 H -0.448106 3.100705 6.242835 0
M  V30 37 H -3.856755 3.394923 3.772393 0
M  V30 38 H -2.421866 -0.488729 1.980622 0
M  V30 39 H -2.874831 -2.387311 0.561439 0
M  V30 END ATOM
M  V30 BEGIN BOND
M  V30 1 1 1 2
M  V30 2 2 2 3
M  V30 3 1 3 4
M  V30 4 1 4 5
M  V30 5 2 4 6
M  V30 6 1 6 7
M  V30 7 2 7 8
M  V30 8 1 8 9
M  V30 9 2 9 10
M  V30 10 1 10 11
M  V30 11 1 10 12
M  V30 12 1 12 13
M  V30 13 2 13 14
M  V30 14 1 13 15
M  V30 15 2 15 16
M  V30 16 1 16 17
M  V30 17 2 17 18
M  V30 18 1 18 19
M  V30 19 1 18 20
M  V30 20 2 20 21
M  V30 21 1 21 22
M  V30 22 2 12 23
M  V30 23 1 23 24
M  V30 24 2 24 25
M  V30 25 1 25 26
M  V30 26 1 8 2
M  V30 27 1 25 9
M  V30 28 1 21 15
M  V30 29 1 1 27
M  V30 30 1 1 28
M  V30 31 1 1 29
M  V30 32 1 3 30
M  V30 33 1 6 31
M  V30 34 1 7 32
M  V30 35 1 11 33
M  V30 36 1 11 34
M  V30 37 1 16 35
M  V30 38 1 17 36
M  V30 39 1 20 37
M  V30 40 1 23 38
M  V30 41 1 24 39
M  V30 END BOND
M  V30 END CTAB
M  END
>  <Dataset>  (863) 
ChEMBL_Kinases

>  <Ligand_Instance>  (863) 
nan

>  <PDB_ID>  (863) 
nan

>  <Standardized_SMILES>  (863) 
Cc1cc(Cl)ccc1-c1c(N)c(C(=O)c2ccc(F)cc2F)cc[n+]1[O-]

>  <Name>  (863) 
nan

>  <Pocket>  (863) 
nan

>  <ATP_Site>  (863) 
nan

>  <Peripheral>  (863) 
nan

>  <Num_H_Atoms_ProtBoundConf>  (863) 
nan

>  <Num_Resolved_Atoms>  (863) 
nan

>  <Num_Not_Resolved_Atoms>  (863) 
nan

$$$$
CHEMBL549804
     RDKit          3D

  0  0  0  0  0  0  0  0  0  0999 V3000
M  V30 BEGIN CTAB
M  V30 COUNTS 55 57 0 0 0
M  V30 BEGIN ATOM
M  V30 1 C -0.274821 -0.349934 3.333928 0
M  V30 2 C 1.012886 0.159934 3.943844 0
M  V30 3 C 1.985861 -1.000314 3.953579 0
M  V30 4 C 3.322056 -0.603507 4.548471 0
M  V30 5 N 3.940871 0.469828 3.800221 0
M  V30 6 C 4.377985 0.368440 2.452804 0
M  V30 7 N 5.694635 0.279007 2.194280 0
M  V30 8 C 6.144457 0.175724 0.924867 0
M  V30 9 C 5.299702 0.155452 -0.163416 0
M  V30 10 C 3.961439 0.245489 0.109455 0
M  V30 11 C 2.945868 0.236029 -0.936650 0
M  V30 12 C 1.610747 0.291050 -0.636446 0
M  V30 13 C 0.574105 0.265493 -1.537029 0
M  V30 14 C -0.787593 0.305691 -1.032280 0
M  V30 15 O -0.988009 0.397183 0.229940 0
M  V30 16 N -1.994269 0.255695 -1.725764 0
M  V30 17 C -3.088815 0.330277 -0.773691 0
M  V30 18 C -4.436114 0.260502 -1.437993 0
M  V30 19 C -4.601333 -1.052532 -2.170941 0
M  V30 20 C -4.491701 -2.209709 -1.232976 0
M  V30 21 C -5.493282 -2.788477 -0.490735 0
M  V30 22 C -5.220832 -3.857685 0.329804 0
M  V30 23 C -3.974155 -4.417402 0.472537 0
M  V30 24 N -2.969053 -3.853433 -0.256801 0
M  V30 25 C -3.225657 -2.791822 -1.074811 0
M  V30 26 C 1.019278 0.177067 -2.846079 0
M  V30 27 O 0.121089 0.150963 -3.723805 0
M  V30 28 N 2.319394 0.121961 -3.175555 0
M  V30 29 N 3.271209 0.150126 -2.241996 0
M  V30 30 N 3.568445 0.346959 1.392926 0
M  V30 31 H -0.935872 0.460709 2.967417 0
M  V30 32 H -0.068114 -1.072505 2.490760 0
M  V30 33 H -0.830144 -0.951290 4.095824 0
M  V30 34 H 0.770871 0.460047 4.979721 0
M  V30 35 H 1.352292 1.021089 3.361417 0
M  V30 36 H 2.090075 -1.413347 2.947333 0
M  V30 37 H 1.550593 -1.783800 4.605786 0
M  V30 38 H 3.982391 -1.499182 4.440681 0
M  V30 39 H 3.233190 -0.338418 5.603823 0
M  V30 40 H 4.103719 1.407500 4.233612 0
M  V30 41 H 7.206016 0.104927 0.744945 0
M  V30 42 H 5.616023 0.072398 -1.195289 0
M  V30 43 H 1.381010 0.358928 0.426404 0
M  V30 44 H -1.937822 0.175015 -2.754748 0
M  V30 45 H -3.031246 1.273131 -0.200638 0
M  V30 46 H -2.974736 -0.509750 -0.038607 0
M  V30 47 H -5.199971 0.464628 -0.689455 0
M  V30 48 H -4.460830 1.059384 -2.192473 0
M  V30 49 H -3.791712 -1.112760 -2.908334 0
M  V30 50 H -5.569708 -1.027939 -2.698850 0
M  V30 51 H -6.469260 -2.337628 -0.615126 0
M  V30 52 H -6.051199 -4.283950 0.899141 0
M  V30 53 H -3.839545 -5.254748 1.135772 0
M  V30 54 H -2.319761 -2.488183 -1.566193 0
M  V30 55 H 2.514428 0.056753 -4.195362 0
M  V30 END ATOM
M  V30 BEGIN BOND
M  V30 1 1 1 2
M  V30 2 1 2 3
M  V30 3 1 3 4
M  V30 4 1 4 5
M  V30 5 1 5 6
M  V30 6 2 6 7
M  V30 7 1 7 8
M  V30 8 2 8 9
M  V30 9 1 9 10
M  V30 10 1 10 11
M  V30 11 1 11 12
M  V30 12 2 12 13
M  V30 13 1 13 14
M  V30 14 2 14 15
M  V30 15 1 14 16
M  V30 16 1 16 17
M  V30 17 1 17 18
M  V30 18 1 18 19
M  V30 19 1 19 20
M  V30 20 2 20 21
M  V30 21 1 21 22
M  V30 22 2 22 23
M  V30 23 1 23 24
M  V30 24 2 24 25
M  V30 25 1 13 26
M  V30 26 2 26 27
M  V30 27 1 26 28
M  V30 28 1 28 29
M  V30 29 2 10 30
M  V30 30 1 30 6
M  V30 31 2 29 11
M  V30 32 1 25 20
M  V30 33 1 1 31
M  V30 34 1 1 32
M  V30 35 1 1 33
M  V30 36 1 2 34
M  V30 37 1 2 35
M  V30 38 1 3 36
M  V30 39 1 3 37
M  V30 40 1 4 38
M  V30 41 1 4 39
M  V30 42 1 5 40
M  V30 43 1 8 41
M  V30 44 1 9 42
M  V30 45 1 12 43
M  V30 46 1 16 44
M  V30 47 1 17 45
M  V30 48 1 17 46
M  V30 49 1 18 47
M  V30 50 1 18 48
M  V30 51 1 19 49
M  V30 52 1 19 50
M  V30 53 1 21 51
M  V30 54 1 22 52
M  V30 55 1 23 53
M  V30 56 1 25 54
M  V30 57 1 28 55
M  V30 END BOND
M  V30 END CTAB
M  END
>  <Dataset>  (864) 
ChEMBL_Kinases

>  <Ligand_Instance>  (864) 
nan

>  <PDB_ID>  (864) 
nan

>  <Standardized_SMILES>  (864) 
CCCCNc1nccc(-c2cc(C(=O)NCCCc3cccnc3)c(=O)[nH]n2)n1

>  <Name>  (864) 
nan

>  <Pocket>  (864) 
nan

>  <ATP_Site>  (864) 
nan

>  <Peripheral>  (864) 
nan

>  <Num_H_Atoms_ProtBoundConf>  (864) 
nan

>  <Num_Resolved_Atoms>  (864) 
nan

>  <Num_Not_Resolved_Atoms>  (864) 
nan

$$$$
CHEMBL549906
     RDKit          3D

  0  0  0  0  0  0  0  0  0  0999 V3000
M  V30 BEGIN CTAB
M  V30 COUNTS 47 51 0 0 0
M  V30 BEGIN ATOM
M  V30 1 O 4.510235 -5.066210 -1.103191 0
M  V30 2 C 3.505074 -5.817087 -0.887603 0
M  V30 3 O 3.767080 -7.164026 -0.688978 0
M  V30 4 C 2.079054 -5.339551 -0.836716 0
M  V30 5 C 2.011368 -3.876942 -1.071404 0
M  V30 6 C 1.874169 -3.251714 -2.284684 0
M  V30 7 C 1.821675 -1.873715 -2.398152 0
M  V30 8 C 1.905111 -1.061953 -1.293427 0
M  V30 9 C 1.848709 0.391232 -1.425555 0
M  V30 10 C 2.571760 1.070030 -2.401171 0
M  V30 11 N 2.273379 2.387919 -2.219700 0
M  V30 12 C 1.414839 2.529942 -1.192448 0
M  V30 13 N 0.814546 3.599475 -0.608648 0
M  V30 14 C -0.022980 3.446398 0.433554 0
M  V30 15 C -0.311189 2.202041 0.957232 0
M  V30 16 C -1.226094 2.033669 2.095917 0
M  V30 17 C -1.326792 3.003675 3.075080 0
M  V30 18 C -2.204533 2.815493 4.145324 0
M  V30 19 C -2.957679 1.651716 4.197971 0
M  V30 20 C -3.835319 1.442395 5.249857 0
M  V30 21 C -4.617942 0.327944 5.386497 0
M  V30 22 C -4.525715 -0.646672 4.415130 0
M  V30 23 C -3.657589 -0.463823 3.353711 0
M  V30 24 C -2.871281 0.663319 3.222860 0
M  V30 25 C -1.992249 0.887803 2.182201 0
M  V30 26 C 0.271819 1.079945 0.401846 0
M  V30 27 C 1.122925 1.288340 -0.664678 0
M  V30 28 C 2.043997 -1.701808 -0.067375 0
M  V30 29 C 2.096870 -3.082341 0.049351 0
M  V30 30 H 4.613185 -7.412382 -0.180923 0
M  V30 31 H 1.649077 -5.610301 0.142839 0
M  V30 32 H 1.497382 -5.855708 -1.603937 0
M  V30 33 H 1.808614 -3.884006 -3.150614 0
M  V30 34 H 1.713057 -1.465385 -3.384229 0
M  V30 35 H 3.240490 0.639833 -3.157079 0
M  V30 36 H 2.667269 3.174826 -2.808799 0
M  V30 37 H -0.505464 4.310773 0.902243 0
M  V30 38 H -0.711246 3.900379 2.984757 0
M  V30 39 H -2.281239 3.581113 4.914293 0
M  V30 40 H -3.921277 2.195216 6.020952 0
M  V30 41 H -5.294378 0.213520 6.237718 0
M  V30 42 H -5.131384 -1.563533 4.474032 0
M  V30 43 H -3.572398 -1.218416 2.581837 0
M  V30 44 H -1.936269 0.106982 1.428621 0
M  V30 45 H 0.048705 0.103678 0.809031 0
M  V30 46 H 2.114694 -1.115277 0.835518 0
M  V30 47 H 2.208022 -3.521079 1.052534 0
M  V30 END ATOM
M  V30 BEGIN BOND
M  V30 1 2 1 2
M  V30 2 1 2 3
M  V30 3 1 2 4
M  V30 4 1 4 5
M  V30 5 2 5 6
M  V30 6 1 6 7
M  V30 7 2 7 8
M  V30 8 1 8 9
M  V30 9 2 9 10
M  V30 10 1 10 11
M  V30 11 1 11 12
M  V30 12 2 12 13
M  V30 13 1 13 14
M  V30 14 2 14 15
M  V30 15 1 15 16
M  V30 16 2 16 17
M  V30 17 1 17 18
M  V30 18 2 18 19
M  V30 19 1 19 20
M  V30 20 2 20 21
M  V30 21 1 21 22
M  V30 22 2 22 23
M  V30 23 1 23 24
M  V30 24 2 24 25
M  V30 25 1 15 26
M  V30 26 2 26 27
M  V30 27 1 8 28
M  V30 28 2 28 29
M  V30 29 1 29 5
M  V30 30 1 27 9
M  V30 31 1 27 12
M  V30 32 1 25 16
M  V30 33 1 24 19
M  V30 34 1 3 30
M  V30 35 1 4 31
M  V30 36 1 4 32
M  V30 37 1 6 33
M  V30 38 1 7 34
M  V30 39 1 10 35
M  V30 40 1 11 36
M  V30 41 1 14 37
M  V30 42 1 17 38
M  V30 43 1 18 39
M  V30 44 1 20 40
M  V30 45 1 21 41
M  V30 46 1 22 42
M  V30 47 1 23 43
M  V30 48 1 25 44
M  V30 49 1 26 45
M  V30 50 1 28 46
M  V30 51 1 29 47
M  V30 END BOND
M  V30 END CTAB
M  END
>  <Dataset>  (865) 
ChEMBL_Kinases

>  <Ligand_Instance>  (865) 
nan

>  <PDB_ID>  (865) 
nan

>  <Standardized_SMILES>  (865) 
O=C(O)Cc1ccc(-c2c[nH]c3ncc(-c4ccc5ccccc5c4)cc23)cc1

>  <Name>  (865) 
nan

>  <Pocket>  (865) 
nan

>  <ATP_Site>  (865) 
nan

>  <Peripheral>  (865) 
nan

>  <Num_H_Atoms_ProtBoundConf>  (865) 
nan

>  <Num_Resolved_Atoms>  (865) 
nan

>  <Num_Not_Resolved_Atoms>  (865) 
nan

$$$$
CHEMBL549915
     RDKit          3D

  0  0  0  0  0  0  0  0  0  0999 V3000
M  V30 BEGIN CTAB
M  V30 COUNTS 45 49 0 0 0
M  V30 BEGIN ATOM
M  V30 1 C 4.382388 -3.430102 -0.091505 0
M  V30 2 C 3.877934 -3.323104 -1.482618 0
M  V30 3 C 4.524238 -3.980800 -2.508755 0
M  V30 4 C 4.160003 -3.963703 -3.837603 0
M  V30 5 N 3.063909 -3.223457 -4.121075 0
M  V30 6 C 2.395428 -2.558943 -3.144708 0
M  V30 7 C 2.766249 -2.581749 -1.820923 0
M  V30 8 C 2.032283 -1.860783 -0.794953 0
M  V30 9 C 0.913156 -1.096174 -1.035943 0
M  V30 10 C 0.296445 -0.454230 0.016712 0
M  V30 11 C 0.697707 -0.499883 1.318930 0
M  V30 12 C 1.812239 -1.274160 1.505994 0
M  V30 13 C 2.422073 -1.541864 2.715668 0
M  V30 14 C 1.804159 -0.946083 3.794271 0
M  V30 15 C 0.722805 -0.196311 3.580269 0
M  V30 16 S -0.266194 0.674710 4.830604 0
M  V30 17 C -1.448590 1.365536 3.663615 0
M  V30 18 C -1.017232 0.886586 2.352208 0
M  V30 19 C 0.080375 0.098833 2.373930 0
M  V30 20 N -1.768343 1.389807 1.263007 0
M  V30 21 C -3.234379 1.435897 1.133448 0
M  V30 22 C -3.819278 2.598151 1.859676 0 CFG=1
M  V30 23 C -5.273559 2.793791 1.503910 0
M  V30 24 N -3.638830 2.588604 3.293540 0
M  V30 25 C -2.545358 2.187053 4.147702 0
M  V30 26 O -2.473439 2.518004 5.348294 0
M  V30 27 N 2.444115 -1.922373 0.479940 0
M  V30 28 H 5.281135 -4.112883 -0.093652 0
M  V30 29 H 4.745630 -2.476486 0.326765 0
M  V30 30 H 3.655695 -3.959796 0.571796 0
M  V30 31 H 5.401314 -4.566008 -2.243534 0
M  V30 32 H 4.747812 -4.521521 -4.553091 0
M  V30 33 H 1.545995 -2.012352 -3.510457 0
M  V30 34 H 0.572119 -1.039744 -2.059002 0
M  V30 35 H -0.574819 0.053843 -0.330308 0
M  V30 36 H 3.287071 -2.142469 2.858280 0
M  V30 37 H 2.180818 -1.077633 4.798374 0
M  V30 38 H -1.061798 1.766528 0.536150 0
M  V30 39 H -3.423764 1.631201 0.037881 0
M  V30 40 H -3.712109 0.483155 1.341526 0
M  V30 41 H -3.309565 3.541215 1.510013 0
M  V30 42 H -5.900712 2.375350 2.315406 0
M  V30 43 H -5.522850 2.204660 0.594059 0
M  V30 44 H -5.548566 3.858266 1.409423 0
M  V30 45 H -4.444875 2.938417 3.866880 0
M  V30 END ATOM
M  V30 BEGIN BOND
M  V30 1 1 1 2
M  V30 2 2 2 3
M  V30 3 1 3 4
M  V30 4 2 4 5
M  V30 5 1 5 6
M  V30 6 2 6 7
M  V30 7 1 7 8
M  V30 8 2 8 9
M  V30 9 1 9 10
M  V30 10 2 10 11
M  V30 11 1 11 12
M  V30 12 1 12 13
M  V30 13 2 13 14
M  V30 14 1 14 15
M  V30 15 1 15 16
M  V30 16 1 16 17
M  V30 17 2 17 18
M  V30 18 1 18 19
M  V30 19 1 18 20
M  V30 20 1 20 21
M  V30 21 1 21 22
M  V30 22 1 22 23
M  V30 23 1 22 24
M  V30 24 1 24 25
M  V30 25 2 25 26
M  V30 26 2 12 27
M  V30 27 1 7 2
M  V30 28 1 27 8
M  V30 29 1 19 11
M  V30 30 2 19 15
M  V30 31 1 25 17
M  V30 32 1 1 28
M  V30 33 1 1 29
M  V30 34 1 1 30
M  V30 35 1 3 31
M  V30 36 1 4 32
M  V30 37 1 6 33
M  V30 38 1 9 34
M  V30 39 1 10 35
M  V30 40 1 13 36
M  V30 41 1 14 37
M  V30 42 1 20 38
M  V30 43 1 21 39
M  V30 44 1 21 40
M  V30 45 1 22 41 CFG=3
M  V30 46 1 23 42
M  V30 47 1 23 43
M  V30 48 1 23 44
M  V30 49 1 24 45
M  V30 END BOND
M  V30 END CTAB
M  END
>  <Dataset>  (866) 
ChEMBL_Kinases

>  <Ligand_Instance>  (866) 
nan

>  <PDB_ID>  (866) 
nan

>  <Standardized_SMILES>  (866) 
Cc1ccncc1-c1ccc2c(ccc3sc4c(c32)NC[C@@H](C)NC4=O)n1

>  <Name>  (866) 
nan

>  <Pocket>  (866) 
nan

>  <ATP_Site>  (866) 
nan

>  <Peripheral>  (866) 
nan

>  <Num_H_Atoms_ProtBoundConf>  (866) 
nan

>  <Num_Resolved_Atoms>  (866) 
nan

>  <Num_Not_Resolved_Atoms>  (866) 
nan

$$$$
CHEMBL549953
     RDKit          3D

  0  0  0  0  0  0  0  0  0  0999 V3000
M  V30 BEGIN CTAB
M  V30 COUNTS 57 60 0 0 0
M  V30 BEGIN ATOM
M  V30 1 C 4.311987 -2.221073 1.557858 0
M  V30 2 C 3.917557 -1.501309 2.829993 0
M  V30 3 S 5.008352 -0.115469 3.079593 0
M  V30 4 O 6.380997 -0.638942 3.295719 0
M  V30 5 O 4.576256 0.638526 4.314588 0
M  V30 6 N 4.930105 1.002176 1.774889 0
M  V30 7 C 3.737770 1.683332 1.431623 0
M  V30 8 C 2.893997 2.277557 2.340643 0
M  V30 9 C 1.757440 2.916701 1.894574 0
M  V30 10 C 1.379631 3.012982 0.549831 0
M  V30 11 C 0.132653 3.743457 0.288879 0
M  V30 12 C -1.112397 2.900626 0.324059 0
M  V30 13 N -0.997617 1.877117 -0.693740 0
M  V30 14 C -2.131167 0.983695 -0.781431 0
M  V30 15 O -3.082330 1.177076 0.014511 0
M  V30 16 C -2.173094 -0.103908 -1.757605 0
M  V30 17 C -1.850164 0.181886 -3.067030 0
M  V30 18 C -1.852561 -0.772811 -4.079034 0
M  V30 19 C -2.197285 -2.071586 -3.745297 0
M  V30 20 O -2.233394 -3.104424 -4.672535 0
M  V30 21 C -2.525458 -2.394900 -2.448681 0
M  V30 22 N -2.892995 -3.499302 -1.792368 0
M  V30 23 C -3.106702 -3.282683 -0.494072 0
M  V30 24 C -3.503235 -4.126174 0.619879 0
M  V30 25 C -3.672559 -3.571929 1.895658 0
M  V30 26 C -4.041378 -4.321857 2.984610 0
M  V30 27 C -4.265825 -5.673512 2.876026 0
M  V30 28 F -4.624824 -6.349721 3.991724 0
M  V30 29 C -4.108954 -6.250995 1.639205 0
M  V30 30 C -3.739051 -5.472803 0.568242 0
M  V30 31 Cl -3.576334 -6.331634 -0.922958 0
M  V30 32 N -2.858845 -1.971329 -0.330946 0
M  V30 33 C -2.506753 -1.410009 -1.488839 0
M  V30 34 C 2.249912 2.405300 -0.333879 0
M  V30 35 C 3.385083 1.765975 0.100972 0
M  V30 36 H 3.420890 -2.797089 1.218086 0
M  V30 37 H 5.147152 -2.939074 1.756198 0
M  V30 38 H 4.633513 -1.461297 0.805325 0
M  V30 39 H 4.027555 -2.194158 3.672125 0
M  V30 40 H 2.862329 -1.214110 2.758077 0
M  V30 41 H 5.760339 1.214066 1.193546 0
M  V30 42 H 3.138377 2.232448 3.392502 0
M  V30 43 H 1.144314 3.362552 2.691192 0
M  V30 44 H 0.082155 4.601212 0.992275 0
M  V30 45 H 0.246817 4.198853 -0.735959 0
M  V30 46 H -2.012299 3.528519 0.177852 0
M  V30 47 H -1.245800 2.392111 1.303057 0
M  V30 48 H -0.255856 1.644001 -1.390794 0
M  V30 49 H -1.576432 1.205928 -3.345347 0
M  V30 50 H -1.601281 -0.555519 -5.109436 0
M  V30 51 H -2.311718 -2.897296 -5.676310 0
M  V30 52 H -2.989732 -4.394871 -2.268592 0
M  V30 53 H -3.508202 -2.501709 2.050355 0
M  V30 54 H -4.154395 -3.825954 3.937949 0
M  V30 55 H -4.289358 -7.310214 1.577387 0
M  V30 56 H 1.963366 2.482562 -1.364915 0
M  V30 57 H 3.971463 1.335249 -0.708139 0
M  V30 END ATOM
M  V30 BEGIN BOND
M  V30 1 1 1 2
M  V30 2 1 2 3
M  V30 3 2 3 4
M  V30 4 2 3 5
M  V30 5 1 3 6
M  V30 6 1 6 7
M  V30 7 2 7 8
M  V30 8 1 8 9
M  V30 9 2 9 10
M  V30 10 1 10 11
M  V30 11 1 11 12
M  V30 12 1 12 13
M  V30 13 1 13 14
M  V30 14 2 14 15
M  V30 15 1 14 16
M  V30 16 2 16 17
M  V30 17 1 17 18
M  V30 18 2 18 19
M  V30 19 1 19 20
M  V30 20 1 19 21
M  V30 21 1 21 22
M  V30 22 1 22 23
M  V30 23 1 23 24
M  V30 24 2 24 25
M  V30 25 1 25 26
M  V30 26 2 26 27
M  V30 27 1 27 28
M  V30 28 1 27 29
M  V30 29 2 29 30
M  V30 30 1 30 31
M  V30 31 2 23 32
M  V30 32 1 32 33
M  V30 33 1 10 34
M  V30 34 2 34 35
M  V30 35 1 35 7
M  V30 36 1 33 16
M  V30 37 2 33 21
M  V30 38 1 30 24
M  V30 39 1 1 36
M  V30 40 1 1 37
M  V30 41 1 1 38
M  V30 42 1 2 39
M  V30 43 1 2 40
M  V30 44 1 6 41
M  V30 45 1 8 42
M  V30 46 1 9 43
M  V30 47 1 11 44
M  V30 48 1 11 45
M  V30 49 1 12 46
M  V30 50 1 12 47
M  V30 51 1 13 48
M  V30 52 1 17 49
M  V30 53 1 18 50
M  V30 54 1 20 51
M  V30 55 1 22 52
M  V30 56 1 25 53
M  V30 57 1 26 54
M  V30 58 1 29 55
M  V30 59 1 34 56
M  V30 60 1 35 57
M  V30 END BOND
M  V30 END CTAB
M  END
>  <Dataset>  (867) 
ChEMBL_Kinases

>  <Ligand_Instance>  (867) 
nan

>  <PDB_ID>  (867) 
nan

>  <Standardized_SMILES>  (867) 
CCS(=O)(=O)Nc1ccc(CCNC(=O)c2ccc(O)c3[nH]c(-c4ccc(F)cc4Cl)nc23)cc1

>  <Name>  (867) 
nan

>  <Pocket>  (867) 
nan

>  <ATP_Site>  (867) 
nan

>  <Peripheral>  (867) 
nan

>  <Num_H_Atoms_ProtBoundConf>  (867) 
nan

>  <Num_Resolved_Atoms>  (867) 
nan

>  <Num_Not_Resolved_Atoms>  (867) 
nan

$$$$
CHEMBL3728650
     RDKit          3D

  0  0  0  0  0  0  0  0  0  0999 V3000
M  V30 BEGIN CTAB
M  V30 COUNTS 60 64 0 0 0
M  V30 BEGIN ATOM
M  V30 1 C 4.548805 -2.232970 0.748089 0
M  V30 2 C 4.743503 -1.734927 2.137020 0
M  V30 3 N 5.666417 -2.171452 2.992418 0
M  V30 4 C 5.780810 -1.668997 4.238174 0
M  V30 5 C 4.938287 -0.658553 4.710423 0
M  V30 6 C 3.992720 -0.226217 3.803513 0
M  V30 7 C 3.872480 -0.740370 2.522719 0
M  V30 8 C 2.808635 -0.137032 1.741840 0
M  V30 9 C 3.217948 0.998150 0.995206 0
M  V30 10 C 4.461506 1.713441 0.824342 0
M  V30 11 S 1.651179 1.566819 0.090065 0
M  V30 12 C 0.652743 0.216549 0.824886 0
M  V30 13 C -0.683443 -0.070379 0.644149 0
M  V30 14 N -1.408002 0.777257 -0.218888 0
M  V30 15 C -2.811538 0.519540 -0.444122 0
M  V30 16 C -3.098319 -0.817015 -1.065270 0 CFG=1
M  V30 17 N -4.543069 -0.908943 -1.220598 0
M  V30 18 C -2.466252 -0.956706 -2.434548 0
M  V30 19 C -2.960554 0.064146 -3.372084 0
M  V30 20 C -4.096798 -0.296336 -4.105429 0
M  V30 21 C -4.671758 0.568585 -5.026749 0
M  V30 22 C -4.137090 1.819687 -5.249837 0
M  V30 23 C -3.011507 2.181446 -4.525820 0
M  V30 24 C -2.442392 1.318598 -3.610339 0
M  V30 25 N -1.228352 -1.117291 1.282593 0
M  V30 26 C -0.373065 -1.811975 2.070954 0
M  V30 27 C -0.918263 -2.978267 2.800721 0
M  V30 28 C -0.130541 -3.749894 3.627774 0
M  V30 29 C -0.720095 -4.829927 4.278191 0
M  V30 30 N -2.027473 -5.116115 4.105489 0
M  V30 31 C -2.795201 -4.351374 3.289702 0
M  V30 32 C -2.253944 -3.259845 2.616004 0
M  V30 33 N 0.931216 -1.536570 2.250954 0
M  V30 34 C 1.504294 -0.494172 1.624410 0
M  V30 35 H 4.191801 -1.445237 0.066966 0
M  V30 36 H 5.564555 -2.511197 0.382461 0
M  V30 37 H 3.947833 -3.167205 0.721247 0
M  V30 38 H 6.562633 -2.077174 4.884206 0
M  V30 39 H 5.052041 -0.276770 5.707848 0
M  V30 40 H 3.342833 0.568627 4.199404 0
M  V30 41 H 5.050107 1.592165 1.754024 0
M  V30 42 H 4.310431 2.831382 0.747471 0
M  V30 43 H 4.989298 1.338574 -0.076172 0
M  V30 44 H -0.988044 1.591325 -0.712602 0
M  V30 45 H -3.274358 1.282941 -1.114382 0
M  V30 46 H -3.358590 0.514994 0.544332 0
M  V30 47 H -2.815006 -1.640967 -0.389764 0
M  V30 48 H -4.929528 -1.071526 -0.250737 0
M  V30 49 H -4.903304 0.020297 -1.575899 0
M  V30 50 H -1.371553 -0.844045 -2.291213 0
M  V30 51 H -2.665416 -1.973961 -2.824838 0
M  V30 52 H -4.569801 -1.277569 -3.974035 0
M  V30 53 H -5.560047 0.229644 -5.570052 0
M  V30 54 H -4.578840 2.494909 -5.963311 0
M  V30 55 H -2.566106 3.165439 -4.681078 0
M  V30 56 H -1.576075 1.569845 -3.038884 0
M  V30 57 H 0.920533 -3.481697 3.737429 0
M  V30 58 H -0.059847 -5.398671 4.911661 0
M  V30 59 H -3.834775 -4.576474 3.150488 0
M  V30 60 H -2.916989 -2.681504 1.974346 0
M  V30 END ATOM
M  V30 BEGIN BOND
M  V30 1 1 1 2
M  V30 2 2 2 3
M  V30 3 1 3 4
M  V30 4 2 4 5
M  V30 5 1 5 6
M  V30 6 2 6 7
M  V30 7 1 7 8
M  V30 8 2 8 9
M  V30 9 1 9 10
M  V30 10 1 9 11
M  V30 11 1 11 12
M  V30 12 2 12 13
M  V30 13 1 13 14
M  V30 14 1 14 15
M  V30 15 1 15 16
M  V30 16 1 16 17
M  V30 17 1 16 18
M  V30 18 1 18 19
M  V30 19 2 19 20
M  V30 20 1 20 21
M  V30 21 2 21 22
M  V30 22 1 22 23
M  V30 23 2 23 24
M  V30 24 1 13 25
M  V30 25 2 25 26
M  V30 26 1 26 27
M  V30 27 2 27 28
M  V30 28 1 28 29
M  V30 29 2 29 30
M  V30 30 1 30 31
M  V30 31 2 31 32
M  V30 32 1 26 33
M  V30 33 2 33 34
M  V30 34 1 7 2
M  V30 35 1 34 8
M  V30 36 1 34 12
M  V30 37 1 24 19
M  V30 38 1 32 27
M  V30 39 1 1 35
M  V30 40 1 1 36
M  V30 41 1 1 37
M  V30 42 1 4 38
M  V30 43 1 5 39
M  V30 44 1 6 40
M  V30 45 1 10 41
M  V30 46 1 10 42
M  V30 47 1 10 43
M  V30 48 1 14 44
M  V30 49 1 15 45
M  V30 50 1 15 46
M  V30 51 1 16 47 CFG=1
M  V30 52 1 17 48
M  V30 53 1 17 49
M  V30 54 1 18 50
M  V30 55 1 18 51
M  V30 56 1 20 52
M  V30 57 1 21 53
M  V30 58 1 22 54
M  V30 59 1 23 55
M  V30 60 1 24 56
M  V30 61 1 28 57
M  V30 62 1 29 58
M  V30 63 1 31 59
M  V30 64 1 32 60
M  V30 END BOND
M  V30 END CTAB
M  END
>  <Dataset>  (868) 
ChEMBL_Kinases

>  <Ligand_Instance>  (868) 
nan

>  <PDB_ID>  (868) 
nan

>  <Standardized_SMILES>  (868) 
Cc1ncccc1-c1c(C)sc2c(NC[C@@H](N)Cc3ccccc3)nc(-c3ccncc3)nc12

>  <Name>  (868) 
nan

>  <Pocket>  (868) 
nan

>  <ATP_Site>  (868) 
nan

>  <Peripheral>  (868) 
nan

>  <Num_H_Atoms_ProtBoundConf>  (868) 
nan

>  <Num_Resolved_Atoms>  (868) 
nan

>  <Num_Not_Resolved_Atoms>  (868) 
nan

$$$$
CHEMBL3728643
     RDKit          3D

  0  0  0  0  0  0  0  0  0  0999 V3000
M  V30 BEGIN CTAB
M  V30 COUNTS 48 52 0 0 0
M  V30 BEGIN ATOM
M  V30 1 O -1.253161 -0.781058 4.720518 0
M  V30 2 S -1.584836 -2.262623 4.822876 0
M  V30 3 O -1.993418 -2.610156 6.210678 0
M  V30 4 N -0.132229 -3.098051 4.360489 0
M  V30 5 C 0.452972 -2.833062 3.114989 0
M  V30 6 C 0.062961 -1.919013 2.192474 0
M  V30 7 C 0.686496 -1.627372 1.010765 0
M  V30 8 C 0.130397 -0.542866 0.197397 0
M  V30 9 N 0.893832 0.124846 -0.703183 0
M  V30 10 C 0.310344 1.045673 -1.481373 0
M  V30 11 N 0.889991 1.931382 -2.387849 0
M  V30 12 C 2.312811 2.024316 -2.461216 0 CFG=2
M  V30 13 C 3.030998 0.798291 -2.902556 0
M  V30 14 C 4.354650 0.882719 -2.215323 0
M  V30 15 N 4.290156 1.902350 -1.185636 0
M  V30 16 C 2.921182 2.347731 -1.097866 0
M  V30 17 C -1.041306 1.228843 -1.290031 0
M  V30 18 S -2.220326 2.409091 -2.178834 0
M  V30 19 C -3.715966 1.821519 -1.155215 0
M  V30 20 C -3.214206 0.881541 -0.324331 0
M  V30 21 C -1.856773 0.571562 -0.383990 0
M  V30 22 N -1.194501 -0.329782 0.356609 0
M  V30 23 C 1.825267 -2.354297 0.754931 0
M  V30 24 C 2.237237 -3.291103 1.679516 0
M  V30 25 N 1.600935 -3.574857 2.871493 0
M  V30 26 C -2.936414 -2.595368 3.751495 0
M  V30 27 C -3.903210 -3.719686 4.055660 0
M  V30 28 C -4.319362 -2.313444 4.392431 0
M  V30 29 H 0.143895 -3.689882 5.163563 0
M  V30 30 H -0.816804 -1.379068 2.474504 0
M  V30 31 H 0.353640 2.543577 -3.036243 0
M  V30 32 H 2.580297 2.862143 -3.137574 0
M  V30 33 H 3.200554 0.783829 -4.018130 0
M  V30 34 H 2.456996 -0.133860 -2.634780 0
M  V30 35 H 4.610297 -0.104687 -1.734042 0
M  V30 36 H 5.143525 1.110426 -2.974392 0
M  V30 37 H 4.580002 1.489834 -0.253461 0
M  V30 38 H 2.933736 3.448305 -0.968176 0
M  V30 39 H 2.351424 1.921054 -0.262914 0
M  V30 40 H -4.622894 2.216634 -1.309300 0
M  V30 41 H -3.899096 0.397595 0.358921 0
M  V30 42 H 2.318313 -2.116826 -0.183991 0
M  V30 43 H 3.137159 -3.802588 1.355841 0
M  V30 44 H -2.866827 -2.349261 2.659225 0
M  V30 45 H -4.473853 -4.144854 3.191907 0
M  V30 46 H -3.662947 -4.430218 4.847679 0
M  V30 47 H -5.032103 -1.796011 3.752843 0
M  V30 48 H -4.325805 -2.110481 5.478331 0
M  V30 END ATOM
M  V30 BEGIN BOND
M  V30 1 2 1 2
M  V30 2 2 2 3
M  V30 3 1 2 4
M  V30 4 1 4 5
M  V30 5 2 5 6
M  V30 6 1 6 7
M  V30 7 1 7 8
M  V30 8 2 8 9
M  V30 9 1 9 10
M  V30 10 1 10 11
M  V30 11 1 11 12
M  V30 12 1 12 13
M  V30 13 1 13 14
M  V30 14 1 14 15
M  V30 15 1 15 16
M  V30 16 2 10 17
M  V30 17 1 17 18
M  V30 18 1 18 19
M  V30 19 2 19 20
M  V30 20 1 20 21
M  V30 21 2 21 22
M  V30 22 2 7 23
M  V30 23 1 23 24
M  V30 24 2 24 25
M  V30 25 1 2 26
M  V30 26 1 26 27
M  V30 27 1 27 28
M  V30 28 1 25 5
M  V30 29 1 28 26
M  V30 30 1 22 8
M  V30 31 1 16 12
M  V30 32 1 21 17
M  V30 33 1 4 29
M  V30 34 1 6 30
M  V30 35 1 11 31
M  V30 36 1 12 32 CFG=3
M  V30 37 1 13 33
M  V30 38 1 13 34
M  V30 39 1 14 35
M  V30 40 1 14 36
M  V30 41 1 15 37
M  V30 42 1 16 38
M  V30 43 1 16 39
M  V30 44 1 19 40
M  V30 45 1 20 41
M  V30 46 1 23 42
M  V30 47 1 24 43
M  V30 48 1 26 44
M  V30 49 1 27 45
M  V30 50 1 27 46
M  V30 51 1 28 47
M  V30 52 1 28 48
M  V30 END BOND
M  V30 END CTAB
M  END
>  <Dataset>  (869) 
ChEMBL_Kinases

>  <Ligand_Instance>  (869) 
nan

>  <PDB_ID>  (869) 
nan

>  <Standardized_SMILES>  (869) 
O=S(=O)(Nc1cc(-c2nc(N[C@@H]3CCNC3)c3sccc3n2)ccn1)C1CC1

>  <Name>  (869) 
nan

>  <Pocket>  (869) 
nan

>  <ATP_Site>  (869) 
nan

>  <Peripheral>  (869) 
nan

>  <Num_H_Atoms_ProtBoundConf>  (869) 
nan

>  <Num_Resolved_Atoms>  (869) 
nan

>  <Num_Not_Resolved_Atoms>  (869) 
nan

$$$$
CHEMBL538361
     RDKit          3D

  0  0  0  0  0  0  0  0  0  0999 V3000
M  V30 BEGIN CTAB
M  V30 COUNTS 42 46 0 0 0
M  V30 BEGIN ATOM
M  V30 1 C 1.343696 -4.947015 -0.571156 0
M  V30 2 C 0.615945 -4.469483 -1.750090 0
M  V30 3 C 0.270654 -5.340864 -2.760962 0
M  V30 4 C -0.413591 -4.843658 -3.849435 0
M  V30 5 O -0.735456 -5.783080 -4.844013 0
M  V30 6 C -0.762043 -3.505695 -3.957584 0
M  V30 7 C -0.399892 -2.643855 -2.918780 0
M  V30 8 C 0.293215 -3.132177 -1.809905 0
M  V30 9 C 0.613828 -2.137283 -0.794997 0
M  V30 10 C -0.361346 -1.242308 -0.409793 0
M  V30 11 C -0.098523 -0.286747 0.546119 0
M  V30 12 C 1.111368 -0.156575 1.166706 0
M  V30 13 C 1.568394 0.712573 2.127225 0
M  V30 14 C 0.924563 1.806197 2.826757 0
M  V30 15 N 1.610168 2.527429 3.751824 0
M  V30 16 C 0.858255 3.492314 4.292227 0
M  V30 17 C 1.113942 4.455784 5.252244 0
M  V30 18 C 0.075183 5.316632 5.580711 0
M  V30 19 C -1.174102 5.250066 4.999954 0
M  V30 20 C -1.393277 4.264922 4.035995 0
M  V30 21 C -0.373653 3.400661 3.696513 0
M  V30 22 N -0.258276 2.385347 2.845576 0
M  V30 23 N 2.855791 0.294746 2.294934 0
M  V30 24 N 3.140123 -0.719393 1.515665 0
M  V30 25 C 2.074761 -1.059686 0.769374 0
M  V30 26 C 1.844558 -2.029282 -0.185343 0
M  V30 27 H 2.435912 -5.067275 -0.800105 0
M  V30 28 H 1.146487 -4.405550 0.365280 0
M  V30 29 H 1.015636 -6.005276 -0.349740 0
M  V30 30 H 0.550961 -6.392310 -2.663749 0
M  V30 31 H -1.060717 -6.724821 -4.581262 0
M  V30 32 H -1.298543 -3.194710 -4.843473 0
M  V30 33 H -0.690111 -1.599134 -3.037474 0
M  V30 34 H -1.353417 -1.304120 -0.878879 0
M  V30 35 H -0.905078 0.371311 0.791964 0
M  V30 36 H 2.094936 4.503334 5.704104 0
M  V30 37 H 0.245218 6.093473 6.339691 0
M  V30 38 H -1.975168 5.937348 5.274002 0
M  V30 39 H -2.344536 4.149257 3.536233 0
M  V30 40 H -1.048608 2.096501 2.259682 0
M  V30 41 H 4.085441 -1.160401 1.519984 0
M  V30 42 H 2.622193 -2.699746 -0.454309 0
M  V30 END ATOM
M  V30 BEGIN BOND
M  V30 1 1 1 2
M  V30 2 2 2 3
M  V30 3 1 3 4
M  V30 4 1 4 5
M  V30 5 2 4 6
M  V30 6 1 6 7
M  V30 7 2 7 8
M  V30 8 1 8 9
M  V30 9 2 9 10
M  V30 10 1 10 11
M  V30 11 2 11 12
M  V30 12 1 12 13
M  V30 13 1 13 14
M  V30 14 2 14 15
M  V30 15 1 15 16
M  V30 16 2 16 17
M  V30 17 1 17 18
M  V30 18 2 18 19
M  V30 19 1 19 20
M  V30 20 2 20 21
M  V30 21 1 21 22
M  V30 22 2 13 23
M  V30 23 1 23 24
M  V30 24 1 24 25
M  V30 25 2 25 26
M  V30 26 1 8 2
M  V30 27 1 26 9
M  V30 28 1 25 12
M  V30 29 1 22 14
M  V30 30 1 21 16
M  V30 31 1 1 27
M  V30 32 1 1 28
M  V30 33 1 1 29
M  V30 34 1 3 30
M  V30 35 1 5 31
M  V30 36 1 6 32
M  V30 37 1 7 33
M  V30 38 1 10 34
M  V30 39 1 11 35
M  V30 40 1 17 36
M  V30 41 1 18 37
M  V30 42 1 19 38
M  V30 43 1 20 39
M  V30 44 1 22 40
M  V30 45 1 24 41
M  V30 46 1 26 42
M  V30 END BOND
M  V30 END CTAB
M  END
>  <Dataset>  (870) 
ChEMBL_Kinases

>  <Ligand_Instance>  (870) 
nan

>  <PDB_ID>  (870) 
nan

>  <Standardized_SMILES>  (870) 
Cc1cc(O)ccc1-c1ccc2c(-c3nc4ccccc4[nH]3)n[nH]c2c1

>  <Name>  (870) 
nan

>  <Pocket>  (870) 
nan

>  <ATP_Site>  (870) 
nan

>  <Peripheral>  (870) 
nan

>  <Num_H_Atoms_ProtBoundConf>  (870) 
nan

>  <Num_Resolved_Atoms>  (870) 
nan

>  <Num_Not_Resolved_Atoms>  (870) 
nan

$$$$
CHEMBL550052
     RDKit          3D

  0  0  0  0  0  0  0  0  0  0999 V3000
M  V30 BEGIN CTAB
M  V30 COUNTS 55 60 0 0 0
M  V30 BEGIN ATOM
M  V30 1 C -0.300786 -0.340399 5.267334 0
M  V30 2 N -0.507904 -1.093271 4.039567 0
M  V30 3 C 0.042467 -2.275858 3.727043 0
M  V30 4 C -0.360650 -2.714304 2.474020 0
M  V30 5 C -0.107037 -3.913860 1.681816 0
M  V30 6 C 0.334643 -3.905076 0.436636 0
M  V30 7 C 0.686293 -2.810921 -0.459835 0
M  V30 8 N 1.525116 -1.866867 0.025334 0
M  V30 9 N 1.757549 -0.924344 -0.871840 0
M  V30 10 C 2.593803 0.239310 -0.765182 0
M  V30 11 C 1.966042 1.460734 -0.207784 0
M  V30 12 C 0.771401 1.984618 -0.943686 0
M  V30 13 N 0.302140 3.208209 -0.297611 0
M  V30 14 C -0.556549 3.546299 0.676203 0
M  V30 15 C -0.620461 4.900011 0.899541 0
M  V30 16 N 0.245873 5.408340 0.012943 0
M  V30 17 C 0.802000 4.418431 -0.705408 0
M  V30 18 C 1.044096 -1.260787 -1.986415 0
M  V30 19 N 0.865810 -0.714829 -3.212746 0
M  V30 20 C 0.066144 -1.329315 -4.106314 0
M  V30 21 C -0.606258 -2.510733 -3.858706 0
M  V30 22 C -0.463954 -3.117234 -2.621015 0
M  V30 23 C 0.363036 -2.447219 -1.746653 0
M  V30 24 C 0.468161 -5.279176 -0.045986 0
M  V30 25 O 0.841784 -5.801424 -1.142776 0
M  V30 26 N 0.064897 -6.119151 1.025629 0
M  V30 27 C -0.306567 -5.278355 2.138847 0
M  V30 28 O -0.716691 -5.590880 3.272428 0
M  V30 29 C -1.208277 -1.705585 2.035012 0
M  V30 30 C -1.953697 -1.502867 0.910619 0
M  V30 31 C -2.760410 -0.410208 0.679330 0
M  V30 32 C -2.837564 0.583135 1.662767 0
M  V30 33 C -2.086367 0.385230 2.802093 0
M  V30 34 C -1.285376 -0.720525 3.009193 0
M  V30 35 H 0.791856 -0.093517 5.409773 0
M  V30 36 H -0.806505 0.669616 5.176888 0
M  V30 37 H -0.641137 -0.861346 6.170608 0
M  V30 38 H 0.728186 -2.883129 4.322633 0
M  V30 39 H 3.540888 0.008377 -0.196416 0
M  V30 40 H 2.997231 0.530386 -1.786457 0
M  V30 41 H 1.691759 1.363690 0.874531 0
M  V30 42 H 2.729155 2.295724 -0.234151 0
M  V30 43 H -0.062095 1.231180 -0.868159 0
M  V30 44 H 0.957332 2.220694 -2.005510 0
M  V30 45 H -1.089000 2.751908 1.171414 0
M  V30 46 H -1.219366 5.429992 1.615500 0
M  V30 47 H 1.520386 4.729190 -1.450535 0
M  V30 48 H -0.078350 -0.896518 -5.084094 0
M  V30 49 H -1.251081 -3.002132 -4.590585 0
M  V30 50 H -0.945444 -4.047446 -2.321624 0
M  V30 51 H 0.001660 -7.139768 1.129946 0
M  V30 52 H -2.004782 -2.183709 0.081970 0
M  V30 53 H -3.356914 -0.220251 -0.201044 0
M  V30 54 H -3.453110 1.466070 1.534733 0
M  V30 55 H -2.168294 1.188927 3.553429 0
M  V30 END ATOM
M  V30 BEGIN BOND
M  V30 1 1 1 2
M  V30 2 1 2 3
M  V30 3 2 3 4
M  V30 4 1 4 5
M  V30 5 2 5 6
M  V30 6 1 6 7
M  V30 7 2 7 8
M  V30 8 1 8 9
M  V30 9 1 9 10
M  V30 10 1 10 11
M  V30 11 1 11 12
M  V30 12 1 12 13
M  V30 13 1 13 14
M  V30 14 2 14 15
M  V30 15 1 15 16
M  V30 16 2 16 17
M  V30 17 1 9 18
M  V30 18 2 18 19
M  V30 19 1 19 20
M  V30 20 2 20 21
M  V30 21 1 21 22
M  V30 22 2 22 23
M  V30 23 1 6 24
M  V30 24 2 24 25
M  V30 25 1 24 26
M  V30 26 1 26 27
M  V30 27 2 27 28
M  V30 28 1 4 29
M  V30 29 2 29 30
M  V30 30 1 30 31
M  V30 31 2 31 32
M  V30 32 1 32 33
M  V30 33 2 33 34
M  V30 34 1 34 2
M  V30 35 1 27 5
M  V30 36 1 34 29
M  V30 37 1 23 7
M  V30 38 1 17 13
M  V30 39 1 23 18
M  V30 40 1 1 35
M  V30 41 1 1 36
M  V30 42 1 1 37
M  V30 43 1 3 38
M  V30 44 1 10 39
M  V30 45 1 10 40
M  V30 46 1 11 41
M  V30 47 1 11 42
M  V30 48 1 12 43
M  V30 49 1 12 44
M  V30 50 1 14 45
M  V30 51 1 15 46
M  V30 52 1 17 47
M  V30 53 1 20 48
M  V30 54 1 21 49
M  V30 55 1 22 50
M  V30 56 1 26 51
M  V30 57 1 30 52
M  V30 58 1 31 53
M  V30 59 1 32 54
M  V30 60 1 33 55
M  V30 END BOND
M  V30 END CTAB
M  END
>  <Dataset>  (871) 
ChEMBL_Kinases

>  <Ligand_Instance>  (871) 
nan

>  <PDB_ID>  (871) 
nan

>  <Standardized_SMILES>  (871) 
Cn1cc(C2=C(c3nn(CCCn4ccnc4)c4ncccc34)C(=O)NC2=O)c2ccccc21

>  <Name>  (871) 
nan

>  <Pocket>  (871) 
nan

>  <ATP_Site>  (871) 
nan

>  <Peripheral>  (871) 
nan

>  <Num_H_Atoms_ProtBoundConf>  (871) 
nan

>  <Num_Resolved_Atoms>  (871) 
nan

>  <Num_Not_Resolved_Atoms>  (871) 
nan

$$$$
CHEMBL550060
     RDKit          3D

  0  0  0  0  0  0  0  0  0  0999 V3000
M  V30 BEGIN CTAB
M  V30 COUNTS 40 42 0 0 0
M  V30 BEGIN ATOM
M  V30 1 C 0.133646 -3.635907 4.730639 0
M  V30 2 C -0.880855 -2.509626 4.865219 0
M  V30 3 N -0.900926 -1.731198 3.620297 0
M  V30 4 C -1.530341 -2.486478 2.542045 0
M  V30 5 C -1.275220 -1.875921 1.216559 0 CFG=2
M  V30 6 C -1.720950 -0.451301 1.021963 0
M  V30 7 N -0.675342 0.308684 0.303119 0
M  V30 8 C -0.014052 -0.149981 -0.902675 0
M  V30 9 C -0.371942 -1.292027 -1.631267 0
M  V30 10 S 0.664791 -1.394808 -3.016604 0
M  V30 11 C 1.608159 0.149711 -2.584029 0
M  V30 12 C 2.677577 0.705824 -3.277146 0
M  V30 13 C 3.237067 1.843480 -2.732829 0
M  V30 14 C 2.690032 2.333425 -1.548892 0
M  V30 15 O 3.331506 3.456628 -1.110255 0
M  V30 16 C 3.024873 4.200813 0.061315 0
M  V30 17 C 1.632757 1.722400 -0.934220 0
M  V30 18 C 1.010828 0.587496 -1.400176 0
M  V30 19 C -1.427574 -2.256424 -1.213372 0
M  V30 20 O -1.955124 -2.825929 -2.213358 0
M  V30 21 N -1.915560 -2.616583 0.112923 0
M  V30 22 H -0.260237 -4.610069 5.067023 0
M  V30 23 H 0.473334 -3.661411 3.670555 0
M  V30 24 H 1.021878 -3.357031 5.343539 0
M  V30 25 H -0.609605 -1.854241 5.699777 0
M  V30 26 H -1.895432 -2.931482 5.046181 0
M  V30 27 H -1.444412 -0.857316 3.773102 0
M  V30 28 H -2.634490 -2.495722 2.742932 0
M  V30 29 H -1.200846 -3.530678 2.514280 0
M  V30 30 H -0.150752 -1.888974 1.059037 0
M  V30 31 H -1.830915 0.027273 2.013344 0
M  V30 32 H -2.705337 -0.376709 0.526181 0
M  V30 33 H -0.405547 1.242021 0.692642 0
M  V30 34 H 3.015928 0.238159 -4.175359 0
M  V30 35 H 4.058386 2.233456 -3.304858 0
M  V30 36 H 3.350415 3.588355 0.936959 0
M  V30 37 H 1.920767 4.262083 0.129695 0
M  V30 38 H 3.492797 5.180486 0.045485 0
M  V30 39 H 1.307780 2.210895 -0.015424 0
M  V30 40 H -2.643585 -3.349818 0.031482 0
M  V30 END ATOM
M  V30 BEGIN BOND
M  V30 1 1 1 2
M  V30 2 1 2 3
M  V30 3 1 3 4
M  V30 4 1 4 5
M  V30 5 1 5 6
M  V30 6 1 6 7
M  V30 7 1 7 8
M  V30 8 2 8 9
M  V30 9 1 9 10
M  V30 10 1 10 11
M  V30 11 2 11 12
M  V30 12 1 12 13
M  V30 13 2 13 14
M  V30 14 1 14 15
M  V30 15 1 15 16
M  V30 16 1 14 17
M  V30 17 2 17 18
M  V30 18 1 9 19
M  V30 19 2 19 20
M  V30 20 1 19 21
M  V30 21 1 21 5
M  V30 22 1 18 8
M  V30 23 1 18 11
M  V30 24 1 1 22
M  V30 25 1 1 23
M  V30 26 1 1 24
M  V30 27 1 2 25
M  V30 28 1 2 26
M  V30 29 1 3 27
M  V30 30 1 4 28
M  V30 31 1 4 29
M  V30 32 1 5 30 CFG=3
M  V30 33 1 6 31
M  V30 34 1 6 32
M  V30 35 1 7 33
M  V30 36 1 12 34
M  V30 37 1 13 35
M  V30 38 1 16 36
M  V30 39 1 16 37
M  V30 40 1 16 38
M  V30 41 1 17 39
M  V30 42 1 21 40
M  V30 END BOND
M  V30 END CTAB
M  END
>  <Dataset>  (872) 
ChEMBL_Kinases

>  <Ligand_Instance>  (872) 
nan

>  <PDB_ID>  (872) 
nan

>  <Standardized_SMILES>  (872) 
CCNC[C@@H]1CNc2c(sc3ccc(OC)cc23)C(=O)N1

>  <Name>  (872) 
nan

>  <Pocket>  (872) 
nan

>  <ATP_Site>  (872) 
nan

>  <Peripheral>  (872) 
nan

>  <Num_H_Atoms_ProtBoundConf>  (872) 
nan

>  <Num_Resolved_Atoms>  (872) 
nan

>  <Num_Not_Resolved_Atoms>  (872) 
nan

$$$$
CHEMBL550482
     RDKit          3D

  0  0  0  0  0  0  0  0  0  0999 V3000
M  V30 BEGIN CTAB
M  V30 COUNTS 46 50 0 0 0
M  V30 BEGIN ATOM
M  V30 1 C 5.459405 -2.807919 -1.710953 0
M  V30 2 C 4.384112 -2.792058 -2.736933 0
M  V30 3 C 4.608761 -3.320264 -3.991732 0
M  V30 4 C 3.660545 -3.345296 -5.006432 0
M  V30 5 C 2.420555 -2.792552 -4.694441 0
M  V30 6 C 2.194986 -2.267935 -3.450578 0
M  V30 7 C 0.890479 -1.693199 -3.141307 0
M  V30 8 N 0.707220 -1.189678 -1.912888 0
M  V30 9 C -0.485734 -0.633294 -1.544372 0
M  V30 10 N -0.597399 -0.132118 -0.250338 0
M  V30 11 C -1.418165 0.492339 0.669298 0
M  V30 12 C -1.471444 1.890100 0.752821 0
M  V30 13 C -2.285482 2.581163 1.657897 0
M  V30 14 C -3.044942 1.775030 2.476358 0
M  V30 15 C -3.074201 0.396150 2.483885 0
M  V30 16 C -3.952705 -0.070842 3.438935 0
M  V30 17 N -4.452851 1.041739 4.007155 0
M  V30 18 N -3.918676 2.118540 3.440560 0
M  V30 19 C -4.244309 3.501804 3.822131 0
M  V30 20 C -2.223702 -0.196768 1.540549 0
M  V30 21 C -1.461699 -0.631302 -2.513064 0
M  V30 22 C -2.686659 -0.083825 -2.199976 0
M  V30 23 C -3.709565 -0.049514 -3.124059 0
M  V30 24 C -3.568945 -0.555801 -4.403162 0
M  V30 25 C -2.340657 -1.101589 -4.707969 0
M  V30 26 C -1.307986 -1.139842 -3.785154 0
M  V30 27 N -0.099867 -1.663448 -4.046718 0
M  V30 28 N 3.151432 -2.273039 -2.512003 0
M  V30 29 H 5.505332 -3.816191 -1.212893 0
M  V30 30 H 5.315357 -2.042149 -0.931068 0
M  V30 31 H 6.430689 -2.682867 -2.226456 0
M  V30 32 H 5.573233 -3.747356 -4.226549 0
M  V30 33 H 3.858314 -3.764503 -5.982854 0
M  V30 34 H 1.645657 -2.781020 -5.434247 0
M  V30 35 H 0.206989 -0.186790 0.412772 0
M  V30 36 H -0.862421 2.499547 0.095913 0
M  V30 37 H -2.302259 3.651144 1.695421 0
M  V30 38 H -4.098405 -1.131073 3.579924 0
M  V30 39 H -4.498432 4.018958 2.876199 0
M  V30 40 H -5.032878 3.537401 4.572124 0
M  V30 41 H -3.326948 3.946338 4.259199 0
M  V30 42 H -2.178840 -1.262992 1.472164 0
M  V30 43 H -2.894702 0.336000 -1.228588 0
M  V30 44 H -4.692193 0.378148 -2.905047 0
M  V30 45 H -4.349115 -0.543452 -5.146762 0
M  V30 46 H -2.140261 -1.523682 -5.691318 0
M  V30 END ATOM
M  V30 BEGIN BOND
M  V30 1 1 1 2
M  V30 2 2 2 3
M  V30 3 1 3 4
M  V30 4 2 4 5
M  V30 5 1 5 6
M  V30 6 1 6 7
M  V30 7 2 7 8
M  V30 8 1 8 9
M  V30 9 1 9 10
M  V30 10 1 10 11
M  V30 11 2 11 12
M  V30 12 1 12 13
M  V30 13 2 13 14
M  V30 14 1 14 15
M  V30 15 1 15 16
M  V30 16 2 16 17
M  V30 17 1 17 18
M  V30 18 1 18 19
M  V30 19 2 15 20
M  V30 20 2 9 21
M  V30 21 1 21 22
M  V30 22 2 22 23
M  V30 23 1 23 24
M  V30 24 2 24 25
M  V30 25 1 25 26
M  V30 26 2 26 27
M  V30 27 2 6 28
M  V30 28 1 28 2
M  V30 29 1 27 7
M  V30 30 1 20 11
M  V30 31 1 26 21
M  V30 32 1 18 14
M  V30 33 1 1 29
M  V30 34 1 1 30
M  V30 35 1 1 31
M  V30 36 1 3 32
M  V30 37 1 4 33
M  V30 38 1 5 34
M  V30 39 1 10 35
M  V30 40 1 12 36
M  V30 41 1 13 37
M  V30 42 1 16 38
M  V30 43 1 19 39
M  V30 44 1 19 40
M  V30 45 1 19 41
M  V30 46 1 20 42
M  V30 47 1 22 43
M  V30 48 1 23 44
M  V30 49 1 24 45
M  V30 50 1 25 46
M  V30 END BOND
M  V30 END CTAB
M  END
>  <Dataset>  (873) 
ChEMBL_Kinases

>  <Ligand_Instance>  (873) 
nan

>  <PDB_ID>  (873) 
nan

>  <Standardized_SMILES>  (873) 
Cc1cccc(-c2nc(Nc3ccc4c(cnn4C)c3)c3ccccc3n2)n1

>  <Name>  (873) 
nan

>  <Pocket>  (873) 
nan

>  <ATP_Site>  (873) 
nan

>  <Peripheral>  (873) 
nan

>  <Num_H_Atoms_ProtBoundConf>  (873) 
nan

>  <Num_Resolved_Atoms>  (873) 
nan

>  <Num_Not_Resolved_Atoms>  (873) 
nan

$$$$
CHEMBL3728625
     RDKit          3D

  0  0  0  0  0  0  0  0  0  0999 V3000
M  V30 BEGIN CTAB
M  V30 COUNTS 57 60 0 0 0
M  V30 BEGIN ATOM
M  V30 1 C 2.512465 -0.586907 5.670309 0
M  V30 2 C 3.444243 -0.475074 4.477167 0
M  V30 3 C 4.658422 -1.350441 4.739673 0
M  V30 4 C 3.884726 0.981682 4.315580 0
M  V30 5 C 2.699004 -0.891257 3.288972 0
M  V30 6 S 2.403520 0.217793 1.822849 0
M  V30 7 C 1.498955 -0.966088 0.910684 0
M  V30 8 C 0.873848 -0.901508 -0.408825 0
M  V30 9 N 1.024399 0.308512 -1.087629 0
M  V30 10 C 0.493839 0.587889 -2.362785 0
M  V30 11 C -0.978435 0.703678 -2.508742 0 CFG=1
M  V30 12 N -1.780277 -0.398762 -2.177135 0
M  V30 13 C -1.527696 1.940960 -1.787004 0
M  V30 14 C -2.999928 2.062547 -1.931319 0
M  V30 15 C -3.963194 1.558978 -1.100216 0
M  V30 16 C -5.303200 1.722848 -1.322452 0
M  V30 17 C -5.762187 2.424334 -2.427479 0
M  V30 18 C -4.812424 2.943273 -3.282497 0
M  V30 19 C -3.465406 2.767633 -3.041793 0
M  V30 20 N 0.233375 -1.987513 -0.861300 0
M  V30 21 C 0.211152 -3.068527 -0.062792 0
M  V30 22 C -0.462603 -4.324938 -0.469318 0
M  V30 23 C -1.045577 -4.333106 -1.715156 0
M  V30 24 C -1.673480 -5.496967 -2.108938 0
M  V30 25 N -1.741224 -6.601375 -1.348169 0
M  V30 26 C -1.168951 -6.594246 -0.124675 0
M  V30 27 C -0.528144 -5.455245 0.317321 0
M  V30 28 N 0.785305 -3.112054 1.137239 0
M  V30 29 C 1.444480 -2.113683 1.696313 0
M  V30 30 C 2.055292 -2.074148 2.905709 0
M  V30 31 Br 2.136582 -3.495112 4.180546 0
M  V30 32 H 3.060476 -1.005829 6.523460 0
M  V30 33 H 1.605908 -1.192098 5.411790 0
M  V30 34 H 2.155578 0.439371 5.919251 0
M  V30 35 H 4.409746 -2.241311 5.353943 0
M  V30 36 H 5.161652 -1.660709 3.821973 0
M  V30 37 H 5.378055 -0.767308 5.350027 0
M  V30 38 H 3.128301 1.610799 4.829266 0
M  V30 39 H 4.847996 1.126199 4.836797 0
M  V30 40 H 3.997537 1.257151 3.255491 0
M  V30 41 H 1.575519 1.098175 -0.631553 0
M  V30 42 H 0.924893 1.553767 -2.747891 0
M  V30 43 H 0.905419 -0.178127 -3.091814 0
M  V30 44 H -1.159465 0.924913 -3.609532 0
M  V30 45 H -2.080752 -0.516789 -1.219381 0
M  V30 46 H -1.705097 -1.244306 -2.723286 0
M  V30 47 H -1.308553 1.765144 -0.712357 0
M  V30 48 H -1.077610 2.874219 -2.164661 0
M  V30 49 H -3.623615 1.020029 -0.246459 0
M  V30 50 H -6.002182 1.280704 -0.597173 0
M  V30 51 H -6.817463 2.556191 -2.606965 0
M  V30 52 H -5.200211 3.488678 -4.140693 0
M  V30 53 H -2.817280 3.227431 -3.793736 0
M  V30 54 H -1.058314 -3.514765 -2.418705 0
M  V30 55 H -2.145543 -5.549059 -3.080264 0
M  V30 56 H -1.175665 -7.445823 0.559652 0
M  V30 57 H -0.064194 -5.413576 1.279773 0
M  V30 END ATOM
M  V30 BEGIN BOND
M  V30 1 1 1 2
M  V30 2 1 2 3
M  V30 3 1 2 4
M  V30 4 1 2 5
M  V30 5 1 5 6
M  V30 6 1 6 7
M  V30 7 2 7 8
M  V30 8 1 8 9
M  V30 9 1 9 10
M  V30 10 1 10 11
M  V30 11 1 11 12
M  V30 12 1 11 13
M  V30 13 1 13 14
M  V30 14 2 14 15
M  V30 15 1 15 16
M  V30 16 2 16 17
M  V30 17 1 17 18
M  V30 18 2 18 19
M  V30 19 1 8 20
M  V30 20 2 20 21
M  V30 21 1 21 22
M  V30 22 2 22 23
M  V30 23 1 23 24
M  V30 24 2 24 25
M  V30 25 1 25 26
M  V30 26 2 26 27
M  V30 27 1 21 28
M  V30 28 2 28 29
M  V30 29 1 29 30
M  V30 30 1 30 31
M  V30 31 2 30 5
M  V30 32 1 29 7
M  V30 33 1 19 14
M  V30 34 1 27 22
M  V30 35 1 1 32
M  V30 36 1 1 33
M  V30 37 1 1 34
M  V30 38 1 3 35
M  V30 39 1 3 36
M  V30 40 1 3 37
M  V30 41 1 4 38
M  V30 42 1 4 39
M  V30 43 1 4 40
M  V30 44 1 9 41
M  V30 45 1 10 42
M  V30 46 1 10 43
M  V30 47 1 11 44 CFG=3
M  V30 48 1 12 45
M  V30 49 1 12 46
M  V30 50 1 13 47
M  V30 51 1 13 48
M  V30 52 1 15 49
M  V30 53 1 16 50
M  V30 54 1 17 51
M  V30 55 1 18 52
M  V30 56 1 19 53
M  V30 57 1 23 54
M  V30 58 1 24 55
M  V30 59 1 26 56
M  V30 60 1 27 57
M  V30 END BOND
M  V30 END CTAB
M  END
>  <Dataset>  (874) 
ChEMBL_Kinases

>  <Ligand_Instance>  (874) 
nan

>  <PDB_ID>  (874) 
nan

>  <Standardized_SMILES>  (874) 
CC(C)(C)c1sc2c(NC[C@@H](N)Cc3ccccc3)nc(-c3ccncc3)nc2c1Br

>  <Name>  (874) 
nan

>  <Pocket>  (874) 
nan

>  <ATP_Site>  (874) 
nan

>  <Peripheral>  (874) 
nan

>  <Num_H_Atoms_ProtBoundConf>  (874) 
nan

>  <Num_Resolved_Atoms>  (874) 
nan

>  <Num_Not_Resolved_Atoms>  (874) 
nan

$$$$
CHEMBL550483
     RDKit          3D

  0  0  0  0  0  0  0  0  0  0999 V3000
M  V30 BEGIN CTAB
M  V30 COUNTS 42 46 0 0 0
M  V30 BEGIN ATOM
M  V30 1 C -1.719705 -6.485894 1.529146 0
M  V30 2 C -2.032676 -5.069570 1.182310 0
M  V30 3 C -3.325483 -4.587482 1.207343 0
M  V30 4 C -3.559709 -3.257745 0.873862 0
M  V30 5 C -2.547145 -2.391484 0.515779 0
M  V30 6 C -1.278059 -2.931558 0.509346 0
M  V30 7 C -0.141305 -2.092819 0.145458 0
M  V30 8 N -0.271364 -0.803104 -0.193956 0
M  V30 9 C 0.773463 -0.024664 -0.528187 0
M  V30 10 N 0.705050 1.337019 -0.896264 0
M  V30 11 C 0.718523 2.366600 0.063929 0
M  V30 12 C 0.720213 3.730498 -0.134533 0
M  V30 13 C 0.725427 4.666918 0.865267 0
M  V30 14 C 0.729691 4.270881 2.209584 0
M  V30 15 N 0.732750 5.221337 3.128282 0
M  V30 16 C 0.734387 4.657692 4.417056 0
M  V30 17 S 0.731777 2.771696 4.177043 0
M  V30 18 C 0.728510 2.914442 2.426148 0
M  V30 19 C 0.723386 2.001692 1.417438 0
M  V30 20 C 2.069983 -0.551652 -0.532992 0
M  V30 21 C 3.201448 0.185220 -0.866879 0
M  V30 22 C 4.441772 -0.417773 -0.845061 0
M  V30 23 C 4.552277 -1.746078 -0.492824 0
M  V30 24 C 3.440882 -2.490275 -0.159396 0
M  V30 25 C 2.209825 -1.887743 -0.181976 0
M  V30 26 N 1.109107 -2.584900 0.136277 0
M  V30 27 N -1.050491 -4.219752 0.832418 0
M  V30 28 H -1.427236 -7.026750 0.605215 0
M  V30 29 H -2.584610 -6.952948 2.041076 0
M  V30 30 H -0.830768 -6.530010 2.202735 0
M  V30 31 H -4.088558 -5.297665 1.492645 0
M  V30 32 H -4.596925 -2.922611 0.908496 0
M  V30 33 H -2.734835 -1.363096 0.258869 0
M  V30 34 H 0.641125 1.715216 -1.868253 0
M  V30 35 H 0.717659 3.965838 -1.212213 0
M  V30 36 H 0.726087 5.678578 0.441304 0
M  V30 37 H 0.737857 5.604727 5.229230 0
M  V30 38 H 0.722771 0.999610 1.766320 0
M  V30 39 H 3.051335 1.201927 -1.128766 0
M  V30 40 H 5.295785 0.214980 -1.118463 0
M  V30 41 H 5.557769 -2.130926 -0.503928 0
M  V30 42 H 3.554906 -3.530917 0.112824 0
M  V30 END ATOM
M  V30 BEGIN BOND
M  V30 1 1 1 2
M  V30 2 2 2 3
M  V30 3 1 3 4
M  V30 4 2 4 5
M  V30 5 1 5 6
M  V30 6 1 6 7
M  V30 7 2 7 8
M  V30 8 1 8 9
M  V30 9 1 9 10
M  V30 10 1 10 11
M  V30 11 2 11 12
M  V30 12 1 12 13
M  V30 13 2 13 14
M  V30 14 1 14 15
M  V30 15 2 15 16
M  V30 16 1 16 17
M  V30 17 1 17 18
M  V30 18 2 18 19
M  V30 19 2 9 20
M  V30 20 1 20 21
M  V30 21 2 21 22
M  V30 22 1 22 23
M  V30 23 2 23 24
M  V30 24 1 24 25
M  V30 25 2 25 26
M  V30 26 2 6 27
M  V30 27 1 27 2
M  V30 28 1 26 7
M  V30 29 1 19 11
M  V30 30 1 25 20
M  V30 31 1 18 14
M  V30 32 1 1 28
M  V30 33 1 1 29
M  V30 34 1 1 30
M  V30 35 1 3 31
M  V30 36 1 4 32
M  V30 37 1 5 33
M  V30 38 1 10 34
M  V30 39 1 12 35
M  V30 40 1 13 36
M  V30 41 1 16 37
M  V30 42 1 19 38
M  V30 43 1 21 39
M  V30 44 1 22 40
M  V30 45 1 23 41
M  V30 46 1 24 42
M  V30 END BOND
M  V30 END CTAB
M  END
>  <Dataset>  (875) 
ChEMBL_Kinases

>  <Ligand_Instance>  (875) 
nan

>  <PDB_ID>  (875) 
nan

>  <Standardized_SMILES>  (875) 
Cc1cccc(-c2nc(Nc3ccc4ncsc4c3)c3ccccc3n2)n1

>  <Name>  (875) 
nan

>  <Pocket>  (875) 
nan

>  <ATP_Site>  (875) 
nan

>  <Peripheral>  (875) 
nan

>  <Num_H_Atoms_ProtBoundConf>  (875) 
nan

>  <Num_Resolved_Atoms>  (875) 
nan

>  <Num_Not_Resolved_Atoms>  (875) 
nan

$$$$
CHEMBL550495
     RDKit          3D

  0  0  0  0  0  0  0  0  0  0999 V3000
M  V30 BEGIN CTAB
M  V30 COUNTS 38 40 0 0 0
M  V30 BEGIN ATOM
M  V30 1 C -0.413900 -3.697397 5.251989 0
M  V30 2 N -0.457067 -4.344268 3.937671 0
M  V30 3 C -0.655002 -5.774907 3.880797 0
M  V30 4 C -0.308893 -3.588133 2.757115 0
M  V30 5 C -0.343360 -4.155758 1.506354 0
M  V30 6 C -0.199240 -3.420536 0.358327 0
M  V30 7 C -0.006753 -2.034031 0.399978 0
M  V30 8 N 0.122756 -1.407091 -0.762796 0
M  V30 9 C 0.311191 -0.116532 -0.981415 0
M  V30 10 C 0.429259 0.393912 -2.279288 0
M  V30 11 C 0.625566 1.742540 -2.490639 0
M  V30 12 C 0.720189 2.677904 -1.481749 0
M  V30 13 N 0.904527 3.931334 -1.731401 0 CHG=1 VAL=4
M  V30 14 C 1.009164 4.320594 -3.127809 0
M  V30 15 C 0.993201 4.851809 -0.613864 0
M  V30 16 C 0.607927 2.208164 -0.187042 0
M  V30 17 C 0.412464 0.879840 0.079998 0
M  V30 18 S 0.264929 0.233523 1.668714 0
M  V30 19 C 0.026059 -1.474906 1.663753 0
M  V30 20 C -0.120281 -2.225615 2.813195 0
M  V30 21 H 0.633402 -3.498486 5.530409 0
M  V30 22 H -0.893267 -4.340751 6.017110 0
M  V30 23 H -1.017945 -2.777731 5.193991 0
M  V30 24 H 0.302621 -6.317320 3.652945 0
M  V30 25 H -1.015589 -6.151191 4.864308 0
M  V30 26 H -1.364678 -6.092740 3.107920 0
M  V30 27 H -0.491888 -5.239334 1.420763 0
M  V30 28 H -0.238969 -3.949631 -0.596046 0
M  V30 29 H 0.358459 -0.323154 -3.101277 0
M  V30 30 H 0.702005 2.021826 -3.530652 0
M  V30 31 H 1.931237 3.896140 -3.548805 0
M  V30 32 H 1.002697 5.433638 -3.238403 0
M  V30 33 H 0.124540 3.968427 -3.730288 0
M  V30 34 H 0.972800 5.910690 -1.004834 0
M  V30 35 H 1.891718 4.678548 -0.002053 0
M  V30 36 H 0.059840 4.753333 -0.017528 0
M  V30 37 H 0.671171 2.877553 0.658926 0
M  V30 38 H -0.076170 -1.671393 3.743807 0
M  V30 END ATOM
M  V30 BEGIN BOND
M  V30 1 1 1 2
M  V30 2 1 2 3
M  V30 3 1 2 4
M  V30 4 2 4 5
M  V30 5 1 5 6
M  V30 6 2 6 7
M  V30 7 1 7 8
M  V30 8 2 8 9
M  V30 9 1 9 10
M  V30 10 2 10 11
M  V30 11 1 11 12
M  V30 12 2 12 13 CFG=2
M  V30 13 1 13 14
M  V30 14 1 13 15
M  V30 15 1 12 16
M  V30 16 2 16 17
M  V30 17 1 17 18
M  V30 18 1 18 19
M  V30 19 2 19 20
M  V30 20 1 20 4
M  V30 21 1 19 7
M  V30 22 1 17 9
M  V30 23 1 1 21
M  V30 24 1 1 22
M  V30 25 1 1 23
M  V30 26 1 3 24
M  V30 27 1 3 25
M  V30 28 1 3 26
M  V30 29 1 5 27
M  V30 30 1 6 28
M  V30 31 1 10 29
M  V30 32 1 11 30
M  V30 33 1 14 31
M  V30 34 1 14 32
M  V30 35 1 14 33
M  V30 36 1 15 34
M  V30 37 1 15 35
M  V30 38 1 15 36
M  V30 39 1 16 37
M  V30 40 1 20 38
M  V30 END BOND
M  V30 END CTAB
M  END
>  <Dataset>  (876) 
ChEMBL_Kinases

>  <Ligand_Instance>  (876) 
nan

>  <PDB_ID>  (876) 
nan

>  <Standardized_SMILES>  (876) 
CN(C)c1ccc2nc3ccc(=[N+](C)C)cc-3sc2c1

>  <Name>  (876) 
METHYLENE BLUE

>  <Pocket>  (876) 
nan

>  <ATP_Site>  (876) 
nan

>  <Peripheral>  (876) 
nan

>  <Num_H_Atoms_ProtBoundConf>  (876) 
nan

>  <Num_Resolved_Atoms>  (876) 
nan

>  <Num_Not_Resolved_Atoms>  (876) 
nan

$$$$
CHEMBL550519
     RDKit          3D

  0  0  0  0  0  0  0  0  0  0999 V3000
M  V30 BEGIN CTAB
M  V30 COUNTS 54 58 0 0 0
M  V30 BEGIN ATOM
M  V30 1 C 0.995685 -4.752056 3.155498 0
M  V30 2 C 0.342268 -3.370180 3.256736 0
M  V30 3 N 1.045460 -2.513612 2.373105 0
M  V30 4 C 2.144611 -1.823279 2.807715 0
M  V30 5 O 2.513422 -1.968462 4.010546 0
M  V30 6 C 2.866773 -0.984034 2.011387 0
M  V30 7 C 2.513565 -0.785293 0.692405 0
M  V30 8 N 3.208122 0.063564 -0.202050 0
M  V30 9 C 2.785868 1.212113 -0.924312 0
M  V30 10 C 1.491643 1.663490 -0.793671 0
M  V30 11 C 1.121989 2.779804 -1.513756 0
M  V30 12 C -0.202464 3.375456 -1.482709 0
M  V30 13 O -0.549031 4.406221 -2.145772 0
M  V30 14 N -1.275769 2.869867 -0.699370 0
M  V30 15 C -2.597709 3.478266 -0.679017 0
M  V30 16 C -3.291302 3.557411 0.700472 0
M  V30 17 C -3.730490 2.586854 -0.312531 0
M  V30 18 C 2.041906 3.424691 -2.347296 0
M  V30 19 C 3.322525 2.922606 -2.433938 0
M  V30 20 C 3.744078 1.794518 -1.723981 0
M  V30 21 Cl 5.375414 1.167928 -1.844324 0
M  V30 22 C 1.410460 -1.463945 0.217285 0
M  V30 23 C 0.713253 -1.566593 -0.991866 0
M  V30 24 N -0.309056 -2.425553 -0.781997 0
M  V30 25 N -0.311506 -2.872512 0.463286 0
M  V30 26 C -1.357111 -3.775262 0.763789 0
M  V30 27 C -1.408987 -5.151527 0.829977 0
M  V30 28 C -2.585137 -5.794284 1.145151 0
M  V30 29 C -3.743864 -5.094750 1.403961 0
M  V30 30 F -4.866796 -5.794323 1.708206 0
M  V30 31 C -3.724512 -3.722017 1.345936 0
M  V30 32 C -2.543243 -3.076351 1.029382 0
M  V30 33 F -2.692838 -1.709349 1.013276 0
M  V30 34 C 0.733346 -2.294494 1.086517 0
M  V30 35 H 1.416282 -4.903007 2.125317 0
M  V30 36 H 1.882181 -4.835416 3.821815 0
M  V30 37 H 0.250349 -5.504496 3.432195 0
M  V30 38 H -0.729760 -3.404741 3.237194 0
M  V30 39 H 0.598076 -3.047197 4.311188 0
M  V30 40 H 3.735486 -0.438716 2.355395 0
M  V30 41 H 4.158237 -0.342308 -0.234148 0
M  V30 42 H 0.746076 1.201483 -0.162610 0
M  V30 43 H -1.121711 2.018462 -0.102967 0
M  V30 44 H -2.731794 4.372877 -1.315876 0
M  V30 45 H -2.644600 3.284085 1.557865 0
M  V30 46 H -3.950050 4.448419 0.861614 0
M  V30 47 H -3.501713 1.490982 -0.201020 0
M  V30 48 H -4.664434 2.774393 -0.843686 0
M  V30 49 H 1.811370 4.303819 -2.936702 0
M  V30 50 H 4.064144 3.412420 -3.082823 0
M  V30 51 H 0.998185 -1.028980 -1.885016 0
M  V30 52 H -0.437793 -5.580052 0.606930 0
M  V30 53 H -2.513330 -6.871471 1.169220 0
M  V30 54 H -4.654818 -3.238920 1.556774 0
M  V30 END ATOM
M  V30 BEGIN BOND
M  V30 1 1 1 2
M  V30 2 1 2 3
M  V30 3 1 3 4
M  V30 4 2 4 5
M  V30 5 1 4 6
M  V30 6 2 6 7
M  V30 7 1 7 8
M  V30 8 1 8 9
M  V30 9 2 9 10
M  V30 10 1 10 11
M  V30 11 1 11 12
M  V30 12 2 12 13
M  V30 13 1 12 14
M  V30 14 1 14 15
M  V30 15 1 15 16
M  V30 16 1 16 17
M  V30 17 2 11 18
M  V30 18 1 18 19
M  V30 19 2 19 20
M  V30 20 1 20 21
M  V30 21 1 7 22
M  V30 22 1 22 23
M  V30 23 2 23 24
M  V30 24 1 24 25
M  V30 25 1 25 26
M  V30 26 2 26 27
M  V30 27 1 27 28
M  V30 28 2 28 29
M  V30 29 1 29 30
M  V30 30 1 29 31
M  V30 31 2 31 32
M  V30 32 1 32 33
M  V30 33 1 25 34
M  V30 34 1 34 3
M  V30 35 1 20 9
M  V30 36 2 34 22
M  V30 37 1 17 15
M  V30 38 1 32 26
M  V30 39 1 1 35
M  V30 40 1 1 36
M  V30 41 1 1 37
M  V30 42 1 2 38
M  V30 43 1 2 39
M  V30 44 1 6 40
M  V30 45 1 8 41
M  V30 46 1 10 42
M  V30 47 1 14 43
M  V30 48 1 15 44
M  V30 49 1 16 45
M  V30 50 1 16 46
M  V30 51 1 17 47
M  V30 52 1 17 48
M  V30 53 1 18 49
M  V30 54 1 19 50
M  V30 55 1 23 51
M  V30 56 1 27 52
M  V30 57 1 28 53
M  V30 58 1 31 54
M  V30 END BOND
M  V30 END CTAB
M  END
>  <Dataset>  (877) 
ChEMBL_Kinases

>  <Ligand_Instance>  (877) 
nan

>  <PDB_ID>  (877) 
nan

>  <Standardized_SMILES>  (877) 
CCn1c(=O)cc(Nc2cc(C(=O)NC3CC3)ccc2Cl)c2cnn(-c3ccc(F)cc3F)c21

>  <Name>  (877) 
nan

>  <Pocket>  (877) 
nan

>  <ATP_Site>  (877) 
nan

>  <Peripheral>  (877) 
nan

>  <Num_H_Atoms_ProtBoundConf>  (877) 
nan

>  <Num_Resolved_Atoms>  (877) 
nan

>  <Num_Not_Resolved_Atoms>  (877) 
nan

$$$$
CHEMBL550555
     RDKit          3D

  0  0  0  0  0  0  0  0  0  0999 V3000
M  V30 BEGIN CTAB
M  V30 COUNTS 36 38 0 0 0
M  V30 BEGIN ATOM
M  V30 1 N -0.781881 -1.623266 1.432283 0
M  V30 2 C -0.297560 -0.455333 0.779443 0
M  V30 3 C 0.963187 -0.288199 0.249509 0
M  V30 4 C 1.878162 -1.402023 0.383015 0
M  V30 5 O 1.430186 -2.394190 1.058446 0
M  V30 6 C 3.222329 -1.678153 -0.075166 0
M  V30 7 C 4.033994 -2.481900 0.674311 0
M  V30 8 C 5.337942 -2.802954 0.291443 0
M  V30 9 C 5.841085 -2.300862 -0.880634 0
M  V30 10 C 5.067899 -1.484650 -1.678367 0
M  V30 11 C 3.791754 -1.210883 -1.237808 0
M  V30 12 C 1.189297 0.936848 -0.331193 0
M  V30 13 C 0.299871 1.971195 -0.426478 0
M  V30 14 N -0.917731 1.766574 0.102556 0 CHG=1 VAL=4
M  V30 15 O -1.835774 2.794161 0.020422 0 CHG=-1 VAL=1
M  V30 16 C -1.202156 0.589757 0.685599 0
M  V30 17 C -2.552185 0.471114 1.227879 0
M  V30 18 C -2.986990 0.790570 2.504951 0
M  V30 19 C -4.316314 0.597111 2.801909 0
M  V30 20 C -5.248470 0.105992 1.914049 0
M  V30 21 Cl -6.919077 -0.110175 2.369849 0
M  V30 22 C -4.789024 -0.201676 0.656566 0
M  V30 23 C -3.459678 -0.030787 0.290064 0
M  V30 24 H -1.233396 -2.515002 1.103685 0
M  V30 25 H -0.716612 -1.705975 2.484870 0
M  V30 26 H 3.726321 -2.926067 1.614833 0
M  V30 27 H 5.960327 -3.440237 0.901023 0
M  V30 28 H 6.850336 -2.565731 -1.149618 0
M  V30 29 H 5.467109 -1.090339 -2.601928 0
M  V30 30 H 3.232019 -0.583387 -1.902148 0
M  V30 31 H 2.166956 1.114768 -0.748822 0
M  V30 32 H 0.563591 2.895402 -0.899147 0
M  V30 33 H -2.224720 1.163200 3.142001 0
M  V30 34 H -4.587207 0.865017 3.809548 0
M  V30 35 H -5.531125 -0.591428 -0.046727 0
M  V30 36 H -3.208797 -0.305362 -0.725234 0
M  V30 END ATOM
M  V30 BEGIN BOND
M  V30 1 1 1 2
M  V30 2 2 2 3
M  V30 3 1 3 4
M  V30 4 2 4 5
M  V30 5 1 4 6
M  V30 6 2 6 7
M  V30 7 1 7 8
M  V30 8 2 8 9
M  V30 9 1 9 10
M  V30 10 2 10 11
M  V30 11 1 3 12
M  V30 12 2 12 13
M  V30 13 1 13 14
M  V30 14 1 14 15
M  V30 15 2 14 16
M  V30 16 1 16 17
M  V30 17 2 17 18
M  V30 18 1 18 19
M  V30 19 2 19 20
M  V30 20 1 20 21
M  V30 21 1 20 22
M  V30 22 2 22 23
M  V30 23 1 16 2
M  V30 24 1 23 17
M  V30 25 1 11 6
M  V30 26 1 1 24
M  V30 27 1 1 25
M  V30 28 1 7 26
M  V30 29 1 8 27
M  V30 30 1 9 28
M  V30 31 1 10 29
M  V30 32 1 11 30
M  V30 33 1 12 31
M  V30 34 1 13 32
M  V30 35 1 18 33
M  V30 36 1 19 34
M  V30 37 1 22 35
M  V30 38 1 23 36
M  V30 END BOND
M  V30 END CTAB
M  END
>  <Dataset>  (878) 
ChEMBL_Kinases

>  <Ligand_Instance>  (878) 
nan

>  <PDB_ID>  (878) 
nan

>  <Standardized_SMILES>  (878) 
Nc1c(C(=O)c2ccccc2)cc[n+]([O-])c1-c1ccc(Cl)cc1

>  <Name>  (878) 
nan

>  <Pocket>  (878) 
nan

>  <ATP_Site>  (878) 
nan

>  <Peripheral>  (878) 
nan

>  <Num_H_Atoms_ProtBoundConf>  (878) 
nan

>  <Num_Resolved_Atoms>  (878) 
nan

>  <Num_Not_Resolved_Atoms>  (878) 
nan

$$$$
CHEMBL550561
     RDKit          3D

  0  0  0  0  0  0  0  0  0  0999 V3000
M  V30 BEGIN CTAB
M  V30 COUNTS 36 38 0 0 0
M  V30 BEGIN ATOM
M  V30 1 N 0.086336 -2.260199 0.158779 0
M  V30 2 C -0.206023 -0.927130 0.563327 0
M  V30 3 C 0.666848 0.120141 0.575289 0
M  V30 4 C 2.014964 -0.178761 0.118128 0
M  V30 5 O 2.247570 -1.362228 -0.300054 0
M  V30 6 C 3.245305 0.583575 0.010494 0
M  V30 7 C 4.002372 0.575342 -1.164898 0
M  V30 8 C 5.162037 1.298600 -1.307327 0
M  V30 9 C 5.621139 2.073176 -0.263433 0
M  V30 10 F 6.761399 2.787861 -0.396207 0
M  V30 11 C 4.919406 2.123208 0.922475 0
M  V30 12 C 3.762951 1.378050 1.011169 0
M  V30 13 F 3.130306 1.459470 2.201222 0
M  V30 14 C 0.211686 1.330874 0.994968 0
M  V30 15 C -1.080697 1.574576 1.412755 0
M  V30 16 N -1.945223 0.542347 1.402311 0 CHG=1 VAL=4
M  V30 17 O -3.246630 0.724899 1.807783 0 CHG=-1 VAL=1
M  V30 18 C -1.515867 -0.666849 0.989839 0
M  V30 19 C -2.495750 -1.747362 0.999525 0
M  V30 20 C -3.201544 -1.875082 -0.182721 0
M  V30 21 C -4.161153 -2.824029 -0.372885 0
M  V30 22 C -4.428027 -3.689970 0.674737 0
M  V30 23 Cl -5.623204 -4.962542 0.603637 0
M  V30 24 C -3.736062 -3.584629 1.870153 0
M  V30 25 C -2.768984 -2.614378 2.036358 0
M  V30 26 H 0.374482 -3.134079 0.657635 0
M  V30 27 H 0.086783 -2.724340 -0.784526 0
M  V30 28 H 3.665566 -0.029307 -2.012608 0
M  V30 29 H 5.758574 1.303194 -2.208671 0
M  V30 30 H 5.296154 2.728022 1.709761 0
M  V30 31 H 0.868717 2.162886 1.006823 0
M  V30 32 H -1.395391 2.565669 1.740488 0
M  V30 33 H -3.043712 -1.227862 -1.049242 0
M  V30 34 H -4.751108 -2.983581 -1.264588 0
M  V30 35 H -3.899969 -4.226393 2.714518 0
M  V30 36 H -2.169587 -2.440043 2.919970 0
M  V30 END ATOM
M  V30 BEGIN BOND
M  V30 1 1 1 2
M  V30 2 2 2 3
M  V30 3 1 3 4
M  V30 4 2 4 5
M  V30 5 1 4 6
M  V30 6 2 6 7
M  V30 7 1 7 8
M  V30 8 2 8 9
M  V30 9 1 9 10
M  V30 10 1 9 11
M  V30 11 2 11 12
M  V30 12 1 12 13
M  V30 13 1 3 14
M  V30 14 2 14 15
M  V30 15 1 15 16
M  V30 16 1 16 17
M  V30 17 2 16 18
M  V30 18 1 18 19
M  V30 19 2 19 20
M  V30 20 1 20 21
M  V30 21 2 21 22
M  V30 22 1 22 23
M  V30 23 1 22 24
M  V30 24 2 24 25
M  V30 25 1 18 2
M  V30 26 1 25 19
M  V30 27 1 12 6
M  V30 28 1 1 26
M  V30 29 1 1 27
M  V30 30 1 7 28
M  V30 31 1 8 29
M  V30 32 1 11 30
M  V30 33 1 14 31
M  V30 34 1 15 32
M  V30 35 1 20 33
M  V30 36 1 21 34
M  V30 37 1 24 35
M  V30 38 1 25 36
M  V30 END BOND
M  V30 END CTAB
M  END
>  <Dataset>  (879) 
ChEMBL_Kinases

>  <Ligand_Instance>  (879) 
nan

>  <PDB_ID>  (879) 
nan

>  <Standardized_SMILES>  (879) 
Nc1c(C(=O)c2ccc(F)cc2F)cc[n+]([O-])c1-c1ccc(Cl)cc1

>  <Name>  (879) 
nan

>  <Pocket>  (879) 
nan

>  <ATP_Site>  (879) 
nan

>  <Peripheral>  (879) 
nan

>  <Num_H_Atoms_ProtBoundConf>  (879) 
nan

>  <Num_Resolved_Atoms>  (879) 
nan

>  <Num_Not_Resolved_Atoms>  (879) 
nan

$$$$
CHEMBL550566
     RDKit          3D

  0  0  0  0  0  0  0  0  0  0999 V3000
M  V30 BEGIN CTAB
M  V30 COUNTS 36 38 0 0 0
M  V30 BEGIN ATOM
M  V30 1 N 0.500255 -2.273347 0.254670 0
M  V30 2 C -0.089725 -1.038363 0.599394 0
M  V30 3 C 0.470829 0.185982 0.415481 0
M  V30 4 C 1.787544 0.196601 -0.199533 0
M  V30 5 O 2.277330 -0.909843 -0.560774 0
M  V30 6 C 2.749478 1.235663 -0.526545 0
M  V30 7 C 3.344009 1.310054 -1.787507 0
M  V30 8 C 4.243839 2.296015 -2.124961 0
M  V30 9 C 4.591341 3.261121 -1.203948 0
M  V30 10 F 5.476643 4.203737 -1.586053 0
M  V30 11 C 4.036496 3.238542 0.058092 0
M  V30 12 C 3.141199 2.230073 0.344990 0
M  V30 13 F 2.648463 2.263179 1.604899 0
M  V30 14 C -0.247422 1.278924 0.810197 0
M  V30 15 C -1.501604 1.233581 1.383206 0
M  V30 16 N -2.049574 0.017992 1.562066 0 CHG=1 VAL=4
M  V30 17 O -3.293885 -0.086877 2.126999 0 CHG=-1 VAL=1
M  V30 18 C -1.363597 -1.075779 1.181763 0
M  V30 19 C -2.016055 -2.369759 1.403677 0
M  V30 20 C -2.809730 -2.859546 0.381951 0
M  V30 21 F -3.003727 -2.196191 -0.800578 0
M  V30 22 C -3.435919 -4.086261 0.576784 0
M  V30 23 C -3.293859 -4.831339 1.751631 0
M  V30 24 C -2.490077 -4.311502 2.758001 0
M  V30 25 C -1.863662 -3.088828 2.568437 0
M  V30 26 F -1.075301 -2.547735 3.518288 0
M  V30 27 H 0.761598 -2.734520 -0.645139 0
M  V30 28 H 0.694446 -2.796579 1.156742 0
M  V30 29 H 3.103173 0.569161 -2.555235 0
M  V30 30 H 4.691774 2.323806 -3.126003 0
M  V30 31 H 4.315978 3.998594 0.769905 0
M  V30 32 H 0.167414 2.255986 0.669837 0
M  V30 33 H -2.022089 2.139164 1.676272 0
M  V30 34 H -4.057854 -4.506616 -0.180314 0
M  V30 35 H -3.810110 -5.784786 1.843299 0
M  V30 36 H -2.363954 -4.867175 3.674993 0
M  V30 END ATOM
M  V30 BEGIN BOND
M  V30 1 1 1 2
M  V30 2 2 2 3
M  V30 3 1 3 4
M  V30 4 2 4 5
M  V30 5 1 4 6
M  V30 6 2 6 7
M  V30 7 1 7 8
M  V30 8 2 8 9
M  V30 9 1 9 10
M  V30 10 1 9 11
M  V30 11 2 11 12
M  V30 12 1 12 13
M  V30 13 1 3 14
M  V30 14 2 14 15
M  V30 15 1 15 16
M  V30 16 1 16 17
M  V30 17 2 16 18
M  V30 18 1 18 19
M  V30 19 2 19 20
M  V30 20 1 20 21
M  V30 21 1 20 22
M  V30 22 2 22 23
M  V30 23 1 23 24
M  V30 24 2 24 25
M  V30 25 1 25 26
M  V30 26 1 18 2
M  V30 27 1 25 19
M  V30 28 1 12 6
M  V30 29 1 1 27
M  V30 30 1 1 28
M  V30 31 1 7 29
M  V30 32 1 8 30
M  V30 33 1 11 31
M  V30 34 1 14 32
M  V30 35 1 15 33
M  V30 36 1 22 34
M  V30 37 1 23 35
M  V30 38 1 24 36
M  V30 END BOND
M  V30 END CTAB
M  END
>  <Dataset>  (880) 
ChEMBL_Kinases

>  <Ligand_Instance>  (880) 
nan

>  <PDB_ID>  (880) 
nan

>  <Standardized_SMILES>  (880) 
Nc1c(C(=O)c2ccc(F)cc2F)cc[n+]([O-])c1-c1c(F)cccc1F

>  <Name>  (880) 
nan

>  <Pocket>  (880) 
nan

>  <ATP_Site>  (880) 
nan

>  <Peripheral>  (880) 
nan

>  <Num_H_Atoms_ProtBoundConf>  (880) 
nan

>  <Num_Resolved_Atoms>  (880) 
nan

>  <Num_Not_Resolved_Atoms>  (880) 
nan

$$$$
CHEMBL550701
     RDKit          3D

  0  0  0  0  0  0  0  0  0  0999 V3000
M  V30 BEGIN CTAB
M  V30 COUNTS 50 52 0 0 0
M  V30 BEGIN ATOM
M  V30 1 C -0.043713 -3.646413 7.582261 0
M  V30 2 O 1.101311 -4.135037 6.971919 0
M  V30 3 C 1.408149 -3.248797 5.912356 0
M  V30 4 C 2.632073 -3.676609 5.176644 0
M  V30 5 O 2.957419 -2.822394 4.130665 0
M  V30 6 C 2.291524 -2.484411 3.001893 0
M  V30 7 C 3.100175 -1.562057 2.316513 0
M  V30 8 C 2.705440 -1.002566 1.091935 0
M  V30 9 C 1.494187 -1.361895 0.540065 0
M  V30 10 C 0.965222 -0.855357 -0.724844 0
M  V30 11 C 0.177093 0.302637 -0.688526 0
M  V30 12 N -0.076631 0.935785 0.563681 0
M  V30 13 C -0.303053 0.750791 -1.892410 0
M  V30 14 C -1.120741 1.953195 -1.836309 0
M  V30 15 O -1.342863 2.490150 -0.740791 0
M  V30 16 C -1.781879 2.711484 -2.888662 0
M  V30 17 C -1.212482 3.070725 -4.087953 0
M  V30 18 C -1.814218 3.779076 -5.079917 0
M  V30 19 C -3.117148 4.187866 -4.891444 0
M  V30 20 F -3.806163 4.896215 -5.813949 0
M  V30 21 C -3.758927 3.867816 -3.715710 0
M  V30 22 C -3.099380 3.136771 -2.722692 0
M  V30 23 F -3.803129 2.868454 -1.605012 0
M  V30 24 C 0.019131 0.042943 -3.023906 0
M  V30 25 C 0.801078 -1.092740 -2.997111 0
M  V30 26 N 1.286082 -1.556155 -1.832384 0 CHG=1 VAL=4
M  V30 27 O 2.060011 -2.669848 -1.756593 0 CHG=-1 VAL=1
M  V30 28 C 0.682338 -2.264769 1.191945 0
M  V30 29 C -0.628801 -2.735152 0.720213 0
M  V30 30 C 1.099158 -2.794405 2.390153 0
M  V30 31 H -0.919808 -3.580984 6.912030 0
M  V30 32 H -0.245800 -4.279755 8.473825 0
M  V30 33 H 0.093664 -2.610523 7.993179 0
M  V30 34 H 0.515083 -3.249196 5.276071 0
M  V30 35 H 1.548221 -2.260659 6.429755 0
M  V30 36 H 2.555562 -4.727195 4.797257 0
M  V30 37 H 3.494699 -3.636661 5.911356 0
M  V30 38 H 4.085504 -1.143040 2.569757 0
M  V30 39 H 3.248112 -0.293664 0.493140 0
M  V30 40 H 0.776256 1.489328 0.855676 0
M  V30 41 H -0.964243 0.865751 1.109149 0
M  V30 42 H -0.192776 2.771214 -4.273928 0
M  V30 43 H -1.322815 4.038079 -6.009104 0
M  V30 44 H -4.790302 4.193673 -3.571152 0
M  V30 45 H -0.366430 0.406649 -3.962387 0
M  V30 46 H 1.019127 -1.609723 -3.943856 0
M  V30 47 H -1.156001 -1.958249 0.106067 0
M  V30 48 H -0.573660 -3.705613 0.164534 0
M  V30 49 H -1.321710 -2.923727 1.572347 0
M  V30 50 H 0.547575 -3.512445 2.973519 0
M  V30 END ATOM
M  V30 BEGIN BOND
M  V30 1 1 1 2
M  V30 2 1 2 3
M  V30 3 1 3 4
M  V30 4 1 4 5
M  V30 5 1 5 6
M  V30 6 2 6 7
M  V30 7 1 7 8
M  V30 8 2 8 9
M  V30 9 1 9 10
M  V30 10 2 10 11
M  V30 11 1 11 12
M  V30 12 1 11 13
M  V30 13 1 13 14
M  V30 14 2 14 15
M  V30 15 1 14 16
M  V30 16 2 16 17
M  V30 17 1 17 18
M  V30 18 2 18 19
M  V30 19 1 19 20
M  V30 20 1 19 21
M  V30 21 2 21 22
M  V30 22 1 22 23
M  V30 23 2 13 24
M  V30 24 1 24 25
M  V30 25 2 25 26
M  V30 26 1 26 27
M  V30 27 1 9 28
M  V30 28 1 28 29
M  V30 29 2 28 30
M  V30 30 1 30 6
M  V30 31 1 26 10
M  V30 32 1 22 16
M  V30 33 1 1 31
M  V30 34 1 1 32
M  V30 35 1 1 33
M  V30 36 1 3 34
M  V30 37 1 3 35
M  V30 38 1 4 36
M  V30 39 1 4 37
M  V30 40 1 7 38
M  V30 41 1 8 39
M  V30 42 1 12 40
M  V30 43 1 12 41
M  V30 44 1 17 42
M  V30 45 1 18 43
M  V30 46 1 21 44
M  V30 47 1 24 45
M  V30 48 1 25 46
M  V30 49 1 29 47
M  V30 50 1 29 48
M  V30 51 1 29 49
M  V30 52 1 30 50
M  V30 END BOND
M  V30 END CTAB
M  END
>  <Dataset>  (881) 
ChEMBL_Kinases

>  <Ligand_Instance>  (881) 
nan

>  <PDB_ID>  (881) 
nan

>  <Standardized_SMILES>  (881) 
COCCOc1ccc(-c2c(N)c(C(=O)c3ccc(F)cc3F)cc[n+]2[O-])c(C)c1

>  <Name>  (881) 
nan

>  <Pocket>  (881) 
nan

>  <ATP_Site>  (881) 
nan

>  <Peripheral>  (881) 
nan

>  <Num_H_Atoms_ProtBoundConf>  (881) 
nan

>  <Num_Resolved_Atoms>  (881) 
nan

>  <Num_Not_Resolved_Atoms>  (881) 
nan

$$$$
CHEMBL3728642
     RDKit          3D

  0  0  0  0  0  0  0  0  0  0999 V3000
M  V30 BEGIN CTAB
M  V30 COUNTS 62 67 0 0 0
M  V30 BEGIN ATOM
M  V30 1 C 4.572584 -1.592027 6.932920 0
M  V30 2 C 4.148222 -1.562434 5.509597 0
M  V30 3 C 4.872783 -1.030369 4.462685 0
M  V30 4 C 4.399263 -1.045828 3.166576 0
M  V30 5 C 3.154204 -1.606187 2.856896 0
M  V30 6 C 2.699752 -1.602320 1.445467 0
M  V30 7 N 2.016295 -0.425289 1.050241 0
M  V30 8 C 0.836383 -0.068640 1.728258 0
M  V30 9 C -0.439202 -0.324965 0.993026 0
M  V30 10 N -0.366508 0.166570 -0.393050 0
M  V30 11 C -1.567652 0.084015 -1.148962 0
M  V30 12 N -2.121457 1.304198 -1.215726 0
M  V30 13 C -3.280165 1.612553 -1.802975 0
M  V30 14 C -3.911737 2.916219 -1.895074 0
M  V30 15 C -3.292462 4.014422 -1.323292 0
M  V30 16 C -3.838467 5.288864 -1.372313 0
M  V30 17 N -5.029978 5.455879 -2.009676 0
M  V30 18 C -5.617691 4.376707 -2.559811 0
M  V30 19 C -5.127057 3.096927 -2.543213 0
M  V30 20 N -3.903795 0.562970 -2.361564 0
M  V30 21 C -3.396869 -0.667529 -2.324252 0
M  V30 22 S -3.967946 -2.183762 -2.954339 0
M  V30 23 C -2.585067 -3.199112 -2.389355 0
M  V30 24 C -1.737838 -2.253368 -1.722078 0
M  V30 25 C -2.214108 -0.983490 -1.725996 0
M  V30 26 C -0.550286 -2.996835 -1.243531 0
M  V30 27 C -1.083958 -4.075684 -0.290991 0
M  V30 28 C -1.766549 -5.155587 -1.105700 0
M  V30 29 C -2.198930 -4.632441 -2.459417 0
M  V30 30 C 0.915260 0.685349 -0.852544 0
M  V30 31 C 2.056130 -0.134552 -0.344891 0
M  V30 32 C 2.455410 -2.129055 3.922789 0
M  V30 33 C 2.910318 -2.123562 5.223863 0
M  V30 34 H 3.736404 -1.175238 7.530589 0
M  V30 35 H 4.788225 -2.662927 7.168251 0
M  V30 36 H 5.468036 -0.956511 7.033395 0
M  V30 37 H 5.821925 -0.615766 4.773664 0
M  V30 38 H 5.028568 -0.609447 2.409100 0
M  V30 39 H 2.106782 -2.542277 1.259425 0
M  V30 40 H 3.634648 -1.672602 0.817294 0
M  V30 41 H 0.778007 -0.576970 2.701792 0
M  V30 42 H 0.919052 1.031247 1.985822 0
M  V30 43 H -0.861212 -1.318787 1.078160 0
M  V30 44 H -1.209514 0.358758 1.459734 0
M  V30 45 H -2.333397 3.877561 -0.810545 0
M  V30 46 H -3.340477 6.135478 -0.919502 0
M  V30 47 H -6.556875 4.607505 -3.042714 0
M  V30 48 H -5.638601 2.278038 -2.997416 0
M  V30 49 H 0.219035 -2.404132 -0.763168 0
M  V30 50 H -0.143111 -3.587664 -2.111536 0
M  V30 51 H -1.827877 -3.553560 0.341242 0
M  V30 52 H -0.252356 -4.461804 0.326200 0
M  V30 53 H -2.597404 -5.590301 -0.518983 0
M  V30 54 H -1.020580 -5.958898 -1.269790 0
M  V30 55 H -3.110981 -5.180199 -2.769496 0
M  V30 56 H -1.423087 -4.767798 -3.219515 0
M  V30 57 H 0.957425 0.826590 -1.926336 0
M  V30 58 H 1.025210 1.697876 -0.391497 0
M  V30 59 H 2.986804 0.460671 -0.577971 0
M  V30 60 H 2.219629 -1.093565 -0.884871 0
M  V30 61 H 1.490560 -2.580162 3.737371 0
M  V30 62 H 2.295099 -2.558996 6.011439 0
M  V30 END ATOM
M  V30 BEGIN BOND
M  V30 1 1 1 2
M  V30 2 2 2 3
M  V30 3 1 3 4
M  V30 4 2 4 5
M  V30 5 1 5 6
M  V30 6 1 6 7
M  V30 7 1 7 8
M  V30 8 1 8 9
M  V30 9 1 9 10
M  V30 10 1 10 11
M  V30 11 2 11 12
M  V30 12 1 12 13
M  V30 13 1 13 14
M  V30 14 2 14 15
M  V30 15 1 15 16
M  V30 16 2 16 17
M  V30 17 1 17 18
M  V30 18 2 18 19
M  V30 19 2 13 20
M  V30 20 1 20 21
M  V30 21 1 21 22
M  V30 22 1 22 23
M  V30 23 2 23 24
M  V30 24 1 24 25
M  V30 25 1 24 26
M  V30 26 1 26 27
M  V30 27 1 27 28
M  V30 28 1 28 29
M  V30 29 1 10 30
M  V30 30 1 30 31
M  V30 31 1 5 32
M  V30 32 2 32 33
M  V30 33 1 33 2
M  V30 34 1 31 7
M  V30 35 1 25 11
M  V30 36 1 19 14
M  V30 37 2 25 21
M  V30 38 1 29 23
M  V30 39 1 1 34
M  V30 40 1 1 35
M  V30 41 1 1 36
M  V30 42 1 3 37
M  V30 43 1 4 38
M  V30 44 1 6 39
M  V30 45 1 6 40
M  V30 46 1 8 41
M  V30 47 1 8 42
M  V30 48 1 9 43
M  V30 49 1 9 44
M  V30 50 1 15 45
M  V30 51 1 16 46
M  V30 52 1 18 47
M  V30 53 1 19 48
M  V30 54 1 26 49
M  V30 55 1 26 50
M  V30 56 1 27 51
M  V30 57 1 27 52
M  V30 58 1 28 53
M  V30 59 1 28 54
M  V30 60 1 29 55
M  V30 61 1 29 56
M  V30 62 1 30 57
M  V30 63 1 30 58
M  V30 64 1 31 59
M  V30 65 1 31 60
M  V30 66 1 32 61
M  V30 67 1 33 62
M  V30 END BOND
M  V30 END CTAB
M  END
>  <Dataset>  (882) 
ChEMBL_Kinases

>  <Ligand_Instance>  (882) 
nan

>  <PDB_ID>  (882) 
nan

>  <Standardized_SMILES>  (882) 
Cc1ccc(CN2CCN(c3nc(-c4ccncc4)nc4sc5c(c34)CCCC5)CC2)cc1

>  <Name>  (882) 
nan

>  <Pocket>  (882) 
nan

>  <ATP_Site>  (882) 
nan

>  <Peripheral>  (882) 
nan

>  <Num_H_Atoms_ProtBoundConf>  (882) 
nan

>  <Num_Resolved_Atoms>  (882) 
nan

>  <Num_Not_Resolved_Atoms>  (882) 
nan

$$$$
CHEMBL3728666
     RDKit          3D

  0  0  0  0  0  0  0  0  0  0999 V3000
M  V30 BEGIN CTAB
M  V30 COUNTS 36 37 0 0 0
M  V30 BEGIN ATOM
M  V30 1 C 4.029376 -2.233371 0.609939 0
M  V30 2 C 3.498760 -1.066320 -0.135242 0
M  V30 3 C 4.120137 -0.579645 -1.264871 0
M  V30 4 C 3.594468 0.508037 -1.929189 0
M  V30 5 C 2.448565 1.165672 -1.526173 0
M  V30 6 N 1.918798 2.287301 -2.217969 0
M  V30 7 C 0.713210 2.982006 -1.811566 0
M  V30 8 C -0.401533 1.990104 -1.884948 0
M  V30 9 O -0.655089 0.792149 -2.169626 0
M  V30 10 N -1.659597 2.576554 -1.497607 0
M  V30 11 N -2.799980 1.731136 -1.526016 0
M  V30 12 C -2.897240 0.775472 -0.654337 0
M  V30 13 C -3.979628 -0.189116 -0.520872 0
M  V30 14 C -4.034911 -1.196884 0.434163 0
M  V30 15 Cl -2.663494 -1.247580 1.524291 0
M  V30 16 C -5.127470 -2.038846 0.438582 0
M  V30 17 N -6.117605 -1.910412 -0.439313 0
M  V30 18 C -6.089752 -0.947254 -1.371015 0
M  V30 19 C -5.009733 -0.061617 -1.428151 0
M  V30 20 Cl -5.114567 1.143906 -2.700224 0
M  V30 21 C 1.872975 0.634606 -0.392935 0
M  V30 22 C 2.353392 -0.449790 0.311740 0
M  V30 23 H 3.288305 -3.057164 0.654859 0
M  V30 24 H 4.207363 -1.921443 1.661244 0
M  V30 25 H 5.004450 -2.562145 0.208202 0
M  V30 26 H 5.012855 -1.031395 -1.644294 0
M  V30 27 H 4.101062 0.885886 -2.829689 0
M  V30 28 H 2.448536 2.607185 -3.063050 0
M  V30 29 H 0.809671 3.395794 -0.784320 0
M  V30 30 H 0.531899 3.831131 -2.492790 0
M  V30 31 H -1.926025 3.554269 -1.180343 0
M  V30 32 H -2.096375 0.653011 0.074125 0
M  V30 33 H -5.066424 -2.791336 1.229297 0
M  V30 34 H -6.962886 -0.960147 -2.020376 0
M  V30 35 H 0.975141 1.068119 0.014695 0
M  V30 36 H 1.853525 -0.824440 1.202260 0
M  V30 END ATOM
M  V30 BEGIN BOND
M  V30 1 1 1 2
M  V30 2 2 2 3
M  V30 3 1 3 4
M  V30 4 2 4 5
M  V30 5 1 5 6
M  V30 6 1 6 7
M  V30 7 1 7 8
M  V30 8 2 8 9
M  V30 9 1 8 10
M  V30 10 1 10 11
M  V30 11 2 11 12
M  V30 12 1 12 13
M  V30 13 2 13 14
M  V30 14 1 14 15
M  V30 15 1 14 16
M  V30 16 2 16 17
M  V30 17 1 17 18
M  V30 18 2 18 19
M  V30 19 1 19 20
M  V30 20 1 5 21
M  V30 21 2 21 22
M  V30 22 1 22 2
M  V30 23 1 19 13
M  V30 24 1 1 23
M  V30 25 1 1 24
M  V30 26 1 1 25
M  V30 27 1 3 26
M  V30 28 1 4 27
M  V30 29 1 6 28
M  V30 30 1 7 29
M  V30 31 1 7 30
M  V30 32 1 10 31
M  V30 33 1 12 32
M  V30 34 1 16 33
M  V30 35 1 18 34
M  V30 36 1 21 35
M  V30 37 1 22 36
M  V30 END BOND
M  V30 END CTAB
M  END
>  <Dataset>  (883) 
ChEMBL_Kinases

>  <Ligand_Instance>  (883) 
nan

>  <PDB_ID>  (883) 
nan

>  <Standardized_SMILES>  (883) 
Cc1ccc(NCC(=O)N/N=C/c2c(Cl)cncc2Cl)cc1

>  <Name>  (883) 
nan

>  <Pocket>  (883) 
nan

>  <ATP_Site>  (883) 
nan

>  <Peripheral>  (883) 
nan

>  <Num_H_Atoms_ProtBoundConf>  (883) 
nan

>  <Num_Resolved_Atoms>  (883) 
nan

>  <Num_Not_Resolved_Atoms>  (883) 
nan

$$$$
CHEMBL538910
     RDKit          3D

  0  0  0  0  0  0  0  0  0  0999 V3000
M  V30 BEGIN CTAB
M  V30 COUNTS 34 37 0 0 0
M  V30 BEGIN ATOM
M  V30 1 C -1.806301 -5.598880 2.617406 0
M  V30 2 N -0.753548 -4.645567 2.402012 0
M  V30 3 C -1.211301 -3.466661 1.717366 0
M  V30 4 N 0.141762 -3.015847 1.819069 0
M  V30 5 C 0.599619 -1.839278 1.352080 0
M  V30 6 S 2.257618 -0.897421 1.273265 0
M  V30 7 C 1.536893 0.523588 0.404351 0
M  V30 8 C 2.341668 1.718046 -0.009193 0
M  V30 9 C 3.705718 1.824962 0.251601 0
M  V30 10 C 4.334536 2.966621 -0.186078 0
M  V30 11 C 3.615923 3.951314 -0.854380 0
M  V30 12 F 4.247144 5.075360 -1.287946 0
M  V30 13 C 2.254601 3.834734 -1.109495 0
M  V30 14 C 1.649322 2.683710 -0.661932 0
M  V30 15 N 0.385151 0.246456 0.273792 0
M  V30 16 C -0.154609 -0.868254 0.698502 0
M  V30 17 C -1.460806 -1.239822 0.570900 0
M  V30 18 C -1.610726 -2.437828 1.119888 0
M  V30 19 N -2.961473 -2.838768 0.993776 0
M  V30 20 C -3.629808 -1.836265 0.346426 0
M  V30 21 N -2.675257 -0.896764 0.114823 0
M  V30 22 C -2.835305 0.372974 -0.535581 0
M  V30 23 H -2.794366 -5.277426 2.202383 0
M  V30 24 H -1.973172 -5.867744 3.684409 0
M  V30 25 H -1.577053 -6.542458 2.088236 0
M  V30 26 H 0.026754 -5.125927 2.843335 0
M  V30 27 H 4.070040 0.961716 0.781215 0
M  V30 28 H 5.379581 3.001164 0.037493 0
M  V30 29 H 1.730542 4.616833 -1.628315 0
M  V30 30 H 0.594581 2.635491 -0.879285 0
M  V30 31 H -4.674369 -1.767679 0.065454 0
M  V30 32 H -3.476560 0.301686 -1.438593 0
M  V30 33 H -3.377977 1.028988 0.210235 0
M  V30 34 H -1.900427 0.875461 -0.818979 0
M  V30 END ATOM
M  V30 BEGIN BOND
M  V30 1 1 1 2
M  V30 2 1 2 3
M  V30 3 2 3 4
M  V30 4 1 4 5
M  V30 5 1 5 6
M  V30 6 1 6 7
M  V30 7 1 7 8
M  V30 8 2 8 9
M  V30 9 1 9 10
M  V30 10 2 10 11
M  V30 11 1 11 12
M  V30 12 1 11 13
M  V30 13 2 13 14
M  V30 14 2 7 15
M  V30 15 1 15 16
M  V30 16 1 16 17
M  V30 17 2 17 18
M  V30 18 1 18 19
M  V30 19 2 19 20
M  V30 20 1 20 21
M  V30 21 1 21 22
M  V30 22 1 18 3
M  V30 23 2 16 5
M  V30 24 1 21 17
M  V30 25 1 14 8
M  V30 26 1 1 23
M  V30 27 1 1 24
M  V30 28 1 1 25
M  V30 29 1 2 26
M  V30 30 1 9 27
M  V30 31 1 10 28
M  V30 32 1 13 29
M  V30 33 1 14 30
M  V30 34 1 20 31
M  V30 35 1 22 32
M  V30 36 1 22 33
M  V30 37 1 22 34
M  V30 END BOND
M  V30 END CTAB
M  END
>  <Dataset>  (884) 
ChEMBL_Kinases

>  <Ligand_Instance>  (884) 
nan

>  <PDB_ID>  (884) 
nan

>  <Standardized_SMILES>  (884) 
CNc1nc2sc(-c3ccc(F)cc3)nc2c2c1ncn2C

>  <Name>  (884) 
nan

>  <Pocket>  (884) 
nan

>  <ATP_Site>  (884) 
nan

>  <Peripheral>  (884) 
nan

>  <Num_H_Atoms_ProtBoundConf>  (884) 
nan

>  <Num_Resolved_Atoms>  (884) 
nan

>  <Num_Not_Resolved_Atoms>  (884) 
nan

$$$$
CHEMBL539134
     RDKit          3D

  0  0  0  0  0  0  0  0  0  0999 V3000
M  V30 BEGIN CTAB
M  V30 COUNTS 35 36 0 0 0
M  V30 BEGIN ATOM
M  V30 1 O 0.533217 0.094937 4.437963 0
M  V30 2 C -0.137026 -0.133241 3.401342 0
M  V30 3 O -0.639900 0.792936 4.289529 0
M  V30 4 C 0.390393 -1.104496 2.469999 0
M  V30 5 C -0.253518 -1.396712 1.361100 0
M  V30 6 C 0.447943 -2.419866 0.543260 0
M  V30 7 C 0.912198 -1.857516 -0.771286 0
M  V30 8 C 1.862887 -0.730005 -0.558352 0
M  V30 9 C 3.232830 -0.988924 -0.459233 0
M  V30 10 C 4.124445 0.033750 -0.264986 0
M  V30 11 C 3.717125 1.345498 -0.160048 0
M  V30 12 Cl 4.812707 2.711066 0.090004 0
M  V30 13 C 2.362861 1.636486 -0.254173 0
M  V30 14 C 1.495570 0.589900 -0.448778 0
M  V30 15 C -1.470053 -0.800772 0.871468 0
M  V30 16 C -2.170342 0.298993 1.215445 0
M  V30 17 C -3.374654 0.723223 0.716866 0
M  V30 18 C -3.983682 -0.032602 -0.257852 0
M  V30 19 C -3.343430 -1.172978 -0.673997 0
M  V30 20 C -2.132475 -1.535224 -0.124025 0
M  V30 21 H -1.652073 1.016470 4.312524 0
M  V30 22 H 1.346249 -1.580081 2.733758 0
M  V30 23 H 1.345683 -2.835507 1.032353 0
M  V30 24 H -0.205178 -3.297201 0.339892 0
M  V30 25 H 1.501119 -2.673447 -1.270737 0
M  V30 26 H 0.143520 -1.543693 -1.467653 0
M  V30 27 H 3.555522 -2.011976 -0.540565 0
M  V30 28 H 5.189281 -0.163423 -0.187578 0
M  V30 29 H 1.987016 2.667772 -0.176730 0
M  V30 30 H 0.462888 0.843826 -0.517799 0
M  V30 31 H -1.727873 0.924483 1.943051 0
M  V30 32 H -3.836986 1.622432 1.073854 0
M  V30 33 H -4.929793 0.292939 -0.655361 0
M  V30 34 H -3.870481 -1.719330 -1.435582 0
M  V30 35 H -1.801828 -2.469173 -0.578383 0
M  V30 END ATOM
M  V30 BEGIN BOND
M  V30 1 2 1 2
M  V30 2 1 2 3
M  V30 3 1 2 4
M  V30 4 2 4 5
M  V30 5 1 5 6
M  V30 6 1 6 7
M  V30 7 1 7 8
M  V30 8 2 8 9
M  V30 9 1 9 10
M  V30 10 2 10 11
M  V30 11 1 11 12
M  V30 12 1 11 13
M  V30 13 2 13 14
M  V30 14 1 5 15
M  V30 15 2 15 16
M  V30 16 1 16 17
M  V30 17 2 17 18
M  V30 18 1 18 19
M  V30 19 2 19 20
M  V30 20 1 14 8
M  V30 21 1 20 15
M  V30 22 1 3 21
M  V30 23 1 4 22
M  V30 24 1 6 23
M  V30 25 1 6 24
M  V30 26 1 7 25
M  V30 27 1 7 26
M  V30 28 1 9 27
M  V30 29 1 10 28
M  V30 30 1 13 29
M  V30 31 1 14 30
M  V30 32 1 16 31
M  V30 33 1 17 32
M  V30 34 1 18 33
M  V30 35 1 19 34
M  V30 36 1 20 35
M  V30 END BOND
M  V30 END CTAB
M  END
>  <Dataset>  (885) 
ChEMBL_Kinases

>  <Ligand_Instance>  (885) 
nan

>  <PDB_ID>  (885) 
nan

>  <Standardized_SMILES>  (885) 
O=C(O)/C=C(/CCc1ccc(Cl)cc1)c1ccccc1

>  <Name>  (885) 
nan

>  <Pocket>  (885) 
nan

>  <ATP_Site>  (885) 
nan

>  <Peripheral>  (885) 
nan

>  <Num_H_Atoms_ProtBoundConf>  (885) 
nan

>  <Num_Resolved_Atoms>  (885) 
nan

>  <Num_Not_Resolved_Atoms>  (885) 
nan

$$$$
CHEMBL539169
     RDKit          3D

  0  0  0  0  0  0  0  0  0  0999 V3000
M  V30 BEGIN CTAB
M  V30 COUNTS 42 45 0 0 0
M  V30 BEGIN ATOM
M  V30 1 C 1.389946 -5.371533 -0.122291 0
M  V30 2 C 0.488270 -4.205002 -0.418995 0
M  V30 3 C -0.838065 -4.383133 0.328197 0
M  V30 4 C 0.140439 -4.278625 -1.890790 0
M  V30 5 C 1.101605 -2.909400 -0.063338 0
M  V30 6 C 1.875726 -2.106914 -0.875935 0
M  V30 7 C 2.383924 -0.899781 -0.379374 0
M  V30 8 C 2.123786 -0.482509 0.933737 0
M  V30 9 O 2.749892 0.728023 1.128591 0
M  V30 10 C 2.268845 1.977561 0.809210 0
M  V30 11 C 3.066179 2.674965 -0.102133 0
M  V30 12 N 2.871777 3.925462 -0.619172 0
M  V30 13 C 1.767793 4.563045 -0.191612 0
M  V30 14 C 0.939761 3.918337 0.713506 0
M  V30 15 S -0.609157 4.426951 1.515651 0
M  V30 16 C -0.845427 2.943991 2.450553 0
M  V30 17 C -1.998171 2.834140 3.301848 0
M  V30 18 N -2.282220 3.101176 4.565930 0
M  V30 19 N -3.567139 2.771514 4.772074 0
M  V30 20 N -4.094349 2.295487 3.635083 0
M  V30 21 N -3.121423 2.339251 2.741063 0
M  V30 22 C 0.204154 2.190860 2.119656 0
M  V30 23 C 1.143751 2.642540 1.237145 0
M  V30 24 C 1.348112 -1.304642 1.721858 0
M  V30 25 C 0.851409 -2.490460 1.226885 0
M  V30 26 H 0.822953 -6.298465 -0.321391 0
M  V30 27 H 2.257097 -5.360767 -0.799328 0
M  V30 28 H 1.660177 -5.321095 0.946049 0
M  V30 29 H -0.607422 -4.797393 1.325401 0
M  V30 30 H -1.235596 -3.349152 0.514603 0
M  V30 31 H -1.537271 -4.992767 -0.252306 0
M  V30 32 H -0.649918 -5.032338 -2.024390 0
M  V30 33 H 1.045873 -4.431901 -2.503666 0
M  V30 34 H -0.277549 -3.288807 -2.186915 0
M  V30 35 H 2.029622 -2.491738 -1.861665 0
M  V30 36 H 2.966783 -0.404878 -1.156723 0
M  V30 37 H 3.991566 2.238860 -0.511693 0
M  V30 38 H 1.440016 5.560597 -0.485324 0
M  V30 39 H -5.083809 1.972514 3.546067 0
M  V30 40 H 0.201003 1.235336 2.620608 0
M  V30 41 H 1.226540 -0.881299 2.705026 0
M  V30 42 H 0.255409 -3.050557 1.940015 0
M  V30 END ATOM
M  V30 BEGIN BOND
M  V30 1 1 1 2
M  V30 2 1 2 3
M  V30 3 1 2 4
M  V30 4 1 2 5
M  V30 5 2 5 6
M  V30 6 1 6 7
M  V30 7 2 7 8
M  V30 8 1 8 9
M  V30 9 1 9 10
M  V30 10 2 10 11
M  V30 11 1 11 12
M  V30 12 2 12 13
M  V30 13 1 13 14
M  V30 14 1 14 15
M  V30 15 1 15 16
M  V30 16 1 16 17
M  V30 17 1 17 18
M  V30 18 2 18 19
M  V30 19 1 19 20
M  V30 20 1 20 21
M  V30 21 2 16 22
M  V30 22 1 22 23
M  V30 23 1 8 24
M  V30 24 2 24 25
M  V30 25 1 25 5
M  V30 26 1 23 10
M  V30 27 2 23 14
M  V30 28 2 21 17
M  V30 29 1 1 26
M  V30 30 1 1 27
M  V30 31 1 1 28
M  V30 32 1 3 29
M  V30 33 1 3 30
M  V30 34 1 3 31
M  V30 35 1 4 32
M  V30 36 1 4 33
M  V30 37 1 4 34
M  V30 38 1 6 35
M  V30 39 1 7 36
M  V30 40 1 11 37
M  V30 41 1 13 38
M  V30 42 1 20 39
M  V30 43 1 22 40
M  V30 44 1 24 41
M  V30 45 1 25 42
M  V30 END BOND
M  V30 END CTAB
M  END
>  <Dataset>  (886) 
ChEMBL_Kinases

>  <Ligand_Instance>  (886) 
nan

>  <PDB_ID>  (886) 
nan

>  <Standardized_SMILES>  (886) 
CC(C)(C)c1ccc(Oc2cncc3sc(-c4nn[nH]n4)cc23)cc1

>  <Name>  (886) 
nan

>  <Pocket>  (886) 
nan

>  <ATP_Site>  (886) 
nan

>  <Peripheral>  (886) 
nan

>  <Num_H_Atoms_ProtBoundConf>  (886) 
nan

>  <Num_Resolved_Atoms>  (886) 
nan

>  <Num_Not_Resolved_Atoms>  (886) 
nan

$$$$
CHEMBL539450
     RDKit          3D

  0  0  0  0  0  0  0  0  0  0999 V3000
M  V30 BEGIN CTAB
M  V30 COUNTS 38 40 0 0 0
M  V30 BEGIN ATOM
M  V30 1 C -2.089249 -3.157721 3.741876 0
M  V30 2 C -0.655298 -3.582079 3.687299 0
M  V30 3 C -0.141082 -3.940304 2.343170 0
M  V30 4 C -0.188214 -2.870847 1.302479 0 CFG=2
M  V30 5 C 0.616081 -1.688809 1.727892 0
M  V30 6 N 0.887236 -0.750495 0.641295 0
M  V30 7 C -0.002485 0.088171 -0.075832 0
M  V30 8 C -1.374021 -0.314952 -0.134582 0
M  V30 9 S -2.193294 1.045152 -1.155344 0
M  V30 10 C -0.670944 1.963165 -1.379745 0
M  V30 11 C -0.454407 3.144847 -2.059520 0
M  V30 12 C 0.803436 3.687753 -2.113231 0
M  V30 13 C 1.765091 2.971303 -1.457091 0
M  V30 14 O 3.048611 3.524791 -1.511639 0
M  V30 15 C 4.151934 2.877577 -0.866525 0
M  V30 16 C 1.582622 1.804305 -0.778716 0
M  V30 17 C 0.324569 1.247781 -0.716607 0
M  V30 18 C -2.141812 -1.449230 0.393036 0
M  V30 19 O -3.378520 -1.275416 0.305711 0
M  V30 20 N -1.544859 -2.615400 0.942028 0
M  V30 21 H -2.404878 -3.061695 4.822450 0
M  V30 22 H -2.781268 -3.941563 3.343471 0
M  V30 23 H -2.322125 -2.227859 3.185915 0
M  V30 24 H -0.053270 -2.817774 4.218454 0
M  V30 25 H -0.570500 -4.491989 4.317839 0
M  V30 26 H 0.878069 -4.357246 2.469342 0
M  V30 27 H -0.751773 -4.828200 2.002711 0
M  V30 28 H 0.352835 -3.298283 0.404528 0
M  V30 29 H 1.608477 -2.063960 2.051123 0
M  V30 30 H 0.202132 -1.163565 2.611674 0
M  V30 31 H 1.891359 -0.641994 0.299050 0
M  V30 32 H -1.325421 3.578559 -2.521207 0
M  V30 33 H 0.957493 4.612020 -2.648344 0
M  V30 34 H 3.962336 2.897350 0.239523 0
M  V30 35 H 5.057827 3.464894 -1.139067 0
M  V30 36 H 4.234192 1.820803 -1.181417 0
M  V30 37 H 2.448545 1.357186 -0.309918 0
M  V30 38 H -2.254707 -3.367410 1.080097 0
M  V30 END ATOM
M  V30 BEGIN BOND
M  V30 1 1 1 2
M  V30 2 1 2 3
M  V30 3 1 3 4
M  V30 4 1 4 5
M  V30 5 1 5 6
M  V30 6 1 6 7
M  V30 7 2 7 8
M  V30 8 1 8 9
M  V30 9 1 9 10
M  V30 10 2 10 11
M  V30 11 1 11 12
M  V30 12 2 12 13
M  V30 13 1 13 14
M  V30 14 1 14 15
M  V30 15 1 13 16
M  V30 16 2 16 17
M  V30 17 1 8 18
M  V30 18 2 18 19
M  V30 19 1 18 20
M  V30 20 1 20 4
M  V30 21 1 17 7
M  V30 22 1 17 10
M  V30 23 1 1 21
M  V30 24 1 1 22
M  V30 25 1 1 23
M  V30 26 1 2 24
M  V30 27 1 2 25
M  V30 28 1 3 26
M  V30 29 1 3 27
M  V30 30 1 4 28 CFG=3
M  V30 31 1 5 29
M  V30 32 1 5 30
M  V30 33 1 6 31
M  V30 34 1 11 32
M  V30 35 1 12 33
M  V30 36 1 15 34
M  V30 37 1 15 35
M  V30 38 1 15 36
M  V30 39 1 16 37
M  V30 40 1 20 38
M  V30 END BOND
M  V30 END CTAB
M  END
>  <Dataset>  (887) 
ChEMBL_Kinases

>  <Ligand_Instance>  (887) 
nan

>  <PDB_ID>  (887) 
nan

>  <Standardized_SMILES>  (887) 
CCC[C@@H]1CNc2c(sc3ccc(OC)cc23)C(=O)N1

>  <Name>  (887) 
nan

>  <Pocket>  (887) 
nan

>  <ATP_Site>  (887) 
nan

>  <Peripheral>  (887) 
nan

>  <Num_H_Atoms_ProtBoundConf>  (887) 
nan

>  <Num_Resolved_Atoms>  (887) 
nan

>  <Num_Not_Resolved_Atoms>  (887) 
nan

$$$$
CHEMBL539855
     RDKit          3D

  0  0  0  0  0  0  0  0  0  0999 V3000
M  V30 BEGIN CTAB
M  V30 COUNTS 46 50 0 0 0
M  V30 BEGIN ATOM
M  V30 1 C 0.141546 -0.257337 3.430135 0
M  V30 2 N -0.292537 -1.437580 2.723017 0
M  V30 3 C 0.716229 -2.430620 2.814854 0
M  V30 4 C 1.933682 -2.322891 1.984887 0
M  V30 5 O 2.771096 -1.276718 1.977467 0
M  V30 6 C 2.840649 0.015927 1.688452 0
M  V30 7 C 3.701786 0.789626 2.421977 0
M  V30 8 C 3.892088 2.158459 2.235959 0
M  V30 9 C 3.174167 2.830664 1.242375 0
M  V30 10 C 2.279389 2.089164 0.464511 0
M  V30 11 N 1.569802 2.724673 -0.486751 0
M  V30 12 C 0.667887 2.050010 -1.265180 0
M  V30 13 O -0.074803 2.678834 -2.247978 0
M  V30 14 C 0.591096 0.709860 -0.960054 0
M  V30 15 N 1.291276 0.054557 -0.016500 0
M  V30 16 C 2.163889 0.745188 0.726014 0
M  V30 17 C -0.390780 0.032179 -1.763653 0
M  V30 18 C -0.631809 0.214976 -3.098811 0
M  V30 19 C -1.651830 -0.596455 -3.544465 0
M  V30 20 C -2.407959 -1.509919 -2.852625 0
M  V30 21 C -2.244147 -1.762408 -1.526610 0
M  V30 22 C -2.765637 -2.541420 -0.576933 0
M  V30 23 O -3.683558 -3.363249 -0.686533 0
M  V30 24 N -2.243686 -2.459492 0.733212 0
M  V30 25 S -0.911508 -1.157633 0.542395 0
M  V30 26 C -1.101689 -0.864736 -0.987394 0
M  V30 27 C -2.223221 -2.867331 2.100368 0
M  V30 28 C -1.636825 -1.807294 3.011635 0
M  V30 29 H 1.114027 -0.458079 3.911957 0
M  V30 30 H -0.544037 -0.025670 4.291336 0
M  V30 31 H 0.228293 0.614134 2.777344 0
M  V30 32 H 1.099698 -2.524645 3.896451 0
M  V30 33 H 0.231996 -3.430530 2.608374 0
M  V30 34 H 1.649629 -2.650065 0.907601 0
M  V30 35 H 2.588315 -3.246238 2.255351 0
M  V30 36 H 4.310779 0.367941 3.221829 0
M  V30 37 H 4.600013 2.722409 2.856389 0
M  V30 38 H 3.330002 3.910248 1.100076 0
M  V30 39 H -1.087513 2.705240 -2.164418 0
M  V30 40 H -0.022900 0.925944 -3.609665 0
M  V30 41 H -1.892939 -0.493170 -4.615537 0
M  V30 42 H -3.186893 -2.098001 -3.295686 0
M  V30 43 H -3.275672 -3.064347 2.481163 0
M  V30 44 H -1.671408 -3.802720 2.266680 0
M  V30 45 H -1.802536 -2.059422 4.082671 0
M  V30 46 H -2.255147 -0.878532 2.832212 0
M  V30 END ATOM
M  V30 BEGIN BOND
M  V30 1 1 1 2
M  V30 2 1 2 3
M  V30 3 1 3 4
M  V30 4 1 4 5
M  V30 5 1 5 6
M  V30 6 2 6 7
M  V30 7 1 7 8
M  V30 8 2 8 9
M  V30 9 1 9 10
M  V30 10 2 10 11
M  V30 11 1 11 12
M  V30 12 1 12 13
M  V30 13 2 12 14
M  V30 14 1 14 15
M  V30 15 2 15 16
M  V30 16 1 14 17
M  V30 17 1 17 18
M  V30 18 2 18 19
M  V30 19 1 19 20
M  V30 20 2 20 21
M  V30 21 1 21 22
M  V30 22 2 22 23
M  V30 23 1 22 24
M  V30 24 1 24 25
M  V30 25 1 25 26
M  V30 26 1 24 27
M  V30 27 1 27 28
M  V30 28 1 28 2
M  V30 29 1 16 6
M  V30 30 2 26 17
M  V30 31 1 16 10
M  V30 32 1 26 21
M  V30 33 1 1 29
M  V30 34 1 1 30
M  V30 35 1 1 31
M  V30 36 1 3 32
M  V30 37 1 3 33
M  V30 38 1 4 34
M  V30 39 1 4 35
M  V30 40 1 7 36
M  V30 41 1 8 37
M  V30 42 1 9 38
M  V30 43 1 13 39
M  V30 44 1 18 40
M  V30 45 1 19 41
M  V30 46 1 20 42
M  V30 47 1 27 43
M  V30 48 1 27 44
M  V30 49 1 28 45
M  V30 50 1 28 46
M  V30 END BOND
M  V30 END CTAB
M  END
>  <Dataset>  (888) 
ChEMBL_Kinases

>  <Ligand_Instance>  (888) 
nan

>  <PDB_ID>  (888) 
nan

>  <Standardized_SMILES>  (888) 
CN1CCOc2cccc3nc(O)c(nc23)-c2cccc3c(=O)n(sc23)CC1

>  <Name>  (888) 
nan

>  <Pocket>  (888) 
nan

>  <ATP_Site>  (888) 
nan

>  <Peripheral>  (888) 
nan

>  <Num_H_Atoms_ProtBoundConf>  (888) 
nan

>  <Num_Resolved_Atoms>  (888) 
nan

>  <Num_Not_Resolved_Atoms>  (888) 
nan

$$$$
CHEMBL539988
     RDKit          3D

  0  0  0  0  0  0  0  0  0  0999 V3000
M  V30 BEGIN CTAB
M  V30 COUNTS 36 38 0 0 0
M  V30 BEGIN ATOM
M  V30 1 N -0.213343 -2.246359 0.406544 0
M  V30 2 C -0.299807 -0.840836 0.471057 0
M  V30 3 C 0.753738 0.021624 0.654705 0
M  V30 4 C 2.062956 -0.595671 0.781749 0
M  V30 5 O 2.138473 -1.850165 0.661454 0
M  V30 6 C 3.400608 -0.088093 1.030079 0
M  V30 7 C 4.484827 -0.479668 0.236730 0
M  V30 8 C 5.764850 -0.008445 0.427880 0
M  V30 9 C 6.011958 0.884052 1.433209 0
M  V30 10 F 7.272812 1.340841 1.612206 0
M  V30 11 C 4.997082 1.306840 2.244262 0
M  V30 12 C 3.730989 0.811899 2.020633 0
M  V30 13 F 2.776719 1.256271 2.861107 0
M  V30 14 C 0.474664 1.367418 0.690577 0
M  V30 15 C -0.789329 1.899783 0.554850 0
M  V30 16 N -1.810652 1.043028 0.375882 0 CHG=1 VAL=4
M  V30 17 O -3.082108 1.546692 0.237651 0 CHG=-1 VAL=1
M  V30 18 C -1.563675 -0.278687 0.336817 0
M  V30 19 C -2.726603 -1.138766 0.139084 0
M  V30 20 C -3.521977 -1.680057 1.135642 0
M  V30 21 C -4.589818 -2.477259 0.774769 0
M  V30 22 C -4.899130 -2.758443 -0.541283 0
M  V30 23 C -4.102390 -2.216767 -1.552712 0
M  V30 24 Cl -4.458696 -2.548135 -3.248583 0
M  V30 25 C -3.021512 -1.409668 -1.183454 0
M  V30 26 H -0.544632 -2.792708 -0.442769 0
M  V30 27 H 0.136665 -2.989358 1.059806 0
M  V30 28 H 4.333838 -1.185924 -0.571889 0
M  V30 29 H 6.565665 -0.330428 -0.197754 0
M  V30 30 H 5.215012 2.009518 3.028919 0
M  V30 31 H 1.274429 2.049357 0.824130 0
M  V30 32 H -0.938654 2.975249 0.593345 0
M  V30 33 H -3.239385 -1.430988 2.149436 0
M  V30 34 H -5.187759 -2.881215 1.595650 0
M  V30 35 H -5.744740 -3.388303 -0.792525 0
M  V30 36 H -2.447406 -1.023502 -2.012221 0
M  V30 END ATOM
M  V30 BEGIN BOND
M  V30 1 1 1 2
M  V30 2 2 2 3
M  V30 3 1 3 4
M  V30 4 2 4 5
M  V30 5 1 4 6
M  V30 6 2 6 7
M  V30 7 1 7 8
M  V30 8 2 8 9
M  V30 9 1 9 10
M  V30 10 1 9 11
M  V30 11 2 11 12
M  V30 12 1 12 13
M  V30 13 1 3 14
M  V30 14 2 14 15
M  V30 15 1 15 16
M  V30 16 1 16 17
M  V30 17 2 16 18
M  V30 18 1 18 19
M  V30 19 2 19 20
M  V30 20 1 20 21
M  V30 21 2 21 22
M  V30 22 1 22 23
M  V30 23 1 23 24
M  V30 24 2 23 25
M  V30 25 1 18 2
M  V30 26 1 25 19
M  V30 27 1 12 6
M  V30 28 1 1 26
M  V30 29 1 1 27
M  V30 30 1 7 28
M  V30 31 1 8 29
M  V30 32 1 11 30
M  V30 33 1 14 31
M  V30 34 1 15 32
M  V30 35 1 20 33
M  V30 36 1 21 34
M  V30 37 1 22 35
M  V30 38 1 25 36
M  V30 END BOND
M  V30 END CTAB
M  END
>  <Dataset>  (889) 
ChEMBL_Kinases

>  <Ligand_Instance>  (889) 
nan

>  <PDB_ID>  (889) 
nan

>  <Standardized_SMILES>  (889) 
Nc1c(C(=O)c2ccc(F)cc2F)cc[n+]([O-])c1-c1cccc(Cl)c1

>  <Name>  (889) 
nan

>  <Pocket>  (889) 
nan

>  <ATP_Site>  (889) 
nan

>  <Peripheral>  (889) 
nan

>  <Num_H_Atoms_ProtBoundConf>  (889) 
nan

>  <Num_Resolved_Atoms>  (889) 
nan

>  <Num_Not_Resolved_Atoms>  (889) 
nan

$$$$
CHEMBL540202
     RDKit          3D

  0  0  0  0  0  0  0  0  0  0999 V3000
M  V30 BEGIN CTAB
M  V30 COUNTS 32 33 0 0 0
M  V30 BEGIN ATOM
M  V30 1 C 0.626252 -1.884146 4.909389 0
M  V30 2 C 0.928957 -2.623074 3.630954 0
M  V30 3 O 0.593097 -1.744810 2.574373 0
M  V30 4 C 0.732709 -2.065953 1.265110 0
M  V30 5 O 1.176985 -3.200641 1.571242 0
M  V30 6 C 0.517939 -1.488440 -0.031196 0
M  V30 7 C 0.862663 -2.336298 -1.045388 0
M  V30 8 C 0.769000 -2.064060 -2.389386 0
M  V30 9 C 1.136318 -2.967209 -3.490224 0
M  V30 10 N 0.284613 -0.828805 -2.662609 0
M  V30 11 C -0.055301 0.008267 -1.704482 0
M  V30 12 S -0.707112 1.661865 -1.755653 0
M  V30 13 C -0.827235 1.921058 -0.008587 0
M  V30 14 C -1.316783 3.144464 0.632603 0
M  V30 15 N -1.725433 4.205900 -0.199790 0
M  V30 16 O -1.346502 3.183621 1.869191 0
M  V30 17 C -0.355390 0.710255 0.561134 0
M  V30 18 N -0.346871 0.652042 1.976600 0
M  V30 19 C 0.028828 -0.240245 -0.342811 0
M  V30 20 H 0.677873 -0.808532 4.744274 0
M  V30 21 H -0.414623 -2.166361 5.205127 0
M  V30 22 H 1.298937 -2.188735 5.739769 0
M  V30 23 H 0.345041 -3.574935 3.555079 0
M  V30 24 H 1.993770 -2.947495 3.566775 0
M  V30 25 H 1.261814 -3.352322 -0.893056 0
M  V30 26 H 1.100236 -4.019727 -3.157489 0
M  V30 27 H 2.138822 -2.684596 -3.855109 0
M  V30 28 H 0.429088 -2.886387 -4.357287 0
M  V30 29 H -1.824270 5.132324 0.249797 0
M  V30 30 H -1.824092 5.134357 0.252583 0
M  V30 31 H -1.188893 0.491136 2.564132 0
M  V30 32 H -1.272554 0.483184 2.432311 0
M  V30 END ATOM
M  V30 BEGIN BOND
M  V30 1 1 1 2
M  V30 2 1 2 3
M  V30 3 1 3 4
M  V30 4 2 4 5
M  V30 5 1 4 6
M  V30 6 2 6 7
M  V30 7 1 7 8
M  V30 8 1 8 9
M  V30 9 2 8 10
M  V30 10 1 10 11
M  V30 11 1 11 12
M  V30 12 1 12 13
M  V30 13 1 13 14
M  V30 14 1 14 15
M  V30 15 2 14 16
M  V30 16 2 13 17
M  V30 17 1 17 18
M  V30 18 1 17 19
M  V30 19 1 19 6
M  V30 20 2 19 11
M  V30 21 1 1 20
M  V30 22 1 1 21
M  V30 23 1 1 22
M  V30 24 1 2 23
M  V30 25 1 2 24
M  V30 26 1 7 25
M  V30 27 1 9 26
M  V30 28 1 9 27
M  V30 29 1 9 28
M  V30 30 1 15 29
M  V30 31 1 15 30
M  V30 32 1 18 31
M  V30 33 1 18 32
M  V30 END BOND
M  V30 END CTAB
M  END
>  <Dataset>  (890) 
ChEMBL_Kinases

>  <Ligand_Instance>  (890) 
nan

>  <PDB_ID>  (890) 
nan

>  <Standardized_SMILES>  (890) 
CCOC(=O)c1cc(C)nc2sc(C(N)=O)c(N)c12

>  <Name>  (890) 
nan

>  <Pocket>  (890) 
nan

>  <ATP_Site>  (890) 
nan

>  <Peripheral>  (890) 
nan

>  <Num_H_Atoms_ProtBoundConf>  (890) 
nan

>  <Num_Resolved_Atoms>  (890) 
nan

>  <Num_Not_Resolved_Atoms>  (890) 
nan

$$$$
CHEMBL3728657
     RDKit          3D

  0  0  0  0  0  0  0  0  0  0999 V3000
M  V30 BEGIN CTAB
M  V30 COUNTS 53 57 0 0 0
M  V30 BEGIN ATOM
M  V30 1 N -2.317587 -3.236408 0.220822 0
M  V30 2 C -1.090802 -3.752451 0.790654 0 CFG=2
M  V30 3 C -0.591034 -2.934820 1.926484 0
M  V30 4 N -0.280074 -1.584258 1.752580 0
M  V30 5 C 0.043313 -0.180202 1.571698 0
M  V30 6 N 1.089085 0.232019 0.852017 0
M  V30 7 C 1.559693 1.435170 0.637907 0
M  V30 8 C 2.721842 1.758134 -0.164131 0
M  V30 9 C 3.471806 0.763361 -0.758652 0
M  V30 10 C 4.588653 1.112489 -1.522756 0
M  V30 11 N 4.915380 2.401950 -1.667399 0
M  V30 12 C 4.195909 3.382048 -1.094914 0
M  V30 13 C 3.074993 3.082305 -0.324711 0
M  V30 14 N 0.840346 2.354696 1.262758 0
M  V30 15 C -0.212780 2.034704 1.996465 0
M  V30 16 S -1.256250 3.156715 2.889760 0
M  V30 17 C -2.343067 1.912223 3.548123 0
M  V30 18 C -1.817086 0.707590 3.024076 0
M  V30 19 C -0.719185 0.784537 2.229715 0
M  V30 20 C -2.679071 -0.425974 3.467026 0
M  V30 21 C -4.099178 0.105821 3.537537 0
M  V30 22 O -4.330665 1.031552 4.510153 0
M  V30 23 C -3.489047 2.132240 4.441207 0
M  V30 24 C -0.121769 -4.321624 -0.161618 0
M  V30 25 C 0.406842 -3.485401 -1.229409 0
M  V30 26 C 1.515953 -2.686731 -1.407634 0
M  V30 27 C 1.774062 -1.993807 -2.564233 0
M  V30 28 C 0.913146 -2.063373 -3.637030 0
M  V30 29 C -0.223573 -2.847148 -3.531404 0
M  V30 30 C -0.435567 -3.520291 -2.351660 0
M  V30 31 H -2.345562 -2.232614 0.053282 0
M  V30 32 H -2.722511 -3.873649 -0.464559 0
M  V30 33 H -1.501699 -4.703059 1.339745 0
M  V30 34 H 0.243160 -3.491516 2.475052 0
M  V30 35 H -1.405481 -2.967295 2.752971 0
M  V30 36 H 0.436520 -2.037860 1.103193 0
M  V30 37 H 3.129544 -0.238333 -0.578179 0
M  V30 38 H 5.073022 0.232538 -1.923047 0
M  V30 39 H 4.487363 4.414231 -1.231827 0
M  V30 40 H 2.464814 3.827672 0.153557 0
M  V30 41 H -2.344108 -0.926327 4.370490 0
M  V30 42 H -2.722397 -1.135628 2.585505 0
M  V30 43 H -4.862248 -0.689686 3.631471 0
M  V30 44 H -4.290722 0.589177 2.554505 0
M  V30 45 H -3.074247 2.402918 5.440986 0
M  V30 46 H -4.079763 2.985295 4.058190 0
M  V30 47 H 0.757178 -4.679488 0.471170 0
M  V30 48 H -0.528146 -5.293072 -0.552504 0
M  V30 49 H 2.121024 -2.713015 -0.486753 0
M  V30 50 H 2.659449 -1.411822 -2.591135 0
M  V30 51 H 1.207720 -1.480643 -4.498507 0
M  V30 52 H -0.848037 -2.854069 -4.406022 0
M  V30 53 H -1.373094 -4.092805 -2.433414 0
M  V30 END ATOM
M  V30 BEGIN BOND
M  V30 1 1 1 2
M  V30 2 1 2 3
M  V30 3 1 3 4
M  V30 4 1 4 5
M  V30 5 2 5 6
M  V30 6 1 6 7
M  V30 7 1 7 8
M  V30 8 2 8 9
M  V30 9 1 9 10
M  V30 10 2 10 11
M  V30 11 1 11 12
M  V30 12 2 12 13
M  V30 13 2 7 14
M  V30 14 1 14 15
M  V30 15 1 15 16
M  V30 16 1 16 17
M  V30 17 2 17 18
M  V30 18 1 18 19
M  V30 19 1 18 20
M  V30 20 1 20 21
M  V30 21 1 21 22
M  V30 22 1 22 23
M  V30 23 1 2 24
M  V30 24 1 24 25
M  V30 25 2 25 26
M  V30 26 1 26 27
M  V30 27 2 27 28
M  V30 28 1 28 29
M  V30 29 2 29 30
M  V30 30 1 19 5
M  V30 31 1 30 25
M  V30 32 1 13 8
M  V30 33 2 19 15
M  V30 34 1 23 17
M  V30 35 1 1 31
M  V30 36 1 1 32
M  V30 37 1 2 33 CFG=1
M  V30 38 1 3 34
M  V30 39 1 3 35
M  V30 40 1 4 36
M  V30 41 1 9 37
M  V30 42 1 10 38
M  V30 43 1 12 39
M  V30 44 1 13 40
M  V30 45 1 20 41
M  V30 46 1 20 42
M  V30 47 1 21 43
M  V30 48 1 21 44
M  V30 49 1 23 45
M  V30 50 1 23 46
M  V30 51 1 24 47
M  V30 52 1 24 48
M  V30 53 1 26 49
M  V30 54 1 27 50
M  V30 55 1 28 51
M  V30 56 1 29 52
M  V30 57 1 30 53
M  V30 END BOND
M  V30 END CTAB
M  END
>  <Dataset>  (891) 
ChEMBL_Kinases

>  <Ligand_Instance>  (891) 
nan

>  <PDB_ID>  (891) 
nan

>  <Standardized_SMILES>  (891) 
N[C@H](CNc1nc(-c2ccncc2)nc2sc3c(c12)CCOC3)Cc1ccccc1

>  <Name>  (891) 
nan

>  <Pocket>  (891) 
nan

>  <ATP_Site>  (891) 
nan

>  <Peripheral>  (891) 
nan

>  <Num_H_Atoms_ProtBoundConf>  (891) 
nan

>  <Num_Resolved_Atoms>  (891) 
nan

>  <Num_Not_Resolved_Atoms>  (891) 
nan

$$$$
CHEMBL3728652
     RDKit          3D

  0  0  0  0  0  0  0  0  0  0999 V3000
M  V30 BEGIN CTAB
M  V30 COUNTS 55 59 0 0 0
M  V30 BEGIN ATOM
M  V30 1 N 2.792026 -5.410506 0.799830 0
M  V30 2 C 2.523813 -4.063816 0.382767 0 CFG=2
M  V30 3 C 1.866491 -3.335929 1.512910 0
M  V30 4 N 1.501576 -2.004402 1.359767 0
M  V30 5 C 1.146058 -0.655948 1.201462 0
M  V30 6 N 1.788627 0.462475 0.852876 0
M  V30 7 C 1.123121 1.621574 0.801681 0
M  V30 8 C 1.912940 2.775994 0.411292 0
M  V30 9 C 1.258543 3.985580 0.339762 0
M  V30 10 C 2.021008 5.090691 -0.038725 0
M  V30 11 N 3.335547 5.002890 -0.325189 0
M  V30 12 C 3.928607 3.775408 -0.235649 0
M  V30 13 C 3.249824 2.632748 0.130329 0
M  V30 14 N -0.159903 1.671420 1.091635 0
M  V30 15 C -0.931273 0.660478 1.450911 0
M  V30 16 C -2.245867 0.817292 1.731989 0
M  V30 17 C -3.081762 1.992908 1.722654 0
M  V30 18 C -2.997024 2.833804 0.625890 0
M  V30 19 C -3.788467 3.966784 0.621542 0
M  V30 20 C -4.623427 4.221451 1.689309 0
M  V30 21 C -4.667431 3.341719 2.763950 0
M  V30 22 C -3.892318 2.186127 2.820281 0
M  V30 23 C -2.909193 -0.470293 2.116891 0
M  V30 24 S -1.497597 -1.722629 2.009109 0
M  V30 25 C -0.212226 -0.598341 1.507079 0
M  V30 26 C 1.897295 -3.947929 -0.951655 0
M  V30 27 C 0.596696 -4.612973 -1.133856 0
M  V30 28 C -0.658736 -4.047278 -0.905524 0
M  V30 29 C -1.839267 -4.723719 -1.096699 0
M  V30 30 C -1.821063 -6.016201 -1.530453 0
M  V30 31 C -0.613641 -6.677452 -1.789344 0
M  V30 32 C 0.526935 -5.930087 -1.573139 0
M  V30 33 H 3.684931 -5.793556 0.417215 0
M  V30 34 H 2.016094 -6.089177 0.619752 0
M  V30 35 H 3.549338 -3.584564 0.297504 0
M  V30 36 H 0.952317 -3.921832 1.873502 0
M  V30 37 H 2.539956 -3.481777 2.411881 0
M  V30 38 H 2.528693 -1.832102 1.078150 0
M  V30 39 H 0.195915 4.054056 0.568479 0
M  V30 40 H 1.554667 6.066737 -0.108545 0
M  V30 41 H 4.997881 3.614266 -0.451094 0
M  V30 42 H 3.731579 1.681836 0.191823 0
M  V30 43 H -2.356836 2.644450 -0.199552 0
M  V30 44 H -3.790655 4.677642 -0.191205 0
M  V30 45 H -5.252906 5.098848 1.714695 0
M  V30 46 H -5.334672 3.575233 3.586231 0
M  V30 47 H -3.916199 1.494506 3.648399 0
M  V30 48 H -3.943454 -0.591400 2.383827 0
M  V30 49 H 1.770736 -2.914853 -1.307514 0
M  V30 50 H 2.599565 -4.430013 -1.697023 0
M  V30 51 H -0.632694 -3.021938 -0.562812 0
M  V30 52 H -2.783751 -4.260649 -0.913618 0
M  V30 53 H -2.707651 -6.627983 -1.709631 0
M  V30 54 H -0.486526 -7.708326 -2.140438 0
M  V30 55 H 1.498843 -6.412176 -1.766456 0
M  V30 END ATOM
M  V30 BEGIN BOND
M  V30 1 1 1 2
M  V30 2 1 2 3
M  V30 3 1 3 4
M  V30 4 1 4 5
M  V30 5 2 5 6
M  V30 6 1 6 7
M  V30 7 1 7 8
M  V30 8 2 8 9
M  V30 9 1 9 10
M  V30 10 2 10 11
M  V30 11 1 11 12
M  V30 12 2 12 13
M  V30 13 2 7 14
M  V30 14 1 14 15
M  V30 15 1 15 16
M  V30 16 1 16 17
M  V30 17 2 17 18
M  V30 18 1 18 19
M  V30 19 2 19 20
M  V30 20 1 20 21
M  V30 21 2 21 22
M  V30 22 2 16 23
M  V30 23 1 23 24
M  V30 24 1 24 25
M  V30 25 1 2 26
M  V30 26 1 26 27
M  V30 27 2 27 28
M  V30 28 1 28 29
M  V30 29 2 29 30
M  V30 30 1 30 31
M  V30 31 2 31 32
M  V30 32 1 25 5
M  V30 33 1 32 27
M  V30 34 1 13 8
M  V30 35 2 25 15
M  V30 36 1 22 17
M  V30 37 1 1 33
M  V30 38 1 1 34
M  V30 39 1 2 35 CFG=3
M  V30 40 1 3 36
M  V30 41 1 3 37
M  V30 42 1 4 38
M  V30 43 1 9 39
M  V30 44 1 10 40
M  V30 45 1 12 41
M  V30 46 1 13 42
M  V30 47 1 18 43
M  V30 48 1 19 44
M  V30 49 1 20 45
M  V30 50 1 21 46
M  V30 51 1 22 47
M  V30 52 1 23 48
M  V30 53 1 26 49
M  V30 54 1 26 50
M  V30 55 1 28 51
M  V30 56 1 29 52
M  V30 57 1 30 53
M  V30 58 1 31 54
M  V30 59 1 32 55
M  V30 END BOND
M  V30 END CTAB
M  END
>  <Dataset>  (892) 
ChEMBL_Kinases

>  <Ligand_Instance>  (892) 
nan

>  <PDB_ID>  (892) 
nan

>  <Standardized_SMILES>  (892) 
N[C@H](CNc1nc(-c2ccncc2)nc2c(-c3ccccc3)csc12)Cc1ccccc1

>  <Name>  (892) 
nan

>  <Pocket>  (892) 
nan

>  <ATP_Site>  (892) 
nan

>  <Peripheral>  (892) 
nan

>  <Num_H_Atoms_ProtBoundConf>  (892) 
nan

>  <Num_Resolved_Atoms>  (892) 
nan

>  <Num_Not_Resolved_Atoms>  (892) 
nan

$$$$
CHEMBL549478
     RDKit          3D

  0  0  0  0  0  0  0  0  0  0999 V3000
M  V30 BEGIN CTAB
M  V30 COUNTS 36 39 0 0 0
M  V30 BEGIN ATOM
M  V30 1 C -0.510094 -5.450795 2.110660 0
M  V30 2 N -1.500008 -4.400699 2.189964 0
M  V30 3 C -1.151621 -3.109035 1.709049 0
M  V30 4 N 0.053273 -2.843685 1.191599 0
M  V30 5 C 0.449410 -1.650811 0.719965 0
M  V30 6 N 1.602099 -1.193896 0.169554 0
M  V30 7 C 1.451719 0.109350 -0.130294 0
M  V30 8 C 2.459678 0.976682 -0.739166 0
M  V30 9 C 3.693628 0.441317 -1.049007 0
M  V30 10 C 4.605682 1.312978 -1.623633 0
M  V30 11 C 4.343011 2.658652 -1.893561 0
M  V30 12 C 3.077902 3.146257 -1.559181 0
M  V30 13 F 2.851026 4.454583 -1.832150 0
M  V30 14 C 2.148042 2.299242 -0.984701 0
M  V30 15 C 0.172144 0.470170 0.243991 0
M  V30 16 C -0.473991 -0.625112 0.781361 0
M  V30 17 C -1.744038 -0.798720 1.297861 0
M  V30 18 C -2.066833 -2.056421 1.760080 0
M  V30 19 N -3.327611 -1.958715 2.199170 0
M  V30 20 C -3.793057 -0.704932 2.029196 0
M  V30 21 N -2.803667 0.024941 1.464675 0
M  V30 22 C -2.865037 1.419981 1.106907 0
M  V30 23 H -0.927181 -6.443189 2.364156 0
M  V30 24 H -0.066457 -5.482724 1.096537 0
M  V30 25 H 0.319691 -5.229834 2.808167 0
M  V30 26 H -2.456002 -4.544868 2.582402 0
M  V30 27 H 2.460774 -1.802804 0.018407 0
M  V30 28 H 3.975248 -0.592634 -0.871080 0
M  V30 29 H 5.588873 0.918107 -1.879168 0
M  V30 30 H 5.112787 3.275845 -2.346244 0
M  V30 31 H 1.164262 2.710428 -0.733403 0
M  V30 32 H -0.218983 1.459558 0.118662 0
M  V30 33 H -4.774910 -0.279392 2.275844 0
M  V30 34 H -3.798352 1.863904 1.543316 0
M  V30 35 H -2.814877 1.580270 0.018632 0
M  V30 36 H -2.022869 1.919128 1.636415 0
M  V30 END ATOM
M  V30 BEGIN BOND
M  V30 1 1 1 2
M  V30 2 1 2 3
M  V30 3 2 3 4
M  V30 4 1 4 5
M  V30 5 1 5 6
M  V30 6 1 6 7
M  V30 7 1 7 8
M  V30 8 2 8 9
M  V30 9 1 9 10
M  V30 10 2 10 11
M  V30 11 1 11 12
M  V30 12 1 12 13
M  V30 13 2 12 14
M  V30 14 2 7 15
M  V30 15 1 15 16
M  V30 16 1 16 17
M  V30 17 2 17 18
M  V30 18 1 18 19
M  V30 19 2 19 20
M  V30 20 1 20 21
M  V30 21 1 21 22
M  V30 22 1 18 3
M  V30 23 2 16 5
M  V30 24 1 21 17
M  V30 25 1 14 8
M  V30 26 1 1 23
M  V30 27 1 1 24
M  V30 28 1 1 25
M  V30 29 1 2 26
M  V30 30 1 6 27
M  V30 31 1 9 28
M  V30 32 1 10 29
M  V30 33 1 11 30
M  V30 34 1 14 31
M  V30 35 1 15 32
M  V30 36 1 20 33
M  V30 37 1 22 34
M  V30 38 1 22 35
M  V30 39 1 22 36
M  V30 END BOND
M  V30 END CTAB
M  END
>  <Dataset>  (893) 
ChEMBL_Kinases

>  <Ligand_Instance>  (893) 
nan

>  <PDB_ID>  (893) 
nan

>  <Standardized_SMILES>  (893) 
CNc1nc2[nH]c(-c3cccc(F)c3)cc2c2c1ncn2C

>  <Name>  (893) 
nan

>  <Pocket>  (893) 
nan

>  <ATP_Site>  (893) 
nan

>  <Peripheral>  (893) 
nan

>  <Num_H_Atoms_ProtBoundConf>  (893) 
nan

>  <Num_Resolved_Atoms>  (893) 
nan

>  <Num_Not_Resolved_Atoms>  (893) 
nan

$$$$
CHEMBL540245
     RDKit          3D

  0  0  0  0  0  0  0  0  0  0999 V3000
M  V30 BEGIN CTAB
M  V30 COUNTS 39 41 0 0 0
M  V30 BEGIN ATOM
M  V30 1 O 1.877674 -0.965391 1.044133 0
M  V30 2 C 0.921711 -1.592598 1.565199 0
M  V30 3 N 1.303357 -2.949555 1.719141 0
M  V30 4 C 2.547974 -3.546947 1.357998 0
M  V30 5 C 2.710157 -3.822168 -0.089510 0
M  V30 6 C 3.255232 -3.011784 -1.061757 0
M  V30 7 C 3.341809 -3.399623 -2.374266 0
M  V30 8 C 2.876933 -4.635363 -2.762675 0
M  V30 9 Cl 2.969949 -5.172772 -4.439272 0
M  V30 10 C 2.316754 -5.507097 -1.847354 0
M  V30 11 C 2.265996 -5.049502 -0.563840 0
M  V30 12 C -0.345386 -0.981469 1.932275 0
M  V30 13 C -0.429562 0.392650 1.664131 0
M  V30 14 C -1.560809 1.105805 1.960036 0
M  V30 15 C -1.696517 2.531766 1.706338 0
M  V30 16 C -0.713628 3.328315 1.137923 0
M  V30 17 C -0.818832 4.678973 0.892214 0
M  V30 18 C -2.005347 5.296489 1.241092 0
M  V30 19 O -2.194469 6.668851 1.025074 0
M  V30 20 C -3.030497 4.571612 1.811210 0
M  V30 21 F -4.171604 5.216928 2.135828 0
M  V30 22 C -2.845281 3.221301 2.024671 0
M  V30 23 N -2.601365 0.462762 2.517125 0
M  V30 24 N -2.583528 -0.829689 2.793599 0
M  V30 25 C -1.470928 -1.516295 2.499556 0
M  V30 26 O -1.411271 -2.737402 2.743662 0
M  V30 27 H 0.595501 -3.600779 2.146582 0
M  V30 28 H 2.703271 -4.523671 1.891727 0
M  V30 29 H 3.420036 -2.910545 1.665132 0
M  V30 30 H 3.613298 -2.058228 -0.738596 0
M  V30 31 H 3.784457 -2.712058 -3.096183 0
M  V30 32 H 1.948279 -6.476634 -2.136557 0
M  V30 33 H 1.816855 -5.755611 0.155342 0
M  V30 34 H 0.390252 0.914382 1.221282 0
M  V30 35 H 0.219577 2.887403 0.853022 0
M  V30 36 H -0.013544 5.244312 0.445424 0
M  V30 37 H -1.345326 7.255230 1.005447 0
M  V30 38 H -3.679449 2.692441 2.475698 0
M  V30 39 H -3.374764 -1.354847 3.225259 0
M  V30 END ATOM
M  V30 BEGIN BOND
M  V30 1 2 1 2
M  V30 2 1 2 3
M  V30 3 1 3 4
M  V30 4 1 4 5
M  V30 5 2 5 6
M  V30 6 1 6 7
M  V30 7 2 7 8
M  V30 8 1 8 9
M  V30 9 1 8 10
M  V30 10 2 10 11
M  V30 11 1 2 12
M  V30 12 2 12 13
M  V30 13 1 13 14
M  V30 14 1 14 15
M  V30 15 2 15 16
M  V30 16 1 16 17
M  V30 17 2 17 18
M  V30 18 1 18 19
M  V30 19 1 18 20
M  V30 20 1 20 21
M  V30 21 2 20 22
M  V30 22 2 14 23
M  V30 23 1 23 24
M  V30 24 1 24 25
M  V30 25 2 25 26
M  V30 26 1 11 5
M  V30 27 1 25 12
M  V30 28 1 22 15
M  V30 29 1 3 27
M  V30 30 1 4 28
M  V30 31 1 4 29
M  V30 32 1 6 30
M  V30 33 1 7 31
M  V30 34 1 10 32
M  V30 35 1 11 33
M  V30 36 1 13 34
M  V30 37 1 16 35
M  V30 38 1 17 36
M  V30 39 1 19 37
M  V30 40 1 22 38
M  V30 41 1 24 39
M  V30 END BOND
M  V30 END CTAB
M  END
>  <Dataset>  (894) 
ChEMBL_Kinases

>  <Ligand_Instance>  (894) 
nan

>  <PDB_ID>  (894) 
nan

>  <Standardized_SMILES>  (894) 
O=C(NCc1ccc(Cl)cc1)c1cc(-c2ccc(O)c(F)c2)n[nH]c1=O

>  <Name>  (894) 
nan

>  <Pocket>  (894) 
nan

>  <ATP_Site>  (894) 
nan

>  <Peripheral>  (894) 
nan

>  <Num_H_Atoms_ProtBoundConf>  (894) 
nan

>  <Num_Resolved_Atoms>  (894) 
nan

>  <Num_Not_Resolved_Atoms>  (894) 
nan

$$$$
CHEMBL540487
     RDKit          3D

  0  0  0  0  0  0  0  0  0  0999 V3000
M  V30 BEGIN CTAB
M  V30 COUNTS 25 26 0 0 0
M  V30 BEGIN ATOM
M  V30 1 C 0.630813 1.463376 3.152368 0
M  V30 2 C 0.572604 -0.003372 3.025612 0
M  V30 3 N 0.590675 -1.070868 3.846720 0
M  V30 4 N 0.506644 -2.184847 3.148658 0
M  V30 5 C 0.428419 -1.893510 1.816903 0
M  V30 6 C 0.324491 -2.976692 0.801927 0
M  V30 7 C 0.469449 -0.496759 1.719902 0
M  V30 8 C 0.398976 0.042729 0.378228 0
M  V30 9 C 1.433425 0.320147 -0.473634 0
M  V30 10 C 1.237613 0.834341 -1.732984 0
M  V30 11 C -0.087645 1.060926 -2.100568 0
M  V30 12 C -1.172343 0.803162 -1.290374 0
M  V30 13 C -0.908258 0.283182 -0.026835 0
M  V30 14 H 0.832934 1.670894 4.233083 0
M  V30 15 H 1.512670 1.922448 2.622791 0
M  V30 16 H -0.321981 1.974090 2.941495 0
M  V30 17 H 0.512512 -3.078800 3.696767 0
M  V30 18 H 0.628240 -2.613743 -0.207685 0
M  V30 19 H 0.964797 -3.824871 1.121379 0
M  V30 20 H -0.727401 -3.360488 0.802211 0
M  V30 21 H 2.421732 0.106246 -0.086962 0
M  V30 22 H 2.066483 1.046731 -2.390599 0
M  V30 23 H -0.249650 1.466241 -3.092125 0
M  V30 24 H -2.176742 1.010753 -1.658905 0
M  V30 25 H -1.803011 0.094048 0.582588 0
M  V30 END ATOM
M  V30 BEGIN BOND
M  V30 1 1 1 2
M  V30 2 2 2 3
M  V30 3 1 3 4
M  V30 4 1 4 5
M  V30 5 1 5 6
M  V30 6 2 5 7
M  V30 7 1 7 8
M  V30 8 2 8 9
M  V30 9 1 9 10
M  V30 10 2 10 11
M  V30 11 1 11 12
M  V30 12 2 12 13
M  V30 13 1 7 2
M  V30 14 1 13 8
M  V30 15 1 1 14
M  V30 16 1 1 15
M  V30 17 1 1 16
M  V30 18 1 4 17
M  V30 19 1 6 18
M  V30 20 1 6 19
M  V30 21 1 6 20
M  V30 22 1 9 21
M  V30 23 1 10 22
M  V30 24 1 11 23
M  V30 25 1 12 24
M  V30 26 1 13 25
M  V30 END BOND
M  V30 END CTAB
M  END
>  <Dataset>  (895) 
ChEMBL_Kinases

>  <Ligand_Instance>  (895) 
nan

>  <PDB_ID>  (895) 
nan

>  <Standardized_SMILES>  (895) 
Cc1n[nH]c(C)c1-c1ccccc1

>  <Name>  (895) 
nan

>  <Pocket>  (895) 
nan

>  <ATP_Site>  (895) 
nan

>  <Peripheral>  (895) 
nan

>  <Num_H_Atoms_ProtBoundConf>  (895) 
nan

>  <Num_Resolved_Atoms>  (895) 
nan

>  <Num_Not_Resolved_Atoms>  (895) 
nan

$$$$
CHEMBL541229
     RDKit          3D

  0  0  0  0  0  0  0  0  0  0999 V3000
M  V30 BEGIN CTAB
M  V30 COUNTS 23 23 0 0 0
M  V30 BEGIN ATOM
M  V30 1 C -0.034138 2.570450 -0.013247 0
M  V30 2 C 0.166016 1.156678 0.387020 0
M  V30 3 C 1.130017 0.889588 1.342084 0
M  V30 4 C 1.366114 -0.405427 1.758825 0
M  V30 5 C 2.411350 -0.657656 2.788851 0
M  V30 6 C 0.600972 -1.385727 1.178059 0
M  V30 7 N 0.819497 -2.721102 1.584111 0
M  V30 8 C -0.359083 -1.158161 0.232617 0
M  V30 9 C -0.594324 0.145394 -0.184581 0
M  V30 10 C -1.604148 0.496540 -1.195631 0
M  V30 11 H 0.886843 2.911578 -0.550741 0
M  V30 12 H -0.138327 3.157830 0.928519 0
M  V30 13 H -0.897163 2.732279 -0.656862 0
M  V30 14 H 1.705468 1.713777 1.765934 0
M  V30 15 H 2.344441 -1.670731 3.203029 0
M  V30 16 H 2.145470 0.024419 3.648190 0
M  V30 17 H 3.415069 -0.348364 2.476887 0
M  V30 18 H 0.190456 -3.554374 1.560443 0
M  V30 19 H 1.643285 -3.207399 2.001336 0
M  V30 20 H -0.962042 -1.915492 -0.227317 0
M  V30 21 H -1.214427 1.012775 -2.084707 0
M  V30 22 H -2.086719 -0.443390 -1.579303 0
M  V30 23 H -2.419981 1.133358 -0.754401 0
M  V30 END ATOM
M  V30 BEGIN BOND
M  V30 1 1 1 2
M  V30 2 2 2 3
M  V30 3 1 3 4
M  V30 4 1 4 5
M  V30 5 2 4 6
M  V30 6 1 6 7
M  V30 7 1 6 8
M  V30 8 2 8 9
M  V30 9 1 9 10
M  V30 10 1 9 2
M  V30 11 1 1 11
M  V30 12 1 1 12
M  V30 13 1 1 13
M  V30 14 1 3 14
M  V30 15 1 5 15
M  V30 16 1 5 16
M  V30 17 1 5 17
M  V30 18 1 7 18
M  V30 19 1 7 19
M  V30 20 1 8 20
M  V30 21 1 10 21
M  V30 22 1 10 22
M  V30 23 1 10 23
M  V30 END BOND
M  V30 END CTAB
M  END
>  <Dataset>  (896) 
ChEMBL_Kinases

>  <Ligand_Instance>  (896) 
nan

>  <PDB_ID>  (896) 
nan

>  <Standardized_SMILES>  (896) 
Cc1cc(C)c(N)cc1C

>  <Name>  (896) 
nan

>  <Pocket>  (896) 
nan

>  <ATP_Site>  (896) 
nan

>  <Peripheral>  (896) 
nan

>  <Num_H_Atoms_ProtBoundConf>  (896) 
nan

>  <Num_Resolved_Atoms>  (896) 
nan

>  <Num_Not_Resolved_Atoms>  (896) 
nan

$$$$
CHEMBL541448
     RDKit          3D

  0  0  0  0  0  0  0  0  0  0999 V3000
M  V30 BEGIN CTAB
M  V30 COUNTS 46 49 0 0 0
M  V30 BEGIN ATOM
M  V30 1 C 0.204984 -4.968855 -1.507493 0
M  V30 2 O 0.348473 -3.583820 -1.610886 0
M  V30 3 C 1.587182 -2.968609 -1.577542 0
M  V30 4 C 2.759491 -3.672877 -1.440970 0
M  V30 5 C 3.924569 -2.935079 -1.422622 0
M  V30 6 C 3.894270 -1.548905 -1.537645 0
M  V30 7 C 2.687825 -0.845593 -1.676236 0
M  V30 8 C 2.939561 0.599888 -1.791850 0
M  V30 9 O 3.073033 1.311866 -0.623735 0
M  V30 10 C 2.255457 1.547207 0.432846 0
M  V30 11 C 2.962639 2.353492 1.338308 0
M  V30 12 C 2.346256 2.752206 2.532893 0
M  V30 13 C 1.052686 2.289785 2.700032 0
M  V30 14 S -0.110089 2.590406 4.143230 0
M  V30 15 C -1.432909 1.634516 3.444215 0
M  V30 16 C -0.963707 1.147482 2.202212 0
M  V30 17 C 0.308162 1.503974 1.859996 0
M  V30 18 C 0.979588 1.156421 0.714838 0
M  V30 19 N -1.816285 0.340798 1.401031 0
M  V30 20 C -3.280991 0.271773 1.392915 0
M  V30 21 C -3.837837 -0.290156 2.672086 0 CFG=1
M  V30 22 C -3.118424 -1.561051 2.980920 0
M  V30 23 N -3.816499 0.683163 3.752040 0
M  V30 24 C -2.680181 1.486610 4.143106 0
M  V30 25 O -2.756540 2.146914 5.214699 0
M  V30 26 C 1.551324 -1.602249 -1.691505 0
M  V30 27 H 0.959626 -5.555365 -2.093492 0
M  V30 28 H -0.796256 -5.303086 -1.847069 0
M  V30 29 H 0.323755 -5.290608 -0.450193 0
M  V30 30 H 2.681191 -4.744598 -1.358732 0
M  V30 31 H 4.839455 -3.501123 -1.314856 0
M  V30 32 H 4.903205 -1.113193 -1.505197 0
M  V30 33 H 3.834092 0.821490 -2.427475 0
M  V30 34 H 2.017381 1.013310 -2.315105 0
M  V30 35 H 3.978713 2.755745 1.277319 0
M  V30 36 H 2.755011 3.357046 3.306249 0
M  V30 37 H 0.545948 0.546709 -0.057994 0
M  V30 38 H -1.307731 -0.296343 0.715314 0
M  V30 39 H -3.643009 1.311040 1.321642 0
M  V30 40 H -3.579570 -0.358310 0.545050 0
M  V30 41 H -4.896642 -0.532907 2.479646 0
M  V30 42 H -3.110890 -1.860252 4.037298 0
M  V30 43 H -3.602997 -2.414652 2.426325 0
M  V30 44 H -2.069318 -1.558901 2.577204 0
M  V30 45 H -4.677825 0.858244 4.333307 0
M  V30 46 H 0.672115 -1.020022 -1.806223 0
M  V30 END ATOM
M  V30 BEGIN BOND
M  V30 1 1 1 2
M  V30 2 1 2 3
M  V30 3 2 3 4
M  V30 4 1 4 5
M  V30 5 2 5 6
M  V30 6 1 6 7
M  V30 7 1 7 8
M  V30 8 1 8 9
M  V30 9 1 9 10
M  V30 10 2 10 11
M  V30 11 1 11 12
M  V30 12 2 12 13
M  V30 13 1 13 14
M  V30 14 1 14 15
M  V30 15 2 15 16
M  V30 16 1 16 17
M  V30 17 2 17 18
M  V30 18 1 16 19
M  V30 19 1 19 20
M  V30 20 1 20 21
M  V30 21 1 21 22
M  V30 22 1 21 23
M  V30 23 1 23 24
M  V30 24 2 24 25
M  V30 25 2 7 26
M  V30 26 1 26 3
M  V30 27 1 18 10
M  V30 28 1 17 13
M  V30 29 1 24 15
M  V30 30 1 1 27
M  V30 31 1 1 28
M  V30 32 1 1 29
M  V30 33 1 4 30
M  V30 34 1 5 31
M  V30 35 1 6 32
M  V30 36 1 8 33
M  V30 37 1 8 34
M  V30 38 1 11 35
M  V30 39 1 12 36
M  V30 40 1 18 37
M  V30 41 1 19 38
M  V30 42 1 20 39
M  V30 43 1 20 40
M  V30 44 1 21 41 CFG=3
M  V30 45 1 22 42
M  V30 46 1 22 43
M  V30 47 1 22 44
M  V30 48 1 23 45
M  V30 49 1 26 46
M  V30 END BOND
M  V30 END CTAB
M  END
>  <Dataset>  (897) 
ChEMBL_Kinases

>  <Ligand_Instance>  (897) 
nan

>  <PDB_ID>  (897) 
nan

>  <Standardized_SMILES>  (897) 
COc1cccc(COc2ccc3sc4c(c3c2)NC[C@@H](C)NC4=O)c1

>  <Name>  (897) 
nan

>  <Pocket>  (897) 
nan

>  <ATP_Site>  (897) 
nan

>  <Peripheral>  (897) 
nan

>  <Num_H_Atoms_ProtBoundConf>  (897) 
nan

>  <Num_Resolved_Atoms>  (897) 
nan

>  <Num_Not_Resolved_Atoms>  (897) 
nan

$$$$
CHEMBL541759
     RDKit          3D

  0  0  0  0  0  0  0  0  0  0999 V3000
M  V30 BEGIN CTAB
M  V30 COUNTS 47 50 0 0 0
M  V30 BEGIN ATOM
M  V30 1 C 3.844630 -1.421686 3.740334 0
M  V30 2 C 4.158747 -0.958465 2.333443 0
M  V30 3 C 4.559359 -2.187226 1.542024 0
M  V30 4 C 5.344449 -0.037467 2.354880 0
M  V30 5 O 5.460195 1.150185 1.941349 0
M  V30 6 O 6.485344 -0.599712 2.923825 0
M  V30 7 C 3.049933 -0.225456 1.710747 0
M  V30 8 C 2.765050 1.078713 2.055352 0
M  V30 9 C 1.710177 1.771948 1.460310 0
M  V30 10 C 0.909876 1.154904 0.491776 0
M  V30 11 C -0.206532 1.823308 -0.170010 0
M  V30 12 C -0.277984 3.103068 -0.723744 0
M  V30 13 N -1.523746 3.299786 -1.238031 0
M  V30 14 C -2.267266 2.194484 -1.039523 0
M  V30 15 N -3.546015 1.962084 -1.388109 0
M  V30 16 C -4.109756 0.777033 -1.094311 0
M  V30 17 C -3.386318 -0.208738 -0.435303 0
M  V30 18 C -3.982947 -1.519287 -0.103651 0
M  V30 19 C -4.949593 -2.038492 -0.968622 0
M  V30 20 C -5.512739 -3.275744 -0.655950 0
M  V30 21 C -5.148485 -4.003730 0.476653 0
M  V30 22 C -4.189613 -3.402031 1.258894 0
M  V30 23 C -3.574653 -2.189173 1.038428 0
M  V30 24 C -2.077989 0.088407 -0.103140 0
M  V30 25 C -1.456681 1.277796 -0.378829 0
M  V30 26 C 1.243553 -0.160000 0.184433 0
M  V30 27 C 2.289275 -0.851572 0.772309 0
M  V30 28 H 4.782706 -1.605350 4.313617 0
M  V30 29 H 3.165296 -0.722592 4.269504 0
M  V30 30 H 3.290821 -2.402228 3.712577 0
M  V30 31 H 4.589097 -1.998472 0.443197 0
M  V30 32 H 3.950028 -3.067846 1.819222 0
M  V30 33 H 5.614670 -2.405887 1.841447 0
M  V30 34 H 7.242860 0.002728 3.215749 0
M  V30 35 H 3.338723 1.622582 2.795997 0
M  V30 36 H 1.442750 2.798699 1.694855 0
M  V30 37 H 0.603836 3.744032 -0.682471 0
M  V30 38 H -1.735896 4.223455 -1.693406 0
M  V30 39 H -5.131556 0.481219 -1.327478 0
M  V30 40 H -5.257592 -1.500804 -1.858247 0
M  V30 41 H -6.270049 -3.677864 -1.337695 0
M  V30 42 H -5.583073 -4.960817 0.719750 0
M  V30 43 H -3.907545 -3.982363 2.150696 0
M  V30 44 H -2.827859 -1.796933 1.714845 0
M  V30 45 H -1.508812 -0.685705 0.415500 0
M  V30 46 H 0.677004 -0.731056 -0.563396 0
M  V30 47 H 2.504405 -1.882003 0.491796 0
M  V30 END ATOM
M  V30 BEGIN BOND
M  V30 1 1 1 2
M  V30 2 1 2 3
M  V30 3 1 2 4
M  V30 4 2 4 5
M  V30 5 1 4 6
M  V30 6 1 2 7
M  V30 7 2 7 8
M  V30 8 1 8 9
M  V30 9 2 9 10
M  V30 10 1 10 11
M  V30 11 2 11 12
M  V30 12 1 12 13
M  V30 13 1 13 14
M  V30 14 2 14 15
M  V30 15 1 15 16
M  V30 16 2 16 17
M  V30 17 1 17 18
M  V30 18 2 18 19
M  V30 19 1 19 20
M  V30 20 2 20 21
M  V30 21 1 21 22
M  V30 22 2 22 23
M  V30 23 1 17 24
M  V30 24 2 24 25
M  V30 25 1 10 26
M  V30 26 2 26 27
M  V30 27 1 27 7
M  V30 28 1 25 11
M  V30 29 1 25 14
M  V30 30 1 23 18
M  V30 31 1 1 28
M  V30 32 1 1 29
M  V30 33 1 1 30
M  V30 34 1 3 31
M  V30 35 1 3 32
M  V30 36 1 3 33
M  V30 37 1 6 34
M  V30 38 1 8 35
M  V30 39 1 9 36
M  V30 40 1 12 37
M  V30 41 1 13 38
M  V30 42 1 16 39
M  V30 43 1 19 40
M  V30 44 1 20 41
M  V30 45 1 21 42
M  V30 46 1 22 43
M  V30 47 1 23 44
M  V30 48 1 24 45
M  V30 49 1 26 46
M  V30 50 1 27 47
M  V30 END BOND
M  V30 END CTAB
M  END
>  <Dataset>  (898) 
ChEMBL_Kinases

>  <Ligand_Instance>  (898) 
nan

>  <PDB_ID>  (898) 
nan

>  <Standardized_SMILES>  (898) 
CC(C)(C(=O)O)c1ccc(-c2c[nH]c3ncc(-c4ccccc4)cc23)cc1

>  <Name>  (898) 
nan

>  <Pocket>  (898) 
nan

>  <ATP_Site>  (898) 
nan

>  <Peripheral>  (898) 
nan

>  <Num_H_Atoms_ProtBoundConf>  (898) 
nan

>  <Num_Resolved_Atoms>  (898) 
nan

>  <Num_Not_Resolved_Atoms>  (898) 
nan

$$$$
CHEMBL541777
     RDKit          3D

  0  0  0  0  0  0  0  0  0  0999 V3000
M  V30 BEGIN CTAB
M  V30 COUNTS 36 39 0 0 0
M  V30 BEGIN ATOM
M  V30 1 C 1.052630 -6.285806 3.313219 0
M  V30 2 C 1.684560 -5.166454 2.566191 0
M  V30 3 C 3.069882 -5.147002 2.532017 0
M  V30 4 S 3.411150 -3.588883 1.500348 0
M  V30 5 C 1.606828 -3.297989 1.336927 0
M  V30 6 C 0.850165 -2.174192 0.609761 0
M  V30 7 N 0.994468 -0.939921 1.057414 0
M  V30 8 C 0.347286 0.101231 0.451191 0
M  V30 9 N 0.562787 1.376218 0.997693 0
M  V30 10 C 0.289782 2.731341 0.894070 0
M  V30 11 C 1.075366 3.497348 0.054734 0
M  V30 12 C 0.919666 4.861740 -0.160127 0
M  V30 13 N -0.076511 5.444281 0.513461 0
M  V30 14 C -0.890451 4.792221 1.347748 0
M  V30 15 C -0.720162 3.429458 1.550148 0
M  V30 16 C -0.442732 -0.218213 -0.626987 0
M  V30 17 C -1.109299 0.807054 -1.256119 0
M  V30 18 C -1.923200 0.568184 -2.343355 0
M  V30 19 C -2.074801 -0.721519 -2.812902 0
M  V30 20 C -1.409852 -1.782170 -2.193005 0
M  V30 21 C -0.607086 -1.500048 -1.109976 0
M  V30 22 N 0.073311 -2.444770 -0.441621 0
M  V30 23 N 1.121921 -4.173724 1.921081 0
M  V30 24 H 1.523193 -7.263130 3.029857 0
M  V30 25 H 1.189653 -6.197835 4.401602 0
M  V30 26 H -0.017362 -6.395840 3.066554 0
M  V30 27 H 3.842557 -5.851596 2.983909 0
M  V30 28 H 1.160975 1.498538 1.840198 0
M  V30 29 H 1.883678 3.024595 -0.492068 0
M  V30 30 H 1.585756 5.384744 -0.841173 0
M  V30 31 H -1.706524 5.286575 1.895628 0
M  V30 32 H -1.344843 2.829129 2.214852 0
M  V30 33 H -1.030794 1.830159 -0.931808 0
M  V30 34 H -2.468002 1.372924 -2.864625 0
M  V30 35 H -2.699578 -1.002914 -3.667853 0
M  V30 36 H -1.510751 -2.810603 -2.542001 0
M  V30 END ATOM
M  V30 BEGIN BOND
M  V30 1 1 1 2
M  V30 2 2 2 3
M  V30 3 1 3 4
M  V30 4 1 4 5
M  V30 5 1 5 6
M  V30 6 2 6 7
M  V30 7 1 7 8
M  V30 8 1 8 9
M  V30 9 1 9 10
M  V30 10 2 10 11
M  V30 11 1 11 12
M  V30 12 2 12 13
M  V30 13 1 13 14
M  V30 14 2 14 15
M  V30 15 2 8 16
M  V30 16 1 16 17
M  V30 17 2 17 18
M  V30 18 1 18 19
M  V30 19 2 19 20
M  V30 20 1 20 21
M  V30 21 2 21 22
M  V30 22 2 5 23
M  V30 23 1 23 2
M  V30 24 1 22 6
M  V30 25 1 15 10
M  V30 26 1 21 16
M  V30 27 1 1 24
M  V30 28 1 1 25
M  V30 29 1 1 26
M  V30 30 1 3 27
M  V30 31 1 9 28
M  V30 32 1 11 29
M  V30 33 1 12 30
M  V30 34 1 14 31
M  V30 35 1 15 32
M  V30 36 1 17 33
M  V30 37 1 18 34
M  V30 38 1 19 35
M  V30 39 1 20 36
M  V30 END BOND
M  V30 END CTAB
M  END
>  <Dataset>  (899) 
ChEMBL_Kinases

>  <Ligand_Instance>  (899) 
nan

>  <PDB_ID>  (899) 
nan

>  <Standardized_SMILES>  (899) 
Cc1csc(-c2nc(Nc3ccncc3)c3ccccc3n2)n1

>  <Name>  (899) 
nan

>  <Pocket>  (899) 
nan

>  <ATP_Site>  (899) 
nan

>  <Peripheral>  (899) 
nan

>  <Num_H_Atoms_ProtBoundConf>  (899) 
nan

>  <Num_Resolved_Atoms>  (899) 
nan

>  <Num_Not_Resolved_Atoms>  (899) 
nan

$$$$
CHEMBL54547
     RDKit          3D

  0  0  0  0  0  0  0  0  0  0999 V3000
M  V30 BEGIN CTAB
M  V30 COUNTS 39 42 0 0 0
M  V30 BEGIN ATOM
M  V30 1 C -0.398626 -4.572052 2.853390 0
M  V30 2 N -0.111213 -3.195336 2.496337 0
M  V30 3 C 1.051957 -2.571525 2.367363 0
M  V30 4 C 0.901895 -1.240486 2.005431 0
M  V30 5 C 1.938221 -0.237003 1.791204 0
M  V30 6 C 2.121977 0.630787 0.779799 0
M  V30 7 C 1.303161 0.800506 -0.416408 0
M  V30 8 C 0.889156 -0.438093 -0.913117 0
M  V30 9 C 0.100668 -0.546687 -2.032171 0
M  V30 10 C -0.266650 0.623710 -2.646677 0
M  V30 11 C 0.143172 1.848108 -2.154326 0
M  V30 12 N -0.245021 3.053974 -2.798177 0
M  V30 13 C 0.926516 1.965671 -1.044002 0
M  V30 14 C 3.298160 1.457548 0.985567 0
M  V30 15 O 3.768311 2.365828 0.250661 0
M  V30 16 N 3.904305 1.082368 2.222180 0
M  V30 17 C 3.072355 0.053570 2.704051 0
M  V30 18 O 3.194238 -0.607306 3.784216 0
M  V30 19 C -0.481989 -1.140346 1.933944 0
M  V30 20 C -1.298053 -0.060074 1.630324 0
M  V30 21 C -2.672424 -0.128183 1.613073 0
M  V30 22 C -3.297346 -1.299181 1.904085 0
M  V30 23 C -2.487700 -2.394076 2.212804 0
M  V30 24 C -1.115292 -2.325895 2.230455 0
M  V30 25 H -0.902744 -4.557133 3.839334 0
M  V30 26 H 0.540370 -5.142964 2.917801 0
M  V30 27 H -1.104796 -4.999459 2.083410 0
M  V30 28 H 2.028561 -3.048979 2.529027 0
M  V30 29 H 1.148274 -1.413589 -0.468165 0
M  V30 30 H -0.225033 -1.508046 -2.425300 0
M  V30 31 H -0.882432 0.578668 -3.523625 0
M  V30 32 H -0.465254 3.015362 -3.809070 0
M  V30 33 H -0.326833 3.977803 -2.334027 0
M  V30 34 H 1.302845 2.862722 -0.574973 0
M  V30 35 H 4.758709 1.480845 2.657306 0
M  V30 36 H -0.884378 0.907826 1.394952 0
M  V30 37 H -3.275918 0.748050 1.367181 0
M  V30 38 H -4.382148 -1.350624 1.889643 0
M  V30 39 H -2.982035 -3.317115 2.442613 0
M  V30 END ATOM
M  V30 BEGIN BOND
M  V30 1 1 1 2
M  V30 2 1 2 3
M  V30 3 2 3 4
M  V30 4 1 4 5
M  V30 5 2 5 6
M  V30 6 1 6 7
M  V30 7 2 7 8
M  V30 8 1 8 9
M  V30 9 2 9 10
M  V30 10 1 10 11
M  V30 11 1 11 12
M  V30 12 2 11 13
M  V30 13 1 6 14
M  V30 14 2 14 15
M  V30 15 1 14 16
M  V30 16 1 16 17
M  V30 17 2 17 18
M  V30 18 1 4 19
M  V30 19 2 19 20
M  V30 20 1 20 21
M  V30 21 2 21 22
M  V30 22 1 22 23
M  V30 23 2 23 24
M  V30 24 1 24 2
M  V30 25 1 17 5
M  V30 26 1 24 19
M  V30 27 1 13 7
M  V30 28 1 1 25
M  V30 29 1 1 26
M  V30 30 1 1 27
M  V30 31 1 3 28
M  V30 32 1 8 29
M  V30 33 1 9 30
M  V30 34 1 10 31
M  V30 35 1 12 32
M  V30 36 1 12 33
M  V30 37 1 13 34
M  V30 38 1 16 35
M  V30 39 1 20 36
M  V30 40 1 21 37
M  V30 41 1 22 38
M  V30 42 1 23 39
M  V30 END BOND
M  V30 END CTAB
M  END
>  <Dataset>  (900) 
ChEMBL_Kinases

>  <Ligand_Instance>  (900) 
nan

>  <PDB_ID>  (900) 
nan

>  <Standardized_SMILES>  (900) 
Cn1cc(C2=C(c3cccc(N)c3)C(=O)NC2=O)c2ccccc21

>  <Name>  (900) 
nan

>  <Pocket>  (900) 
nan

>  <ATP_Site>  (900) 
nan

>  <Peripheral>  (900) 
nan

>  <Num_H_Atoms_ProtBoundConf>  (900) 
nan

>  <Num_Resolved_Atoms>  (900) 
nan

>  <Num_Not_Resolved_Atoms>  (900) 
nan

$$$$
CHEMBL545839
     RDKit          3D

  0  0  0  0  0  0  0  0  0  0999 V3000
M  V30 BEGIN CTAB
M  V30 COUNTS 54 57 0 0 0
M  V30 BEGIN ATOM
M  V30 1 C 2.556489 3.253292 2.912391 0
M  V30 2 N 3.633679 2.252459 2.894032 0
M  V30 3 C 3.925094 1.722447 1.607622 0
M  V30 4 O 3.142801 2.283156 0.804863 0
M  V30 5 C 4.958805 0.730079 1.428094 0
M  V30 6 C 5.720387 0.358725 2.500206 0
M  V30 7 C 6.735980 -0.559484 2.346982 0
M  V30 8 C 7.041298 -1.149506 1.125432 0
M  V30 9 C 6.254196 -0.759890 0.042822 0
M  V30 10 C 5.224784 0.170337 0.199718 0
M  V30 11 N 4.508111 0.478274 -0.965258 0
M  V30 12 C 3.137558 0.276177 -1.295844 0
M  V30 13 N 2.279384 -0.362986 -0.511505 0
M  V30 14 C 0.981564 -0.592068 -0.752029 0
M  V30 15 N 0.215030 -1.305768 0.208783 0
M  V30 16 C -1.143431 -1.635124 0.154561 0
M  V30 17 C -2.028454 -1.241424 -0.849307 0
M  V30 18 C -3.371004 -1.588992 -0.883020 0
M  V30 19 C -3.903072 -2.369365 0.116600 0
M  V30 20 N -5.273721 -2.743180 0.118767 0
M  V30 21 C -6.278149 -2.267408 -0.813923 0
M  V30 22 C -7.298472 -1.531757 0.041860 0
M  V30 23 O -7.819038 -2.392738 0.973860 0
M  V30 24 C -6.884618 -2.898484 1.864508 0
M  V30 25 C -5.855412 -3.671903 1.070269 0
M  V30 26 C -3.053698 -2.768778 1.114295 0
M  V30 27 C -1.730543 -2.403834 1.112007 0
M  V30 28 N 0.560786 -0.103700 -1.917465 0
M  V30 29 C 1.343861 0.554817 -2.778753 0
M  V30 30 C 2.672847 0.768781 -2.493264 0
M  V30 31 Cl 3.675861 1.631979 -3.636914 0
M  V30 32 H 1.694284 2.765823 2.404996 0
M  V30 33 H 2.286615 3.537889 3.962133 0
M  V30 34 H 2.809527 4.147527 2.301416 0
M  V30 35 H 4.118385 1.982780 3.779726 0
M  V30 36 H 5.633447 0.704631 3.512694 0
M  V30 37 H 7.372330 -0.894333 3.150629 0
M  V30 38 H 7.851408 -1.879100 1.012175 0
M  V30 39 H 6.486105 -1.216568 -0.921158 0
M  V30 40 H 5.152365 0.922184 -1.653679 0
M  V30 41 H 0.729143 -1.624938 1.064240 0
M  V30 42 H -1.673153 -0.626437 -1.661395 0
M  V30 43 H -3.965358 -1.224960 -1.713315 0
M  V30 44 H -5.913220 -1.672744 -1.642127 0
M  V30 45 H -6.794904 -3.182375 -1.222197 0
M  V30 46 H -8.114868 -1.109027 -0.545081 0
M  V30 47 H -6.731501 -0.714871 0.557462 0
M  V30 48 H -6.426129 -2.071928 2.430835 0
M  V30 49 H -7.420694 -3.615026 2.522582 0
M  V30 50 H -5.159181 -4.231316 1.678045 0
M  V30 51 H -6.426083 -4.442430 0.478741 0
M  V30 52 H -3.370954 -3.379141 1.941833 0
M  V30 53 H -1.091666 -2.753213 1.939611 0
M  V30 54 H 0.916160 0.919986 -3.709856 0
M  V30 END ATOM
M  V30 BEGIN BOND
M  V30 1 1 1 2
M  V30 2 1 2 3
M  V30 3 2 3 4
M  V30 4 1 3 5
M  V30 5 2 5 6
M  V30 6 1 6 7
M  V30 7 2 7 8
M  V30 8 1 8 9
M  V30 9 2 9 10
M  V30 10 1 10 11
M  V30 11 1 11 12
M  V30 12 2 12 13
M  V30 13 1 13 14
M  V30 14 1 14 15
M  V30 15 1 15 16
M  V30 16 2 16 17
M  V30 17 1 17 18
M  V30 18 2 18 19
M  V30 19 1 19 20
M  V30 20 1 20 21
M  V30 21 1 21 22
M  V30 22 1 22 23
M  V30 23 1 23 24
M  V30 24 1 24 25
M  V30 25 1 19 26
M  V30 26 2 26 27
M  V30 27 2 14 28
M  V30 28 1 28 29
M  V30 29 2 29 30
M  V30 30 1 30 31
M  V30 31 1 10 5
M  V30 32 1 30 12
M  V30 33 1 27 16
M  V30 34 1 25 20
M  V30 35 1 1 32
M  V30 36 1 1 33
M  V30 37 1 1 34
M  V30 38 1 2 35
M  V30 39 1 6 36
M  V30 40 1 7 37
M  V30 41 1 8 38
M  V30 42 1 9 39
M  V30 43 1 11 40
M  V30 44 1 15 41
M  V30 45 1 17 42
M  V30 46 1 18 43
M  V30 47 1 21 44
M  V30 48 1 21 45
M  V30 49 1 22 46
M  V30 50 1 22 47
M  V30 51 1 24 48
M  V30 52 1 24 49
M  V30 53 1 25 50
M  V30 54 1 25 51
M  V30 55 1 26 52
M  V30 56 1 27 53
M  V30 57 1 29 54
M  V30 END BOND
M  V30 END CTAB
M  END
>  <Dataset>  (901) 
ChEMBL_Kinases

>  <Ligand_Instance>  (901) 
nan

>  <PDB_ID>  (901) 
nan

>  <Standardized_SMILES>  (901) 
CNC(=O)c1ccccc1Nc1nc(Nc2ccc(N3CCOCC3)cc2)ncc1Cl

>  <Name>  (901) 
nan

>  <Pocket>  (901) 
nan

>  <ATP_Site>  (901) 
nan

>  <Peripheral>  (901) 
nan

>  <Num_H_Atoms_ProtBoundConf>  (901) 
nan

>  <Num_Resolved_Atoms>  (901) 
nan

>  <Num_Not_Resolved_Atoms>  (901) 
nan

$$$$
CHEMBL546682
     RDKit          3D

  0  0  0  0  0  0  0  0  0  0999 V3000
M  V30 BEGIN CTAB
M  V30 COUNTS 44 47 0 0 0
M  V30 BEGIN ATOM
M  V30 1 C 4.735811 -4.633220 -1.305023 0
M  V30 2 S 4.922733 -3.099980 -2.211977 0
M  V30 3 O 6.083629 -2.384707 -1.561234 0
M  V30 4 O 5.122753 -3.329233 -3.663448 0
M  V30 5 C 3.476248 -2.167304 -1.881179 0
M  V30 6 C 2.375844 -2.328394 -2.730807 0
M  V30 7 C 1.209944 -1.616731 -2.515031 0
M  V30 8 C 1.166830 -0.742034 -1.434003 0
M  V30 9 C 2.258971 -0.580582 -0.588762 0
M  V30 10 C 2.081754 0.370902 0.510694 0
M  V30 11 C 3.107422 1.132292 1.056056 0
M  V30 12 N 2.875115 1.991646 2.069880 0
M  V30 13 C 1.633395 2.159814 2.611137 0
M  V30 14 N 1.156201 2.932265 3.599006 0
M  V30 15 C -0.171221 2.707125 3.731143 0
M  V30 16 C -0.582289 1.757252 2.802223 0
M  V30 17 C -1.926574 1.228215 2.606044 0
M  V30 18 C -3.065142 2.006213 2.559325 0
M  V30 19 C -4.303162 1.407600 2.368587 0
M  V30 20 C -4.461927 0.048457 2.219892 0
M  V30 21 C -5.778302 -0.545068 2.021077 0
M  V30 22 O -6.789474 0.196449 1.984447 0
M  V30 23 O -5.879936 -1.922597 1.876599 0
M  V30 24 C -3.326764 -0.732183 2.266004 0
M  V30 25 C -2.085971 -0.133882 2.457015 0
M  V30 26 C 0.562187 1.431214 2.115067 0
M  V30 27 C 0.833944 0.561614 1.078523 0
M  V30 28 C 3.417221 -1.295962 -0.813721 0
M  V30 29 H 4.289697 -4.389546 -0.318766 0
M  V30 30 H 5.725763 -5.099313 -1.088829 0
M  V30 31 H 4.043624 -5.321792 -1.833535 0
M  V30 32 H 2.424070 -3.019022 -3.576100 0
M  V30 33 H 0.397978 -1.784389 -3.203670 0
M  V30 34 H 0.201479 -0.240433 -1.366139 0
M  V30 35 H 4.101096 1.013570 0.640342 0
M  V30 36 H 1.730310 3.605938 4.176900 0
M  V30 37 H -0.806298 3.214897 4.472569 0
M  V30 38 H -2.932215 3.077358 2.677333 0
M  V30 39 H -5.176374 2.055370 2.337646 0
M  V30 40 H -6.763956 -2.364911 1.605862 0
M  V30 41 H -3.477751 -1.794990 2.146903 0
M  V30 42 H -1.290087 -0.859186 2.472636 0
M  V30 43 H 0.035520 -0.028097 0.656721 0
M  V30 44 H 4.245792 -1.155455 -0.149820 0
M  V30 END ATOM
M  V30 BEGIN BOND
M  V30 1 1 1 2
M  V30 2 2 2 3
M  V30 3 2 2 4
M  V30 4 1 2 5
M  V30 5 2 5 6
M  V30 6 1 6 7
M  V30 7 2 7 8
M  V30 8 1 8 9
M  V30 9 1 9 10
M  V30 10 2 10 11
M  V30 11 1 11 12
M  V30 12 2 12 13
M  V30 13 1 13 14
M  V30 14 1 14 15
M  V30 15 2 15 16
M  V30 16 1 16 17
M  V30 17 2 17 18
M  V30 18 1 18 19
M  V30 19 2 19 20
M  V30 20 1 20 21
M  V30 21 2 21 22
M  V30 22 1 21 23
M  V30 23 1 20 24
M  V30 24 2 24 25
M  V30 25 1 16 26
M  V30 26 2 26 27
M  V30 27 2 9 28
M  V30 28 1 28 5
M  V30 29 1 27 10
M  V30 30 1 26 13
M  V30 31 1 25 17
M  V30 32 1 1 29
M  V30 33 1 1 30
M  V30 34 1 1 31
M  V30 35 1 6 32
M  V30 36 1 7 33
M  V30 37 1 8 34
M  V30 38 1 11 35
M  V30 39 1 14 36
M  V30 40 1 15 37
M  V30 41 1 18 38
M  V30 42 1 19 39
M  V30 43 1 23 40
M  V30 44 1 24 41
M  V30 45 1 25 42
M  V30 46 1 27 43
M  V30 47 1 28 44
M  V30 END BOND
M  V30 END CTAB
M  END
>  <Dataset>  (902) 
ChEMBL_Kinases

>  <Ligand_Instance>  (902) 
nan

>  <PDB_ID>  (902) 
nan

>  <Standardized_SMILES>  (902) 
CS(=O)(=O)c1cccc(-c2cnc3[nH]cc(-c4ccc(C(=O)O)cc4)c3c2)c1

>  <Name>  (902) 
nan

>  <Pocket>  (902) 
nan

>  <ATP_Site>  (902) 
nan

>  <Peripheral>  (902) 
nan

>  <Num_H_Atoms_ProtBoundConf>  (902) 
nan

>  <Num_Resolved_Atoms>  (902) 
nan

>  <Num_Not_Resolved_Atoms>  (902) 
nan

$$$$
CHEMBL548
     RDKit          3D

  0  0  0  0  0  0  0  0  0  0999 V3000
M  V30 BEGIN CTAB
M  V30 COUNTS 57 57 0 0 0
M  V30 BEGIN ATOM
M  V30 1 C 0.025996 -2.852206 6.848162 0
M  V30 2 C 0.436093 -1.647972 5.950491 0
M  V30 3 C -0.552499 -0.548522 6.093484 0
M  V30 4 C -0.361872 0.724108 5.398866 0
M  V30 5 C -0.297519 0.840101 3.943435 0
M  V30 6 C 0.793793 0.173112 3.176957 0 CFG=2
M  V30 7 O 2.063977 0.603209 3.571456 0
M  V30 8 C 0.558664 0.674888 1.736528 0
M  V30 9 C 1.501790 0.622223 0.822656 0
M  V30 10 C 1.329902 1.081950 -0.547544 0 CFG=1
M  V30 11 C 2.309502 2.071014 -1.072027 0 CFG=2
M  V30 12 O 2.213599 3.318761 -0.469110 0
M  V30 13 C 1.822086 2.138407 -2.528168 0
M  V30 14 C 1.584654 0.685903 -2.806469 0
M  V30 15 O 1.438228 0.245863 -3.954968 0
M  V30 16 C 1.559780 -0.075159 -1.530438 0 CFG=2
M  V30 17 C 0.352907 -0.941857 -1.356872 0
M  V30 18 C 0.308318 -2.145137 -2.191871 0
M  V30 19 C -0.604984 -2.491098 -3.102542 0
M  V30 20 C -1.819270 -1.763419 -3.521948 0
M  V30 21 C -3.080517 -2.561688 -3.281497 0
M  V30 22 C -3.098454 -3.856364 -4.020384 0
M  V30 23 C -3.006365 -3.726854 -5.483968 0
M  V30 24 O -2.914601 -2.722133 -6.238254 0
M  V30 25 O -3.022564 -4.931527 -6.176840 0
M  V30 26 H -1.078479 -2.915634 6.763287 0
M  V30 27 H 0.463360 -3.783311 6.478305 0
M  V30 28 H 0.230680 -2.618567 7.909618 0
M  V30 29 H 1.467756 -1.372590 6.214361 0
M  V30 30 H 0.370157 -2.117787 4.929736 0
M  V30 31 H -1.603425 -0.956541 5.877564 0
M  V30 32 H -0.644069 -0.370423 7.222953 0
M  V30 33 H -1.247984 1.385482 5.726771 0
M  V30 34 H 0.492340 1.308960 5.902610 0
M  V30 35 H -0.336505 1.920592 3.608975 0
M  V30 36 H -1.270543 0.403832 3.526455 0
M  V30 37 H 0.786045 -0.912866 3.163516 0
M  V30 38 H 2.132912 0.527947 4.544778 0
M  V30 39 H -0.391915 1.103656 1.374998 0
M  V30 40 H 2.479399 0.217771 1.069811 0
M  V30 41 H 0.318614 1.450557 -0.797728 0
M  V30 42 H 3.343918 1.693710 -1.120881 0
M  V30 43 H 3.071867 3.795231 -0.486254 0
M  V30 44 H 0.831533 2.628453 -2.521447 0
M  V30 45 H 2.564192 2.582859 -3.199521 0
M  V30 46 H 2.509991 -0.592152 -1.302134 0
M  V30 47 H -0.536495 -0.291847 -1.446987 0
M  V30 48 H 0.362534 -1.276488 -0.293872 0
M  V30 49 H 1.147335 -2.832306 -2.024940 0
M  V30 50 H -0.503716 -3.428443 -3.651714 0
M  V30 51 H -1.802086 -1.485038 -4.596847 0
M  V30 52 H -1.829653 -0.798506 -2.977848 0
M  V30 53 H -3.977911 -1.983276 -3.578816 0
M  V30 54 H -3.215299 -2.796148 -2.205748 0
M  V30 55 H -4.052955 -4.374928 -3.795819 0
M  V30 56 H -2.298249 -4.557024 -3.710176 0
M  V30 57 H -3.261980 -4.984533 -7.171052 0
M  V30 END ATOM
M  V30 BEGIN BOND
M  V30 1 1 1 2
M  V30 2 1 2 3
M  V30 3 1 3 4
M  V30 4 1 4 5
M  V30 5 1 5 6
M  V30 6 1 6 7
M  V30 7 1 6 8
M  V30 8 2 8 9
M  V30 9 1 9 10
M  V30 10 1 10 11
M  V30 11 1 11 12
M  V30 12 1 11 13
M  V30 13 1 13 14
M  V30 14 2 14 15
M  V30 15 1 14 16
M  V30 16 1 16 17
M  V30 17 1 17 18
M  V30 18 2 18 19
M  V30 19 1 19 20
M  V30 20 1 20 21
M  V30 21 1 21 22
M  V30 22 1 22 23
M  V30 23 2 23 24
M  V30 24 1 23 25
M  V30 25 1 16 10
M  V30 26 1 1 26
M  V30 27 1 1 27
M  V30 28 1 1 28
M  V30 29 1 2 29
M  V30 30 1 2 30
M  V30 31 1 3 31
M  V30 32 1 3 32
M  V30 33 1 4 33
M  V30 34 1 4 34
M  V30 35 1 5 35
M  V30 36 1 5 36
M  V30 37 1 6 37 CFG=3
M  V30 38 1 7 38
M  V30 39 1 8 39
M  V30 40 1 9 40
M  V30 41 1 10 41 CFG=1
M  V30 42 1 11 42 CFG=3
M  V30 43 1 12 43
M  V30 44 1 13 44
M  V30 45 1 13 45
M  V30 46 1 16 46 CFG=1
M  V30 47 1 17 47
M  V30 48 1 17 48
M  V30 49 1 18 49
M  V30 50 1 19 50
M  V30 51 1 20 51
M  V30 52 1 20 52
M  V30 53 1 21 53
M  V30 54 1 21 54
M  V30 55 1 22 55
M  V30 56 1 22 56
M  V30 57 1 25 57
M  V30 END BOND
M  V30 END CTAB
M  END
>  <Dataset>  (903) 
ChEMBL_Kinases

>  <Ligand_Instance>  (903) 
nan

>  <PDB_ID>  (903) 
nan

>  <Standardized_SMILES>  (903) 
CCCCC[C@H](O)/C=C/[C@H]1[C@H](O)CC(=O)[C@@H]1C/C=C\CCCC(=O)O

>  <Name>  (903) 
DINOPROSTONE

>  <Pocket>  (903) 
nan

>  <ATP_Site>  (903) 
nan

>  <Peripheral>  (903) 
nan

>  <Num_H_Atoms_ProtBoundConf>  (903) 
nan

>  <Num_Resolved_Atoms>  (903) 
nan

>  <Num_Not_Resolved_Atoms>  (903) 
nan

$$$$
CHEMBL549424
     RDKit          3D

  0  0  0  0  0  0  0  0  0  0999 V3000
M  V30 BEGIN CTAB
M  V30 COUNTS 45 47 0 0 0
M  V30 BEGIN ATOM
M  V30 1 C 2.163359 -2.780415 2.269812 0
M  V30 2 C 2.289681 -3.077933 0.782028 0
M  V30 3 C 0.947007 -3.451470 0.314142 0
M  V30 4 C 3.048880 -2.037409 0.156075 0
M  V30 5 C 4.447710 -2.146179 0.084183 0
M  V30 6 C 5.256687 -1.196049 -0.492344 0
M  V30 7 C 4.714136 -0.055345 -1.044527 0
M  V30 8 C 3.334097 0.088192 -0.992827 0
M  V30 9 C 2.571922 -0.900277 -0.400501 0
M  V30 10 C 1.160543 -0.626041 -0.422651 0
M  V30 11 C 0.538482 0.046868 0.638938 0
M  V30 12 N 1.349400 0.444959 1.738464 0
M  V30 13 C -0.815346 0.265538 0.518820 0
M  V30 14 C -1.442598 0.954534 1.632085 0
M  V30 15 O -0.707758 1.241372 2.628750 0
M  V30 16 C -2.783308 1.428406 1.912439 0
M  V30 17 C -3.412365 1.154525 3.120088 0
M  V30 18 C -4.687454 1.560679 3.438266 0
M  V30 19 C -5.396514 2.287027 2.506587 0
M  V30 20 F -6.652631 2.683318 2.827877 0
M  V30 21 C -4.837406 2.597958 1.284479 0
M  V30 22 C -3.555834 2.156345 1.039121 0
M  V30 23 F -3.063600 2.503704 -0.164841 0
M  V30 24 C -1.440204 -0.187748 -0.617287 0
M  V30 25 C -0.816039 -0.848034 -1.654017 0
M  V30 26 N 0.507990 -1.055019 -1.523576 0 CHG=1 VAL=4
M  V30 27 O 1.148197 -1.708352 -2.548980 0 CHG=-1 VAL=1
M  V30 28 H 2.264191 -3.696366 2.887904 0
M  V30 29 H 1.212385 -2.238350 2.502177 0
M  V30 30 H 2.989159 -2.093781 2.537376 0
M  V30 31 H 2.907198 -4.028853 0.757318 0
M  V30 32 H 0.703350 -4.431309 0.835891 0
M  V30 33 H 0.989869 -3.763349 -0.747112 0
M  V30 34 H 0.101872 -2.816793 0.595122 0
M  V30 35 H 4.923762 -3.037628 0.510920 0
M  V30 36 H 6.341798 -1.383188 -0.493871 0
M  V30 37 H 5.439218 0.616223 -1.466105 0
M  V30 38 H 2.950673 0.997071 -1.437294 0
M  V30 39 H 1.356823 0.148255 2.738251 0
M  V30 40 H 2.149148 1.136186 1.838826 0
M  V30 41 H -2.902867 0.588962 3.886359 0
M  V30 42 H -5.143861 1.326808 4.392222 0
M  V30 43 H -5.423720 3.162531 0.593992 0
M  V30 44 H -2.498773 -0.028469 -0.716967 0
M  V30 45 H -1.398425 -1.174108 -2.525466 0
M  V30 END ATOM
M  V30 BEGIN BOND
M  V30 1 1 1 2
M  V30 2 1 2 3
M  V30 3 1 2 4
M  V30 4 2 4 5
M  V30 5 1 5 6
M  V30 6 2 6 7
M  V30 7 1 7 8
M  V30 8 2 8 9
M  V30 9 1 9 10
M  V30 10 2 10 11
M  V30 11 1 11 12
M  V30 12 1 11 13
M  V30 13 1 13 14
M  V30 14 2 14 15
M  V30 15 1 14 16
M  V30 16 2 16 17
M  V30 17 1 17 18
M  V30 18 2 18 19
M  V30 19 1 19 20
M  V30 20 1 19 21
M  V30 21 2 21 22
M  V30 22 1 22 23
M  V30 23 2 13 24
M  V30 24 1 24 25
M  V30 25 2 25 26
M  V30 26 1 26 27
M  V30 27 1 9 4
M  V30 28 1 26 10
M  V30 29 1 22 16
M  V30 30 1 1 28
M  V30 31 1 1 29
M  V30 32 1 1 30
M  V30 33 1 2 31
M  V30 34 1 3 32
M  V30 35 1 3 33
M  V30 36 1 3 34
M  V30 37 1 5 35
M  V30 38 1 6 36
M  V30 39 1 7 37
M  V30 40 1 8 38
M  V30 41 1 12 39
M  V30 42 1 12 40
M  V30 43 1 17 41
M  V30 44 1 18 42
M  V30 45 1 21 43
M  V30 46 1 24 44
M  V30 47 1 25 45
M  V30 END BOND
M  V30 END CTAB
M  END
>  <Dataset>  (904) 
ChEMBL_Kinases

>  <Ligand_Instance>  (904) 
nan

>  <PDB_ID>  (904) 
nan

>  <Standardized_SMILES>  (904) 
CC(C)c1ccccc1-c1c(N)c(C(=O)c2ccc(F)cc2F)cc[n+]1[O-]

>  <Name>  (904) 
nan

>  <Pocket>  (904) 
nan

>  <ATP_Site>  (904) 
nan

>  <Peripheral>  (904) 
nan

>  <Num_H_Atoms_ProtBoundConf>  (904) 
nan

>  <Num_Resolved_Atoms>  (904) 
nan

>  <Num_Not_Resolved_Atoms>  (904) 
nan

$$$$
CHEMBL370889
     RDKit          3D

  0  0  0  0  0  0  0  0  0  0999 V3000
M  V30 BEGIN CTAB
M  V30 COUNTS 44 47 0 0 0
M  V30 BEGIN ATOM
M  V30 1 N 4.584862 3.014314 3.625567 0
M  V30 2 C 3.789704 2.477357 2.940834 0
M  V30 3 C 2.807560 1.833061 2.126460 0
M  V30 4 C 3.097119 1.231158 1.005548 0
M  V30 5 N 2.283860 0.542083 0.063840 0
M  V30 6 C 2.956311 0.014556 -1.039904 0
M  V30 7 C 2.399500 -0.694724 -2.107494 0
M  V30 8 C 3.233529 -1.130916 -3.112113 0
M  V30 9 C 4.596927 -0.928909 -3.164150 0
M  V30 10 C 5.139922 -0.229366 -2.109522 0
M  V30 11 C 4.318987 0.208393 -1.107081 0
M  V30 12 S 4.776223 1.141506 0.378465 0
M  V30 13 C 1.430825 1.850918 2.611340 0
M  V30 14 C 0.881629 2.994620 3.150296 0
M  V30 15 C -0.401255 2.981008 3.617153 0
M  V30 16 N -1.107778 1.855307 3.543958 0
M  V30 17 C -0.598861 0.708703 3.019060 0
M  V30 18 N -1.372809 -0.488530 2.967677 0
M  V30 19 C -0.940211 -1.762500 2.439709 0
M  V30 20 C -2.034116 -2.787060 2.605154 0
M  V30 21 C -3.288646 -2.400215 1.895603 0
M  V30 22 N -3.144032 -2.226597 0.476177 0
M  V30 23 C -3.299633 -3.176317 -0.463100 0
M  V30 24 C -3.085947 -2.641514 -1.733785 0
M  V30 25 C -2.796611 -1.330433 -1.496063 0
M  V30 26 N -2.833749 -1.094282 -0.177271 0
M  V30 27 N 0.682751 0.711116 2.549456 0
M  V30 28 H 1.264590 0.486089 0.267380 0
M  V30 29 H 1.334927 -0.941890 -2.222923 0
M  V30 30 H 2.840447 -1.694653 -3.972832 0
M  V30 31 H 5.236777 -1.276767 -3.958240 0
M  V30 32 H 6.197417 -0.032033 -2.077816 0
M  V30 33 H 1.427851 3.924362 3.223214 0
M  V30 34 H -0.948305 3.800193 4.060972 0
M  V30 35 H -2.338686 -0.416312 3.353786 0
M  V30 36 H -0.626597 -1.729309 1.372987 0
M  V30 37 H -0.041931 -2.146470 2.994065 0
M  V30 38 H -2.280426 -2.767623 3.708475 0
M  V30 39 H -1.707376 -3.816307 2.389521 0
M  V30 40 H -3.743163 -1.521621 2.388459 0
M  V30 41 H -4.021673 -3.235902 2.051901 0
M  V30 42 H -3.554364 -4.204042 -0.264695 0
M  V30 43 H -3.150025 -3.193994 -2.684246 0
M  V30 44 H -2.567639 -0.577281 -2.258234 0
M  V30 END ATOM
M  V30 BEGIN BOND
M  V30 1 3 1 2
M  V30 2 1 2 3
M  V30 3 2 3 4
M  V30 4 1 4 5
M  V30 5 1 5 6
M  V30 6 2 6 7
M  V30 7 1 7 8
M  V30 8 2 8 9
M  V30 9 1 9 10
M  V30 10 2 10 11
M  V30 11 1 11 12
M  V30 12 1 3 13
M  V30 13 2 13 14
M  V30 14 1 14 15
M  V30 15 2 15 16
M  V30 16 1 16 17
M  V30 17 1 17 18
M  V30 18 1 18 19
M  V30 19 1 19 20
M  V30 20 1 20 21
M  V30 21 1 21 22
M  V30 22 1 22 23
M  V30 23 2 23 24
M  V30 24 1 24 25
M  V30 25 2 25 26
M  V30 26 2 17 27
M  V30 27 1 12 4
M  V30 28 1 27 13
M  V30 29 1 11 6
M  V30 30 1 26 22
M  V30 31 1 5 28
M  V30 32 1 7 29
M  V30 33 1 8 30
M  V30 34 1 9 31
M  V30 35 1 10 32
M  V30 36 1 14 33
M  V30 37 1 15 34
M  V30 38 1 18 35
M  V30 39 1 19 36
M  V30 40 1 19 37
M  V30 41 1 20 38
M  V30 42 1 20 39
M  V30 43 1 21 40
M  V30 44 1 21 41
M  V30 45 1 23 42
M  V30 46 1 24 43
M  V30 47 1 25 44
M  V30 END BOND
M  V30 END CTAB
M  END
>  <Dataset>  (905) 
ChEMBL_Kinases

>  <Ligand_Instance>  (905) 
nan

>  <PDB_ID>  (905) 
nan

>  <Standardized_SMILES>  (905) 
N#C/C(=C1/Nc2ccccc2S1)c1ccnc(NCCCn2cccn2)n1

>  <Name>  (905) 
nan

>  <Pocket>  (905) 
nan

>  <ATP_Site>  (905) 
nan

>  <Peripheral>  (905) 
nan

>  <Num_H_Atoms_ProtBoundConf>  (905) 
nan

>  <Num_Resolved_Atoms>  (905) 
nan

>  <Num_Not_Resolved_Atoms>  (905) 
nan

$$$$
CHEMBL563685
     RDKit          3D

  0  0  0  0  0  0  0  0  0  0999 V3000
M  V30 BEGIN CTAB
M  V30 COUNTS 58 63 0 0 0
M  V30 BEGIN ATOM
M  V30 1 C 3.381132 -1.298011 4.619888 0
M  V30 2 N 2.288607 -1.693115 3.749464 0
M  V30 3 C 2.247961 -2.809601 3.005560 0
M  V30 4 C 1.061794 -2.915732 2.268644 0
M  V30 5 C 0.756934 -4.024725 1.397975 0
M  V30 6 C 0.233712 -4.079986 0.165760 0
M  V30 7 C -0.218780 -3.052303 -0.755934 0
M  V30 8 N 0.446967 -1.932382 -1.050953 0
M  V30 9 N -0.205390 -1.172068 -1.914405 0
M  V30 10 C 0.110629 0.101167 -2.529745 0
M  V30 11 C -0.395007 1.290618 -1.750516 0
M  V30 12 C -0.027245 2.574707 -2.460307 0
M  V30 13 C -0.490186 3.807856 -1.756427 0
M  V30 14 N 0.042445 3.964998 -0.418948 0
M  V30 15 C -0.644549 3.438451 0.637658 0
M  V30 16 C 0.119842 3.758069 1.743917 0
M  V30 17 N 1.196340 4.434057 1.362402 0
M  V30 18 C 1.155421 4.566077 0.025916 0
M  V30 19 C -1.381671 -1.787309 -2.237479 0
M  V30 20 N -2.427144 -1.482811 -3.046647 0
M  V30 21 C -3.488164 -2.294143 -3.171922 0
M  V30 22 C -3.505027 -3.468417 -2.451610 0
M  V30 23 C -2.453180 -3.797154 -1.623616 0
M  V30 24 C -1.369967 -2.953749 -1.506469 0
M  V30 25 C 0.164012 -5.503607 -0.226917 0
M  V30 26 O -0.230636 -6.134070 -1.257076 0
M  V30 27 N 0.670765 -6.326233 0.829036 0
M  V30 28 C 1.047188 -5.406137 1.857786 0
M  V30 29 O 1.544118 -5.762780 2.964185 0
M  V30 30 C 0.407011 -1.762793 2.644964 0
M  V30 31 C -0.835393 -1.330612 2.231747 0
M  V30 32 C -1.353898 -0.137952 2.716441 0
M  V30 33 C -0.617616 0.611348 3.614489 0
M  V30 34 C 0.631848 0.176322 4.030306 0
M  V30 35 C 1.144418 -1.017986 3.540948 0
M  V30 36 H 3.113377 -1.389547 5.696837 0
M  V30 37 H 4.309149 -1.858351 4.372341 0
M  V30 38 H 3.578739 -0.209419 4.435014 0
M  V30 39 H 3.063035 -3.542215 2.991881 0
M  V30 40 H -0.272775 0.156872 -3.580426 0
M  V30 41 H 1.228319 0.164379 -2.659979 0
M  V30 42 H 0.099110 1.291602 -0.755243 0
M  V30 43 H -1.466462 1.176681 -1.596387 0
M  V30 44 H -0.544423 2.559518 -3.452318 0
M  V30 45 H 1.058527 2.617773 -2.649648 0
M  V30 46 H -1.597026 3.899153 -1.746845 0
M  V30 47 H -0.141386 4.686063 -2.376107 0
M  V30 48 H -1.592259 2.883160 0.638123 0
M  V30 49 H -0.192902 3.458333 2.753606 0
M  V30 50 H 1.803476 5.033145 -0.710852 0
M  V30 51 H -4.279881 -2.001736 -3.824631 0
M  V30 52 H -4.356864 -4.108077 -2.558204 0
M  V30 53 H -2.509728 -4.717722 -1.073233 0
M  V30 54 H 0.782003 -7.367456 0.921852 0
M  V30 55 H -1.434962 -1.885709 1.543590 0
M  V30 56 H -2.315634 0.289405 2.457475 0
M  V30 57 H -0.873693 1.551192 4.083034 0
M  V30 58 H 1.279573 0.695113 4.729269 0
M  V30 END ATOM
M  V30 BEGIN BOND
M  V30 1 1 1 2
M  V30 2 1 2 3
M  V30 3 2 3 4
M  V30 4 1 4 5
M  V30 5 2 5 6
M  V30 6 1 6 7
M  V30 7 2 7 8
M  V30 8 1 8 9
M  V30 9 1 9 10
M  V30 10 1 10 11
M  V30 11 1 11 12
M  V30 12 1 12 13
M  V30 13 1 13 14
M  V30 14 1 14 15
M  V30 15 2 15 16
M  V30 16 1 16 17
M  V30 17 2 17 18
M  V30 18 1 9 19
M  V30 19 2 19 20
M  V30 20 1 20 21
M  V30 21 2 21 22
M  V30 22 1 22 23
M  V30 23 2 23 24
M  V30 24 1 6 25
M  V30 25 2 25 26
M  V30 26 1 25 27
M  V30 27 1 27 28
M  V30 28 2 28 29
M  V30 29 1 4 30
M  V30 30 2 30 31
M  V30 31 1 31 32
M  V30 32 2 32 33
M  V30 33 1 33 34
M  V30 34 2 34 35
M  V30 35 1 35 2
M  V30 36 1 28 5
M  V30 37 1 35 30
M  V30 38 1 24 7
M  V30 39 1 18 14
M  V30 40 1 24 19
M  V30 41 1 1 36
M  V30 42 1 1 37
M  V30 43 1 1 38
M  V30 44 1 3 39
M  V30 45 1 10 40
M  V30 46 1 10 41
M  V30 47 1 11 42
M  V30 48 1 11 43
M  V30 49 1 12 44
M  V30 50 1 12 45
M  V30 51 1 13 46
M  V30 52 1 13 47
M  V30 53 1 15 48
M  V30 54 1 16 49
M  V30 55 1 18 50
M  V30 56 1 21 51
M  V30 57 1 22 52
M  V30 58 1 23 53
M  V30 59 1 27 54
M  V30 60 1 31 55
M  V30 61 1 32 56
M  V30 62 1 33 57
M  V30 63 1 34 58
M  V30 END BOND
M  V30 END CTAB
M  END
>  <Dataset>  (906) 
ChEMBL_Kinases

>  <Ligand_Instance>  (906) 
nan

>  <PDB_ID>  (906) 
nan

>  <Standardized_SMILES>  (906) 
Cn1cc(C2=C(c3nn(CCCCn4ccnc4)c4ncccc34)C(=O)NC2=O)c2ccccc21

>  <Name>  (906) 
nan

>  <Pocket>  (906) 
nan

>  <ATP_Site>  (906) 
nan

>  <Peripheral>  (906) 
nan

>  <Num_H_Atoms_ProtBoundConf>  (906) 
nan

>  <Num_Resolved_Atoms>  (906) 
nan

>  <Num_Not_Resolved_Atoms>  (906) 
nan

$$$$
CHEMBL563749
     RDKit          3D

  0  0  0  0  0  0  0  0  0  0999 V3000
M  V30 BEGIN CTAB
M  V30 COUNTS 39 41 0 0 0
M  V30 BEGIN ATOM
M  V30 1 N 1.244792 -1.467982 2.112362 0
M  V30 2 C 0.119012 -1.199468 1.302933 0
M  V30 3 C 0.144945 -0.200059 0.354612 0
M  V30 4 C 1.315177 0.642525 0.139617 0
M  V30 5 O 2.230717 0.364984 0.985847 0
M  V30 6 C 1.384926 1.649644 -0.907869 0
M  V30 7 C 1.025427 1.313365 -2.196801 0
M  V30 8 C 1.066385 2.188108 -3.262721 0
M  V30 9 C 1.488393 3.487056 -3.063048 0
M  V30 10 C 1.848543 3.823717 -1.774287 0
M  V30 11 C 1.809303 2.942430 -0.689854 0
M  V30 12 C 2.223653 3.418668 0.635824 0
M  V30 13 F 3.307419 2.670930 1.048376 0
M  V30 14 F 1.248436 3.236895 1.595668 0
M  V30 15 F 2.650254 4.720076 0.564989 0
M  V30 16 C -1.040911 -0.083116 -0.338285 0
M  V30 17 C -2.164318 -0.857388 -0.144454 0
M  V30 18 N -2.119611 -1.815162 0.798140 0 CHG=1 VAL=4
M  V30 19 O -3.225440 -2.601801 1.012463 0 CHG=-1 VAL=1
M  V30 20 C -1.005645 -2.005156 1.526629 0
M  V30 21 C -0.971883 -3.047274 2.545238 0
M  V30 22 C -0.535399 -4.281225 2.075267 0
M  V30 23 C -0.443430 -5.379457 2.910385 0
M  V30 24 C -0.802288 -5.214660 4.243690 0
M  V30 25 C -1.238782 -3.995678 4.730376 0
M  V30 26 C -1.320365 -2.917285 3.873470 0
M  V30 27 Cl -1.856821 -1.324311 4.366012 0
M  V30 28 H 2.150572 -1.967960 1.980443 0
M  V30 29 H 1.638754 -1.317269 3.070500 0
M  V30 30 H 0.682639 0.328118 -2.517844 0
M  V30 31 H 0.789542 1.947381 -4.280030 0
M  V30 32 H 1.565973 4.266258 -3.809328 0
M  V30 33 H 2.191980 4.848723 -1.566190 0
M  V30 34 H -1.154947 0.669498 -1.103300 0
M  V30 35 H -3.070852 -0.723062 -0.717776 0
M  V30 36 H -0.244068 -4.464349 1.047823 0
M  V30 37 H -0.100571 -6.344301 2.536293 0
M  V30 38 H -0.727109 -6.090751 4.902204 0
M  V30 39 H -1.517436 -3.861464 5.758741 0
M  V30 END ATOM
M  V30 BEGIN BOND
M  V30 1 1 1 2
M  V30 2 2 2 3
M  V30 3 1 3 4
M  V30 4 2 4 5
M  V30 5 1 4 6
M  V30 6 2 6 7
M  V30 7 1 7 8
M  V30 8 2 8 9
M  V30 9 1 9 10
M  V30 10 2 10 11
M  V30 11 1 11 12
M  V30 12 1 12 13
M  V30 13 1 12 14
M  V30 14 1 12 15
M  V30 15 1 3 16
M  V30 16 2 16 17
M  V30 17 1 17 18
M  V30 18 1 18 19
M  V30 19 2 18 20
M  V30 20 1 20 21
M  V30 21 2 21 22
M  V30 22 1 22 23
M  V30 23 2 23 24
M  V30 24 1 24 25
M  V30 25 2 25 26
M  V30 26 1 26 27
M  V30 27 1 20 2
M  V30 28 1 26 21
M  V30 29 1 11 6
M  V30 30 1 1 28
M  V30 31 1 1 29
M  V30 32 1 7 30
M  V30 33 1 8 31
M  V30 34 1 9 32
M  V30 35 1 10 33
M  V30 36 1 16 34
M  V30 37 1 17 35
M  V30 38 1 22 36
M  V30 39 1 23 37
M  V30 40 1 24 38
M  V30 41 1 25 39
M  V30 END BOND
M  V30 END CTAB
M  END
>  <Dataset>  (907) 
ChEMBL_Kinases

>  <Ligand_Instance>  (907) 
nan

>  <PDB_ID>  (907) 
nan

>  <Standardized_SMILES>  (907) 
Nc1c(C(=O)c2ccccc2C(F)(F)F)cc[n+]([O-])c1-c1ccccc1Cl

>  <Name>  (907) 
nan

>  <Pocket>  (907) 
nan

>  <ATP_Site>  (907) 
nan

>  <Peripheral>  (907) 
nan

>  <Num_H_Atoms_ProtBoundConf>  (907) 
nan

>  <Num_Resolved_Atoms>  (907) 
nan

>  <Num_Not_Resolved_Atoms>  (907) 
nan

$$$$
CHEMBL563805
     RDKit          3D

  0  0  0  0  0  0  0  0  0  0999 V3000
M  V30 BEGIN CTAB
M  V30 COUNTS 73 78 0 0 0
M  V30 BEGIN ATOM
M  V30 1 C 4.042131 -5.741050 2.865419 0
M  V30 2 O 3.109726 -6.689908 3.187640 0
M  V30 3 C 1.867632 -6.333707 3.560892 0
M  V30 4 C 1.129182 -5.481799 2.525614 0
M  V30 5 O -0.172501 -5.177389 2.903506 0
M  V30 6 C -0.799053 -4.360627 1.965122 0
M  V30 7 O -0.168057 -3.114564 1.842542 0
M  V30 8 C -0.545768 -2.142516 0.910305 0
M  V30 9 C -1.576323 -2.667355 0.082341 0
M  V30 10 C -2.057941 -1.853804 -0.899860 0
M  V30 11 C -3.162325 -2.386377 -1.790756 0
M  V30 12 C -1.654395 -0.584296 -1.171598 0
M  V30 13 C -2.143745 0.246947 -2.245251 0
M  V30 14 C -1.210354 0.113880 -3.271756 0
M  V30 15 C -1.390382 0.864763 -4.426109 0
M  V30 16 C -2.392356 1.728870 -4.674954 0
M  V30 17 C -2.706176 2.534055 -5.671428 0
M  V30 18 C -3.702750 3.435514 -5.931839 0
M  V30 19 C -3.796295 4.391332 -7.013346 0
M  V30 20 O -4.756378 5.016439 -7.521734 0
M  V30 21 O -2.420618 4.537949 -7.457859 0
M  V30 22 C -4.609162 3.494554 -4.842942 0
M  V30 23 C -4.397734 2.695921 -3.710105 0
M  V30 24 C -3.327474 1.831345 -3.599338 0
M  V30 25 C -3.170673 1.110240 -2.470609 0
M  V30 26 Cl -4.254876 1.085998 -1.084099 0
M  V30 27 C -0.680719 -0.211499 -0.318008 0
M  V30 28 C -0.023482 -0.840823 0.752834 0
M  V30 29 C 0.929079 -0.374881 1.747888 0
M  V30 30 C 0.215452 -0.427216 3.148806 0
M  V30 31 C 1.089441 0.202627 4.159829 0
M  V30 32 C 2.424601 -0.503942 4.266209 0
M  V30 33 C 3.095994 -0.388745 2.904746 0
M  V30 34 C 3.389483 1.022580 2.523525 0
M  V30 35 C 2.068434 1.743476 2.520715 0
M  V30 36 C 1.407440 1.660396 3.869822 0
M  V30 37 C 1.091372 1.123146 1.528710 0
M  V30 38 C 2.191206 -1.113032 1.914014 0
M  V30 39 H 4.323818 -5.071182 3.673803 0
M  V30 40 H 3.608968 -5.045424 2.065678 0
M  V30 41 H 4.925494 -6.188805 2.343812 0
M  V30 42 H 1.927279 -5.783219 4.537458 0
M  V30 43 H 1.281964 -7.259376 3.763812 0
M  V30 44 H 1.692104 -4.534128 2.392914 0
M  V30 45 H 1.179909 -6.037058 1.573891 0
M  V30 46 H -1.865724 -4.257779 2.256304 0
M  V30 47 H -0.759754 -4.906064 0.980228 0
M  V30 48 H -2.031248 -3.641178 0.157710 0
M  V30 49 H -2.856167 -3.464735 -1.944476 0
M  V30 50 H -4.129818 -2.401550 -1.283099 0
M  V30 51 H -3.123221 -1.924103 -2.765632 0
M  V30 52 H -0.309916 -0.483587 -3.429753 0
M  V30 53 H -0.727298 0.860690 -5.324436 0
M  V30 54 H -1.958357 2.441851 -6.494008 0
M  V30 55 H -2.180181 5.506279 -7.790907 0
M  V30 56 H -5.467168 4.151533 -4.910706 0
M  V30 57 H -5.126213 2.767507 -2.864440 0
M  V30 58 H -0.273267 0.814534 -0.439190 0
M  V30 59 H -0.685828 0.208818 3.017928 0
M  V30 60 H -0.017602 -1.438044 3.425516 0
M  V30 61 H 0.577189 0.178173 5.142964 0
M  V30 62 H 3.007061 0.070166 5.013053 0
M  V30 63 H 2.317783 -1.555702 4.526534 0
M  V30 64 H 4.017777 -1.036167 2.985224 0
M  V30 65 H 4.043025 1.465555 3.267483 0
M  V30 66 H 3.814039 1.020277 1.496159 0
M  V30 67 H 2.232724 2.770691 2.179273 0
M  V30 68 H 0.494522 2.269712 3.830962 0
M  V30 69 H 2.092780 2.011585 4.656328 0
M  V30 70 H 0.103638 1.565918 1.840736 0
M  V30 71 H 1.397699 1.360415 0.507143 0
M  V30 72 H 2.785230 -1.307961 1.017658 0
M  V30 73 H 1.997858 -2.079770 2.478315 0
M  V30 END ATOM
M  V30 BEGIN BOND
M  V30 1 1 1 2
M  V30 2 1 2 3
M  V30 3 1 3 4
M  V30 4 1 4 5
M  V30 5 1 5 6
M  V30 6 1 6 7
M  V30 7 1 7 8
M  V30 8 2 8 9
M  V30 9 1 9 10
M  V30 10 1 10 11
M  V30 11 2 10 12
M  V30 12 1 12 13
M  V30 13 2 13 14
M  V30 14 1 14 15
M  V30 15 2 15 16
M  V30 16 1 16 17
M  V30 17 2 17 18
M  V30 18 1 18 19
M  V30 19 2 19 20
M  V30 20 1 19 21
M  V30 21 1 18 22
M  V30 22 2 22 23
M  V30 23 1 23 24
M  V30 24 2 24 25
M  V30 25 1 25 26
M  V30 26 1 12 27
M  V30 27 2 27 28
M  V30 28 1 28 29
M  V30 29 1 29 30
M  V30 30 1 30 31
M  V30 31 1 31 32
M  V30 32 1 32 33
M  V30 33 1 33 34
M  V30 34 1 34 35
M  V30 35 1 35 36
M  V30 36 1 35 37
M  V30 37 1 33 38
M  V30 38 1 28 8
M  V30 39 1 37 29
M  V30 40 1 25 13
M  V30 41 1 38 29
M  V30 42 1 24 16
M  V30 43 1 36 31
M  V30 44 1 1 39
M  V30 45 1 1 40
M  V30 46 1 1 41
M  V30 47 1 3 42
M  V30 48 1 3 43
M  V30 49 1 4 44
M  V30 50 1 4 45
M  V30 51 1 6 46
M  V30 52 1 6 47
M  V30 53 1 9 48
M  V30 54 1 11 49
M  V30 55 1 11 50
M  V30 56 1 11 51
M  V30 57 1 14 52
M  V30 58 1 15 53
M  V30 59 1 17 54
M  V30 60 1 21 55
M  V30 61 1 22 56
M  V30 62 1 23 57
M  V30 63 1 27 58
M  V30 64 1 30 59
M  V30 65 1 30 60
M  V30 66 1 31 61
M  V30 67 1 32 62
M  V30 68 1 32 63
M  V30 69 1 33 64
M  V30 70 1 34 65
M  V30 71 1 34 66
M  V30 72 1 35 67
M  V30 73 1 36 68
M  V30 74 1 36 69
M  V30 75 1 37 70
M  V30 76 1 37 71
M  V30 77 1 38 72
M  V30 78 1 38 73
M  V30 END BOND
M  V30 END CTAB
M  END
>  <Dataset>  (908) 
ChEMBL_Kinases

>  <Ligand_Instance>  (908) 
nan

>  <PDB_ID>  (908) 
nan

>  <Standardized_SMILES>  (908) 
COCCOCOc1cc(C)c(-c2ccc3cc(C(=O)O)ccc3c2Cl)cc1C12CC3CC(CC(C3)C1)C2

>  <Name>  (908) 
nan

>  <Pocket>  (908) 
nan

>  <ATP_Site>  (908) 
nan

>  <Peripheral>  (908) 
nan

>  <Num_H_Atoms_ProtBoundConf>  (908) 
nan

>  <Num_Resolved_Atoms>  (908) 
nan

>  <Num_Not_Resolved_Atoms>  (908) 
nan

$$$$
CHEMBL563941
     RDKit          3D

  0  0  0  0  0  0  0  0  0  0999 V3000
M  V30 BEGIN CTAB
M  V30 COUNTS 54 58 0 0 0
M  V30 BEGIN ATOM
M  V30 1 C 0.754862 -2.444504 3.198992 0
M  V30 2 C 1.653327 -1.335575 2.817396 0
M  V30 3 C 2.968727 -1.313757 3.182717 0
M  V30 4 C 3.718163 -0.231906 2.800185 0
M  V30 5 C 3.226738 0.827701 2.074431 0
M  V30 6 C 4.036791 1.966778 1.678472 0
M  V30 7 O 3.543733 2.896639 1.026230 0
M  V30 8 N 5.400996 1.988789 2.055172 0
M  V30 9 C 6.258112 3.088321 1.694516 0
M  V30 10 C 7.663556 2.883593 1.294379 0
M  V30 11 C 7.324642 3.593710 2.606091 0
M  V30 12 C 1.867856 0.699967 1.754716 0
M  V30 13 C 1.003942 -0.375861 2.099903 0
M  V30 14 N -0.260921 -0.091522 1.568851 0
M  V30 15 C -1.248284 -0.485407 0.658794 0
M  V30 16 C -1.322330 0.503744 -0.356479 0
M  V30 17 C -2.196669 0.446305 -1.440802 0
M  V30 18 O -2.279921 1.297194 -2.340814 0
M  V30 19 N -3.001699 -0.627537 -1.489274 0
M  V30 20 C -3.928952 -0.746936 -2.592001 0
M  V30 21 C -3.000809 -1.605259 -0.576194 0
M  V30 22 C -2.128919 -1.513386 0.473002 0
M  V30 23 C -2.269078 -2.564472 1.304506 0
M  V30 24 N -3.232040 -3.322182 0.774059 0
M  V30 25 N -3.672776 -2.745208 -0.358356 0
M  V30 26 C -4.698411 -3.301470 -1.164070 0
M  V30 27 C -4.395727 -4.408592 -1.961867 0
M  V30 28 C -5.276861 -5.050409 -2.779317 0
M  V30 29 F -4.923440 -6.119971 -3.529531 0
M  V30 30 C -6.577611 -4.598478 -2.849138 0
M  V30 31 C -6.916207 -3.511483 -2.079625 0
M  V30 32 C -6.005066 -2.879593 -1.259999 0
M  V30 33 F -6.345491 -1.810470 -0.497953 0
M  V30 34 H 0.561114 -3.145049 2.383986 0
M  V30 35 H 1.293044 -3.037267 3.977294 0
M  V30 36 H -0.146646 -2.067857 3.733610 0
M  V30 37 H 3.300617 -2.168002 3.749688 0
M  V30 38 H 4.730998 -0.277656 3.114169 0
M  V30 39 H 5.908084 1.260541 2.600349 0
M  V30 40 H 5.734973 3.876894 1.112509 0
M  V30 41 H 8.203123 1.929950 1.437357 0
M  V30 42 H 8.110595 3.497245 0.484312 0
M  V30 43 H 7.558961 4.678580 2.644479 0
M  V30 44 H 7.581233 3.079139 3.553500 0
M  V30 45 H 1.553303 1.583274 1.177402 0
M  V30 46 H -0.652200 0.759954 2.093569 0
M  V30 47 H -0.713033 1.426842 -0.421225 0
M  V30 48 H -3.954264 -1.778853 -2.986960 0
M  V30 49 H -4.958717 -0.388204 -2.299515 0
M  V30 50 H -3.581851 -0.053029 -3.420610 0
M  V30 51 H -1.772722 -2.806041 2.212438 0
M  V30 52 H -3.379055 -4.823809 -1.957633 0
M  V30 53 H -7.293359 -5.079646 -3.480596 0
M  V30 54 H -7.933472 -3.099224 -2.086419 0
M  V30 END ATOM
M  V30 BEGIN BOND
M  V30 1 1 1 2
M  V30 2 2 2 3
M  V30 3 1 3 4
M  V30 4 2 4 5
M  V30 5 1 5 6
M  V30 6 2 6 7
M  V30 7 1 6 8
M  V30 8 1 8 9
M  V30 9 1 9 10
M  V30 10 1 10 11
M  V30 11 1 5 12
M  V30 12 2 12 13
M  V30 13 1 13 14
M  V30 14 1 14 15
M  V30 15 2 15 16
M  V30 16 1 16 17
M  V30 17 2 17 18
M  V30 18 1 17 19
M  V30 19 1 19 20
M  V30 20 1 19 21
M  V30 21 2 21 22
M  V30 22 1 22 23
M  V30 23 2 23 24
M  V30 24 1 24 25
M  V30 25 1 25 26
M  V30 26 2 26 27
M  V30 27 1 27 28
M  V30 28 1 28 29
M  V30 29 2 28 30
M  V30 30 1 30 31
M  V30 31 2 31 32
M  V30 32 1 32 33
M  V30 33 1 13 2
M  V30 34 1 22 15
M  V30 35 1 32 26
M  V30 36 1 11 9
M  V30 37 1 25 21
M  V30 38 1 1 34
M  V30 39 1 1 35
M  V30 40 1 1 36
M  V30 41 1 3 37
M  V30 42 1 4 38
M  V30 43 1 8 39
M  V30 44 1 9 40
M  V30 45 1 10 41
M  V30 46 1 10 42
M  V30 47 1 11 43
M  V30 48 1 11 44
M  V30 49 1 12 45
M  V30 50 1 14 46
M  V30 51 1 16 47
M  V30 52 1 20 48
M  V30 53 1 20 49
M  V30 54 1 20 50
M  V30 55 1 23 51
M  V30 56 1 27 52
M  V30 57 1 30 53
M  V30 58 1 31 54
M  V30 END BOND
M  V30 END CTAB
M  END
>  <Dataset>  (909) 
ChEMBL_Kinases

>  <Ligand_Instance>  (909) 
nan

>  <PDB_ID>  (909) 
nan

>  <Standardized_SMILES>  (909) 
Cc1ccc(C(=O)NC2CC2)cc1Nc1cc(=O)n(C)c2c1cnn2-c1cc(F)ccc1F

>  <Name>  (909) 
nan

>  <Pocket>  (909) 
nan

>  <ATP_Site>  (909) 
nan

>  <Peripheral>  (909) 
nan

>  <Num_H_Atoms_ProtBoundConf>  (909) 
nan

>  <Num_Resolved_Atoms>  (909) 
nan

>  <Num_Not_Resolved_Atoms>  (909) 
nan

$$$$
CHEMBL563961
     RDKit          3D

  0  0  0  0  0  0  0  0  0  0999 V3000
M  V30 BEGIN CTAB
M  V30 COUNTS 42 45 0 0 0
M  V30 BEGIN ATOM
M  V30 1 C -0.298421 -4.127323 2.593301 0
M  V30 2 N 0.055430 -3.246381 1.498900 0
M  V30 3 C -0.732855 -2.285693 1.011699 0
M  V30 4 C -0.127049 -1.612540 -0.028798 0
M  V30 5 C -0.437691 -0.515810 -0.934445 0
M  V30 6 N -0.637421 -0.703570 -2.250508 0
M  V30 7 C -0.927144 0.259023 -3.129498 0
M  V30 8 N -1.135316 0.044724 -4.520669 0
M  V30 9 N -1.035598 1.542071 -2.688461 0
M  V30 10 C -0.847246 1.801270 -1.378583 0
M  V30 11 C -0.548633 0.783866 -0.493946 0
M  V30 12 C -0.363309 1.176787 0.894435 0
M  V30 13 C 0.798163 1.954977 0.995769 0
M  V30 14 C 1.228831 2.481451 2.219734 0
M  V30 15 C 0.460933 2.203453 3.331406 0
M  V30 16 C 0.880559 2.736777 4.623452 0
M  V30 17 O 1.923955 3.435793 4.705500 0
M  V30 18 O 0.170351 2.506594 5.793512 0
M  V30 19 C -0.684763 1.440137 3.252082 0
M  V30 20 C -1.091868 0.930835 2.037673 0
M  V30 21 C 1.123834 -2.229609 -0.165638 0
M  V30 22 C 2.236614 -2.083435 -0.984559 0
M  V30 23 C 3.346530 -2.886162 -0.850826 0
M  V30 24 C 3.385904 -3.866324 0.108093 0
M  V30 25 C 2.311559 -4.057721 0.949322 0
M  V30 26 C 1.204933 -3.238308 0.796627 0
M  V30 27 H -0.623224 -5.107119 2.189052 0
M  V30 28 H 0.573937 -4.331155 3.257562 0
M  V30 29 H -1.092147 -3.673925 3.186757 0
M  V30 30 H -1.722846 -1.979725 1.297244 0
M  V30 31 H -2.170615 0.027457 -4.680080 0
M  V30 32 H -0.394603 -0.076843 -5.268644 0
M  V30 33 H -0.938951 2.829689 -1.056354 0
M  V30 34 H 1.486575 2.242359 0.187514 0
M  V30 35 H 2.102769 3.077205 2.349159 0
M  V30 36 H 0.611794 2.524848 6.710693 0
M  V30 37 H -1.313464 1.199197 4.092918 0
M  V30 38 H -1.955208 0.327163 1.814145 0
M  V30 39 H 2.206403 -1.317654 -1.733007 0
M  V30 40 H 4.170874 -2.700833 -1.533708 0
M  V30 41 H 4.302203 -4.445237 0.134869 0
M  V30 42 H 2.361115 -4.832855 1.698017 0
M  V30 END ATOM
M  V30 BEGIN BOND
M  V30 1 1 1 2
M  V30 2 1 2 3
M  V30 3 2 3 4
M  V30 4 1 4 5
M  V30 5 2 5 6
M  V30 6 1 6 7
M  V30 7 1 7 8
M  V30 8 2 7 9
M  V30 9 1 9 10
M  V30 10 2 10 11
M  V30 11 1 11 12
M  V30 12 2 12 13
M  V30 13 1 13 14
M  V30 14 2 14 15
M  V30 15 1 15 16
M  V30 16 2 16 17
M  V30 17 1 16 18
M  V30 18 1 15 19
M  V30 19 2 19 20
M  V30 20 1 4 21
M  V30 21 2 21 22
M  V30 22 1 22 23
M  V30 23 2 23 24
M  V30 24 1 24 25
M  V30 25 2 25 26
M  V30 26 1 26 2
M  V30 27 1 11 5
M  V30 28 1 20 12
M  V30 29 1 26 21
M  V30 30 1 1 27
M  V30 31 1 1 28
M  V30 32 1 1 29
M  V30 33 1 3 30
M  V30 34 1 8 31
M  V30 35 1 8 32
M  V30 36 1 10 33
M  V30 37 1 13 34
M  V30 38 1 14 35
M  V30 39 1 18 36
M  V30 40 1 19 37
M  V30 41 1 20 38
M  V30 42 1 22 39
M  V30 43 1 23 40
M  V30 44 1 24 41
M  V30 45 1 25 42
M  V30 END BOND
M  V30 END CTAB
M  END
>  <Dataset>  (910) 
ChEMBL_Kinases

>  <Ligand_Instance>  (910) 
nan

>  <PDB_ID>  (910) 
nan

>  <Standardized_SMILES>  (910) 
Cn1cc(-c2nc(N)ncc2-c2ccc(C(=O)O)cc2)c2ccccc21

>  <Name>  (910) 
nan

>  <Pocket>  (910) 
nan

>  <ATP_Site>  (910) 
nan

>  <Peripheral>  (910) 
nan

>  <Num_H_Atoms_ProtBoundConf>  (910) 
nan

>  <Num_Resolved_Atoms>  (910) 
nan

>  <Num_Not_Resolved_Atoms>  (910) 
nan

$$$$
CHEMBL571452
     RDKit          3D

  0  0  0  0  0  0  0  0  0  0999 V3000
M  V30 BEGIN CTAB
M  V30 COUNTS 38 41 0 0 0
M  V30 BEGIN ATOM
M  V30 1 C 1.262812 -6.061296 1.858580 0
M  V30 2 C 1.783301 -4.719662 2.319184 0
M  V30 3 C 2.790972 -4.490757 3.226971 0
M  V30 4 C 3.147413 -3.183839 3.490951 0
M  V30 5 C 2.559229 -2.088629 2.898868 0
M  V30 6 C 1.552058 -2.350445 1.996124 0
M  V30 7 C 0.692303 -1.435746 1.214795 0
M  V30 8 N 0.938250 -0.608828 0.176121 0
M  V30 9 C 0.010432 0.206204 -0.325497 0
M  V30 10 N 0.300757 1.031932 -1.430389 0
M  V30 11 C 0.641729 2.425070 -1.494848 0
M  V30 12 C -0.005317 3.272687 -2.334678 0
M  V30 13 C 0.299271 4.649366 -2.418683 0
M  V30 14 N 1.268240 5.113389 -1.634375 0
M  V30 15 C 1.898244 4.256551 -0.806351 0
M  V30 16 N 1.597768 2.932679 -0.730850 0
M  V30 17 C -1.242573 0.175791 0.272817 0
M  V30 18 C -2.223081 1.018486 -0.190463 0
M  V30 19 C -3.452554 1.026192 0.397286 0
M  V30 20 C -3.778556 0.190901 1.477577 0
M  V30 21 C -2.799678 -0.679867 1.970686 0
M  V30 22 C -1.546560 -0.647284 1.331315 0
M  V30 23 N -0.551889 -1.439973 1.774184 0
M  V30 24 N 1.206702 -3.641416 1.744057 0
M  V30 25 H 1.811243 -6.881666 2.382369 0
M  V30 26 H 0.162868 -6.050050 2.074571 0
M  V30 27 H 1.349972 -6.147394 0.749244 0
M  V30 28 H 3.237105 -5.360844 3.677018 0
M  V30 29 H 3.941304 -2.982999 4.197812 0
M  V30 30 H 2.752358 -1.056752 3.031511 0
M  V30 31 H 0.303021 0.634147 -2.407294 0
M  V30 32 H -0.802821 2.900890 -2.978275 0
M  V30 33 H -0.240280 5.298383 -3.094247 0
M  V30 34 H 2.671441 4.662046 -0.173904 0
M  V30 35 H -2.058884 1.698639 -1.030463 0
M  V30 36 H -4.247812 1.670361 0.079604 0
M  V30 37 H -4.744845 0.181051 1.968509 0
M  V30 38 H -3.009225 -1.338453 2.822344 0
M  V30 END ATOM
M  V30 BEGIN BOND
M  V30 1 1 1 2
M  V30 2 2 2 3
M  V30 3 1 3 4
M  V30 4 2 4 5
M  V30 5 1 5 6
M  V30 6 1 6 7
M  V30 7 2 7 8
M  V30 8 1 8 9
M  V30 9 1 9 10
M  V30 10 1 10 11
M  V30 11 2 11 12
M  V30 12 1 12 13
M  V30 13 2 13 14
M  V30 14 1 14 15
M  V30 15 2 15 16
M  V30 16 2 9 17
M  V30 17 1 17 18
M  V30 18 2 18 19
M  V30 19 1 19 20
M  V30 20 2 20 21
M  V30 21 1 21 22
M  V30 22 2 22 23
M  V30 23 2 6 24
M  V30 24 1 24 2
M  V30 25 1 23 7
M  V30 26 1 16 11
M  V30 27 1 22 17
M  V30 28 1 1 25
M  V30 29 1 1 26
M  V30 30 1 1 27
M  V30 31 1 3 28
M  V30 32 1 4 29
M  V30 33 1 5 30
M  V30 34 1 10 31
M  V30 35 1 12 32
M  V30 36 1 13 33
M  V30 37 1 15 34
M  V30 38 1 18 35
M  V30 39 1 19 36
M  V30 40 1 20 37
M  V30 41 1 21 38
M  V30 END BOND
M  V30 END CTAB
M  END
>  <Dataset>  (911) 
ChEMBL_Kinases

>  <Ligand_Instance>  (911) 
nan

>  <PDB_ID>  (911) 
nan

>  <Standardized_SMILES>  (911) 
Cc1cccc(-c2nc(Nc3ccncn3)c3ccccc3n2)n1

>  <Name>  (911) 
nan

>  <Pocket>  (911) 
nan

>  <ATP_Site>  (911) 
nan

>  <Peripheral>  (911) 
nan

>  <Num_H_Atoms_ProtBoundConf>  (911) 
nan

>  <Num_Resolved_Atoms>  (911) 
nan

>  <Num_Not_Resolved_Atoms>  (911) 
nan

$$$$
CHEMBL564006
     RDKit          3D

  0  0  0  0  0  0  0  0  0  0999 V3000
M  V30 BEGIN CTAB
M  V30 COUNTS 54 57 0 0 0
M  V30 BEGIN ATOM
M  V30 1 C -6.101088 -3.914780 1.174184 0
M  V30 2 S -4.636648 -3.608851 0.234618 0
M  V30 3 O -4.298690 -4.881430 -0.530879 0
M  V30 4 O -4.876443 -2.565121 -0.815405 0
M  V30 5 N -3.297036 -3.109523 1.167259 0
M  V30 6 C -2.828878 -4.076876 2.132509 0
M  V30 7 C -1.637302 -3.519334 2.906626 0
M  V30 8 C -0.564457 -3.091304 2.021407 0
M  V30 9 C -0.620459 -1.712334 1.710003 0
M  V30 10 C 0.282678 -1.070638 0.857373 0
M  V30 11 C 1.310892 -1.823236 0.266074 0
M  V30 12 N 2.111538 -0.979250 -0.553717 0
M  V30 13 C 1.650341 -0.750179 -1.893777 0
M  V30 14 O 0.590535 -1.247899 -2.387494 0
M  V30 15 C 2.539092 0.130967 -2.651918 0
M  V30 16 C 3.748794 -0.187649 -3.222144 0
M  V30 17 C 4.507930 0.750661 -3.910762 0
M  V30 18 C 3.995460 2.017736 -3.999678 0
M  V30 19 O 4.661696 3.060304 -4.670605 0
M  V30 20 C 2.803219 2.396352 -3.455999 0
M  V30 21 N 2.091701 3.527432 -3.391475 0
M  V30 22 C 0.959802 3.346418 -2.718263 0
M  V30 23 C -0.160518 4.172284 -2.330944 0
M  V30 24 C -1.272218 3.675593 -1.641117 0
M  V30 25 C -2.346489 4.411710 -1.239346 0
M  V30 26 C -2.396106 5.773085 -1.507431 0
M  V30 27 Cl -3.811221 6.613988 -0.953769 0
M  V30 28 C -1.340043 6.307421 -2.176409 0
M  V30 29 C -0.286732 5.525365 -2.559432 0
M  V30 30 Cl 0.970850 6.379824 -3.396067 0
M  V30 31 N 0.963090 2.043405 -2.345518 0
M  V30 32 C 2.071265 1.452208 -2.781388 0
M  V30 33 C 1.369816 -3.163069 0.565352 0
M  V30 34 C 0.461704 -3.748171 1.408054 0
M  V30 35 H -6.980273 -3.780989 0.484032 0
M  V30 36 H -6.153057 -3.195519 2.021196 0
M  V30 37 H -6.136527 -4.942847 1.606163 0
M  V30 38 H -3.511771 -2.187009 1.605583 0
M  V30 39 H -3.641336 -4.169022 2.912156 0
M  V30 40 H -2.674888 -5.075600 1.749584 0
M  V30 41 H -1.257553 -4.277657 3.611490 0
M  V30 42 H -2.040329 -2.688379 3.508264 0
M  V30 43 H -1.413496 -1.070526 2.148731 0
M  V30 44 H 0.122187 0.006865 0.705878 0
M  V30 45 H 2.995151 -0.555227 -0.182327 0
M  V30 46 H 4.062214 -1.213121 -3.100646 0
M  V30 47 H 5.451440 0.494261 -4.347968 0
M  V30 48 H 5.532501 2.798265 -5.124929 0
M  V30 49 H 2.369525 4.413112 -3.802876 0
M  V30 50 H -1.287444 2.598382 -1.403479 0
M  V30 51 H -3.148147 3.912812 -0.716702 0
M  V30 52 H -1.426644 7.366006 -2.356218 0
M  V30 53 H 2.178935 -3.662143 0.076388 0
M  V30 54 H 0.514928 -4.788019 1.636172 0
M  V30 END ATOM
M  V30 BEGIN BOND
M  V30 1 1 1 2
M  V30 2 2 2 3
M  V30 3 2 2 4
M  V30 4 1 2 5
M  V30 5 1 5 6
M  V30 6 1 6 7
M  V30 7 1 7 8
M  V30 8 2 8 9
M  V30 9 1 9 10
M  V30 10 2 10 11
M  V30 11 1 11 12
M  V30 12 1 12 13
M  V30 13 2 13 14
M  V30 14 1 13 15
M  V30 15 2 15 16
M  V30 16 1 16 17
M  V30 17 2 17 18
M  V30 18 1 18 19
M  V30 19 1 18 20
M  V30 20 1 20 21
M  V30 21 1 21 22
M  V30 22 1 22 23
M  V30 23 2 23 24
M  V30 24 1 24 25
M  V30 25 2 25 26
M  V30 26 1 26 27
M  V30 27 1 26 28
M  V30 28 2 28 29
M  V30 29 1 29 30
M  V30 30 2 22 31
M  V30 31 1 31 32
M  V30 32 1 11 33
M  V30 33 2 33 34
M  V30 34 1 34 8
M  V30 35 1 32 15
M  V30 36 2 32 20
M  V30 37 1 29 23
M  V30 38 1 1 35
M  V30 39 1 1 36
M  V30 40 1 1 37
M  V30 41 1 5 38
M  V30 42 1 6 39
M  V30 43 1 6 40
M  V30 44 1 7 41
M  V30 45 1 7 42
M  V30 46 1 9 43
M  V30 47 1 10 44
M  V30 48 1 12 45
M  V30 49 1 16 46
M  V30 50 1 17 47
M  V30 51 1 19 48
M  V30 52 1 21 49
M  V30 53 1 24 50
M  V30 54 1 25 51
M  V30 55 1 28 52
M  V30 56 1 33 53
M  V30 57 1 34 54
M  V30 END BOND
M  V30 END CTAB
M  END
>  <Dataset>  (912) 
ChEMBL_Kinases

>  <Ligand_Instance>  (912) 
nan

>  <PDB_ID>  (912) 
nan

>  <Standardized_SMILES>  (912) 
CS(=O)(=O)NCCc1ccc(NC(=O)c2ccc(O)c3[nH]c(-c4ccc(Cl)cc4Cl)nc23)cc1

>  <Name>  (912) 
nan

>  <Pocket>  (912) 
nan

>  <ATP_Site>  (912) 
nan

>  <Peripheral>  (912) 
nan

>  <Num_H_Atoms_ProtBoundConf>  (912) 
nan

>  <Num_Resolved_Atoms>  (912) 
nan

>  <Num_Not_Resolved_Atoms>  (912) 
nan

$$$$
CHEMBL564033
     RDKit          3D

  0  0  0  0  0  0  0  0  0  0999 V3000
M  V30 BEGIN CTAB
M  V30 COUNTS 61 66 0 0 0
M  V30 BEGIN ATOM
M  V30 1 C 0.369939 -1.873527 5.716824 0
M  V30 2 N 0.254561 -2.178127 4.283874 0
M  V30 3 C 1.226887 -2.778484 3.573439 0
M  V30 4 C 0.827249 -2.926187 2.273288 0
M  V30 5 C 1.633462 -3.578652 1.252653 0
M  V30 6 C 1.962663 -3.230331 0.028311 0
M  V30 7 C 1.722364 -2.098597 -0.882184 0
M  V30 8 N 1.927314 -0.800865 -0.666144 0
M  V30 9 N 1.591579 -0.091288 -1.730086 0
M  V30 10 C 1.637405 1.293383 -2.067844 0
M  V30 11 C 0.444382 2.124298 -1.796918 0
M  V30 12 C 0.106686 2.183463 -0.350590 0
M  V30 13 N -1.045304 2.997065 -0.056504 0
M  V30 14 C -1.278640 3.084719 1.332192 0
M  V30 15 C -2.278535 2.178650 1.924711 0
M  V30 16 O -3.148215 1.569169 1.081395 0
M  V30 17 C -2.729490 1.323331 -0.198687 0
M  V30 18 C -2.241406 2.639524 -0.766449 0
M  V30 19 C 1.135460 -0.937362 -2.712684 0
M  V30 20 N 0.664010 -0.822923 -3.965337 0
M  V30 21 C 0.293208 -1.916230 -4.648450 0
M  V30 22 C 0.351397 -3.207395 -4.167467 0
M  V30 23 C 0.834889 -3.334021 -2.880872 0
M  V30 24 C 1.219174 -2.224483 -2.168641 0
M  V30 25 C 2.820564 -4.306985 -0.526210 0
M  V30 26 O 3.395953 -4.463539 -1.642915 0
M  V30 27 N 2.999060 -5.349938 0.441363 0
M  V30 28 C 2.253056 -4.889550 1.555426 0
M  V30 29 O 2.161621 -5.551313 2.641158 0
M  V30 30 C -0.436230 -2.384526 2.231296 0
M  V30 31 C -1.326324 -2.270433 1.191440 0
M  V30 32 C -2.564902 -1.680302 1.462862 0
M  V30 33 C -2.883735 -1.229008 2.725096 0
M  V30 34 C -1.991381 -1.340603 3.776749 0
M  V30 35 C -0.787265 -1.921100 3.487040 0
M  V30 36 H -0.291590 -1.021148 5.951989 0
M  V30 37 H 0.186002 -2.765265 6.321350 0
M  V30 38 H 1.418953 -1.538021 5.864466 0
M  V30 39 H 2.190020 -3.096344 3.986273 0
M  V30 40 H 2.032039 1.430358 -3.123421 0
M  V30 41 H 2.504647 1.713189 -1.455689 0
M  V30 42 H -0.420589 1.913578 -2.454229 0
M  V30 43 H 0.735552 3.179081 -2.093315 0
M  V30 44 H 0.939933 2.640469 0.255721 0
M  V30 45 H -0.055772 1.184432 0.098908 0
M  V30 46 H -0.297958 2.914982 1.862021 0
M  V30 47 H -1.488163 4.172574 1.560754 0
M  V30 48 H -1.826209 1.417520 2.607123 0
M  V30 49 H -2.911030 2.800699 2.627993 0
M  V30 50 H -3.642262 1.051939 -0.785903 0
M  V30 51 H -1.953624 0.549775 -0.254005 0
M  V30 52 H -2.199171 2.682818 -1.846345 0
M  V30 53 H -3.013027 3.395956 -0.460036 0
M  V30 54 H -0.073080 -1.716060 -5.653649 0
M  V30 55 H 0.020352 -4.012487 -4.820400 0
M  V30 56 H 0.859221 -4.358308 -2.534207 0
M  V30 57 H 3.527615 -6.243559 0.399021 0
M  V30 58 H -1.059858 -2.628377 0.208593 0
M  V30 59 H -3.299387 -1.564748 0.684867 0
M  V30 60 H -3.838092 -0.767201 2.960669 0
M  V30 61 H -2.193791 -1.004304 4.775746 0
M  V30 END ATOM
M  V30 BEGIN BOND
M  V30 1 1 1 2
M  V30 2 1 2 3
M  V30 3 2 3 4
M  V30 4 1 4 5
M  V30 5 2 5 6
M  V30 6 1 6 7
M  V30 7 2 7 8
M  V30 8 1 8 9
M  V30 9 1 9 10
M  V30 10 1 10 11
M  V30 11 1 11 12
M  V30 12 1 12 13
M  V30 13 1 13 14
M  V30 14 1 14 15
M  V30 15 1 15 16
M  V30 16 1 16 17
M  V30 17 1 17 18
M  V30 18 1 9 19
M  V30 19 2 19 20
M  V30 20 1 20 21
M  V30 21 2 21 22
M  V30 22 1 22 23
M  V30 23 2 23 24
M  V30 24 1 6 25
M  V30 25 2 25 26
M  V30 26 1 25 27
M  V30 27 1 27 28
M  V30 28 2 28 29
M  V30 29 1 4 30
M  V30 30 2 30 31
M  V30 31 1 31 32
M  V30 32 2 32 33
M  V30 33 1 33 34
M  V30 34 2 34 35
M  V30 35 1 35 2
M  V30 36 1 28 5
M  V30 37 1 35 30
M  V30 38 1 24 7
M  V30 39 1 18 13
M  V30 40 1 24 19
M  V30 41 1 1 36
M  V30 42 1 1 37
M  V30 43 1 1 38
M  V30 44 1 3 39
M  V30 45 1 10 40
M  V30 46 1 10 41
M  V30 47 1 11 42
M  V30 48 1 11 43
M  V30 49 1 12 44
M  V30 50 1 12 45
M  V30 51 1 14 46
M  V30 52 1 14 47
M  V30 53 1 15 48
M  V30 54 1 15 49
M  V30 55 1 17 50
M  V30 56 1 17 51
M  V30 57 1 18 52
M  V30 58 1 18 53
M  V30 59 1 21 54
M  V30 60 1 22 55
M  V30 61 1 23 56
M  V30 62 1 27 57
M  V30 63 1 31 58
M  V30 64 1 32 59
M  V30 65 1 33 60
M  V30 66 1 34 61
M  V30 END BOND
M  V30 END CTAB
M  END
>  <Dataset>  (913) 
ChEMBL_Kinases

>  <Ligand_Instance>  (913) 
nan

>  <PDB_ID>  (913) 
nan

>  <Standardized_SMILES>  (913) 
Cn1cc(C2=C(c3nn(CCCN4CCOCC4)c4ncccc34)C(=O)NC2=O)c2ccccc21

>  <Name>  (913) 
nan

>  <Pocket>  (913) 
nan

>  <ATP_Site>  (913) 
nan

>  <Peripheral>  (913) 
nan

>  <Num_H_Atoms_ProtBoundConf>  (913) 
nan

>  <Num_Resolved_Atoms>  (913) 
nan

>  <Num_Not_Resolved_Atoms>  (913) 
nan

$$$$
CHEMBL564054
     RDKit          3D

  0  0  0  0  0  0  0  0  0  0999 V3000
M  V30 BEGIN CTAB
M  V30 COUNTS 51 55 0 0 0
M  V30 BEGIN ATOM
M  V30 1 C 1.731572 -4.352766 1.512061 0
M  V30 2 N 0.665309 -3.450082 1.871232 0
M  V30 3 C 0.365266 -3.264913 3.171267 0
M  V30 4 O 1.030197 -3.890422 4.039209 0
M  V30 5 C -0.655312 -2.401870 3.529809 0
M  V30 6 C -1.403767 -1.700815 2.605562 0
M  V30 7 N -2.458535 -0.809440 2.941151 0
M  V30 8 C -2.649061 0.578224 2.699579 0
M  V30 9 C -1.676433 1.277400 2.020074 0
M  V30 10 C -1.926329 2.618267 1.819323 0
M  V30 11 C -1.016254 3.520352 1.122327 0
M  V30 12 O -1.219051 4.762074 0.920822 0
M  V30 13 N 0.227060 3.094879 0.580137 0
M  V30 14 C 1.158567 3.958170 -0.118449 0
M  V30 15 C 2.646271 3.640176 0.006168 0
M  V30 16 C 1.968570 3.338811 -1.276074 0
M  V30 17 C -3.097623 3.230627 2.278661 0
M  V30 18 C -4.034229 2.457909 2.957578 0
M  V30 19 C -3.829171 1.093432 3.187513 0
M  V30 20 Cl -5.014764 0.149321 4.038499 0
M  V30 21 C -1.087339 -1.897440 1.257589 0
M  V30 22 C -1.539258 -1.438620 0.066114 0
M  V30 23 N -0.805951 -2.017804 -0.912025 0
M  V30 24 N 0.098191 -2.831152 -0.370662 0
M  V30 25 C 0.962198 -3.528382 -1.260589 0
M  V30 26 C 0.959283 -4.855284 -1.634660 0
M  V30 27 F -0.014876 -5.573065 -1.057668 0
M  V30 28 C 1.910333 -5.308258 -2.526060 0
M  V30 29 C 2.871645 -4.470634 -3.059622 0
M  V30 30 C 2.879374 -3.146349 -2.690185 0
M  V30 31 C 1.936878 -2.681461 -1.802241 0
M  V30 32 F 2.062155 -1.347806 -1.524494 0
M  V30 33 C -0.059692 -2.770379 0.964994 0
M  V30 34 H 1.280717 -5.358607 1.298824 0
M  V30 35 H 2.383905 -4.521679 2.415382 0
M  V30 36 H 2.408766 -3.987904 0.738063 0
M  V30 37 H -0.914613 -2.236842 4.567069 0
M  V30 38 H -3.120736 -1.437706 3.444481 0
M  V30 39 H -0.762845 0.857723 1.648379 0
M  V30 40 H 0.526339 2.099185 0.670568 0
M  V30 41 H 0.899816 5.036218 -0.251024 0
M  V30 42 H 2.866609 2.857264 0.755750 0
M  V30 43 H 3.354077 4.484174 0.009095 0
M  V30 44 H 1.632715 2.320407 -1.558795 0
M  V30 45 H 2.198414 3.997431 -2.139952 0
M  V30 46 H -3.303105 4.276775 2.127549 0
M  V30 47 H -4.933913 2.963526 3.301763 0
M  V30 48 H -2.354958 -0.728821 0.000018 0
M  V30 49 H 1.846375 -6.356584 -2.772128 0
M  V30 50 H 3.606302 -4.846135 -3.755495 0
M  V30 51 H 3.648613 -2.527832 -3.131826 0
M  V30 END ATOM
M  V30 BEGIN BOND
M  V30 1 1 1 2
M  V30 2 1 2 3
M  V30 3 2 3 4
M  V30 4 1 3 5
M  V30 5 2 5 6
M  V30 6 1 6 7
M  V30 7 1 7 8
M  V30 8 2 8 9
M  V30 9 1 9 10
M  V30 10 1 10 11
M  V30 11 2 11 12
M  V30 12 1 11 13
M  V30 13 1 13 14
M  V30 14 1 14 15
M  V30 15 1 15 16
M  V30 16 2 10 17
M  V30 17 1 17 18
M  V30 18 2 18 19
M  V30 19 1 19 20
M  V30 20 1 6 21
M  V30 21 1 21 22
M  V30 22 2 22 23
M  V30 23 1 23 24
M  V30 24 1 24 25
M  V30 25 2 25 26
M  V30 26 1 26 27
M  V30 27 1 26 28
M  V30 28 2 28 29
M  V30 29 1 29 30
M  V30 30 2 30 31
M  V30 31 1 31 32
M  V30 32 1 24 33
M  V30 33 1 33 2
M  V30 34 1 19 8
M  V30 35 2 33 21
M  V30 36 1 16 14
M  V30 37 1 31 25
M  V30 38 1 1 34
M  V30 39 1 1 35
M  V30 40 1 1 36
M  V30 41 1 5 37
M  V30 42 1 7 38
M  V30 43 1 9 39
M  V30 44 1 13 40
M  V30 45 1 14 41
M  V30 46 1 15 42
M  V30 47 1 15 43
M  V30 48 1 16 44
M  V30 49 1 16 45
M  V30 50 1 17 46
M  V30 51 1 18 47
M  V30 52 1 22 48
M  V30 53 1 28 49
M  V30 54 1 29 50
M  V30 55 1 30 51
M  V30 END BOND
M  V30 END CTAB
M  END
>  <Dataset>  (914) 
ChEMBL_Kinases

>  <Ligand_Instance>  (914) 
nan

>  <PDB_ID>  (914) 
nan

>  <Standardized_SMILES>  (914) 
Cn1c(=O)cc(Nc2cc(C(=O)NC3CC3)ccc2Cl)c2cnn(-c3c(F)cccc3F)c21

>  <Name>  (914) 
nan

>  <Pocket>  (914) 
nan

>  <ATP_Site>  (914) 
nan

>  <Peripheral>  (914) 
nan

>  <Num_H_Atoms_ProtBoundConf>  (914) 
nan

>  <Num_Resolved_Atoms>  (914) 
nan

>  <Num_Not_Resolved_Atoms>  (914) 
nan

$$$$
CHEMBL564076
     RDKit          3D

  0  0  0  0  0  0  0  0  0  0999 V3000
M  V30 BEGIN CTAB
M  V30 COUNTS 43 47 0 0 0
M  V30 BEGIN ATOM
M  V30 1 C -1.287775 -4.989045 -2.063036 0
M  V30 2 C -0.681923 -5.237881 -0.680244 0 CFG=2
M  V30 3 C -0.875022 -4.074653 0.221946 0
M  V30 4 N -0.146944 -2.883525 -0.167073 0
M  V30 5 C 1.228914 -2.586510 0.007040 0
M  V30 6 C 2.139485 -3.638135 -0.395446 0
M  V30 7 S 3.754978 -3.015446 -0.203953 0
M  V30 8 C 3.201899 -1.335555 0.423293 0
M  V30 9 C 4.000298 -0.299006 0.788227 0
M  V30 10 C 3.372168 0.842192 1.230473 0
M  V30 11 C 1.994335 0.783484 1.248621 0
M  V30 12 N 1.449327 1.940467 1.737803 0
M  V30 13 C 0.127381 2.110501 1.886180 0
M  V30 14 C -0.359178 3.377953 2.413863 0
M  V30 15 C 0.585748 4.332143 2.730170 0
M  V30 16 C 0.238089 5.579424 3.241346 0
M  V30 17 C -1.120065 5.851291 3.431928 0
M  V30 18 C -2.082012 4.902889 3.118942 0
M  V30 19 C -1.685638 3.683506 2.615713 0
M  V30 20 C -0.673894 1.058935 1.522641 0
M  V30 21 C -0.098145 -0.093265 1.032497 0
M  V30 22 C 1.241052 -0.294179 0.866828 0
M  V30 23 C 1.824672 -1.439430 0.417705 0
M  V30 24 C 1.979885 -5.000340 -0.868072 0
M  V30 25 O 3.005496 -5.578431 -1.259974 0
M  V30 26 N 0.687459 -5.651625 -0.881260 0
M  V30 27 H -2.377160 -4.857560 -2.019754 0
M  V30 28 H -1.028073 -5.874251 -2.681436 0
M  V30 29 H -0.758491 -4.134862 -2.562387 0
M  V30 30 H -1.294931 -6.080333 -0.249854 0
M  V30 31 H -1.971724 -3.830521 0.183912 0
M  V30 32 H -0.678445 -4.357287 1.253123 0
M  V30 33 H -0.592000 -2.044261 -0.691734 0
M  V30 34 H 5.069645 -0.393338 0.724290 0
M  V30 35 H 3.962645 1.682181 1.524935 0
M  V30 36 H 1.642546 4.168376 2.600636 0
M  V30 37 H 0.965835 6.335170 3.493146 0
M  V30 38 H -1.392942 6.834303 3.834731 0
M  V30 39 H -3.135013 5.144445 3.278781 0
M  V30 40 H -2.433091 2.963934 2.379333 0
M  V30 41 H -1.735284 1.208781 1.648700 0
M  V30 42 H -0.855988 -0.820093 0.843186 0
M  V30 43 H 0.766848 -6.669824 -1.086977 0
M  V30 END ATOM
M  V30 BEGIN BOND
M  V30 1 1 1 2
M  V30 2 1 2 3
M  V30 3 1 3 4
M  V30 4 1 4 5
M  V30 5 2 5 6
M  V30 6 1 6 7
M  V30 7 1 7 8
M  V30 8 2 8 9
M  V30 9 1 9 10
M  V30 10 2 10 11
M  V30 11 1 11 12
M  V30 12 2 12 13
M  V30 13 1 13 14
M  V30 14 2 14 15
M  V30 15 1 15 16
M  V30 16 2 16 17
M  V30 17 1 17 18
M  V30 18 2 18 19
M  V30 19 1 13 20
M  V30 20 2 20 21
M  V30 21 1 21 22
M  V30 22 2 22 23
M  V30 23 1 6 24
M  V30 24 2 24 25
M  V30 25 1 24 26
M  V30 26 1 26 2
M  V30 27 1 23 5
M  V30 28 1 23 8
M  V30 29 1 22 11
M  V30 30 1 19 14
M  V30 31 1 1 27
M  V30 32 1 1 28
M  V30 33 1 1 29
M  V30 34 1 2 30 CFG=1
M  V30 35 1 3 31
M  V30 36 1 3 32
M  V30 37 1 4 33
M  V30 38 1 9 34
M  V30 39 1 10 35
M  V30 40 1 15 36
M  V30 41 1 16 37
M  V30 42 1 17 38
M  V30 43 1 18 39
M  V30 44 1 19 40
M  V30 45 1 20 41
M  V30 46 1 21 42
M  V30 47 1 26 43
M  V30 END BOND
M  V30 END CTAB
M  END
>  <Dataset>  (915) 
ChEMBL_Kinases

>  <Ligand_Instance>  (915) 
nan

>  <PDB_ID>  (915) 
nan

>  <Standardized_SMILES>  (915) 
C[C@@H]1CNc2c(sc3ccc4nc(-c5ccccc5)ccc4c23)C(=O)N1

>  <Name>  (915) 
nan

>  <Pocket>  (915) 
nan

>  <ATP_Site>  (915) 
nan

>  <Peripheral>  (915) 
nan

>  <Num_H_Atoms_ProtBoundConf>  (915) 
nan

>  <Num_Resolved_Atoms>  (915) 
nan

>  <Num_Not_Resolved_Atoms>  (915) 
nan

$$$$
CHEMBL555205
     RDKit          3D

  0  0  0  0  0  0  0  0  0  0999 V3000
M  V30 BEGIN CTAB
M  V30 COUNTS 34 36 0 0 0
M  V30 BEGIN ATOM
M  V30 1 C 0.009572 -3.099061 4.834625 0
M  V30 2 O 0.667672 -3.929924 3.927398 0
M  V30 3 C 0.879981 -3.631589 2.587917 0
M  V30 4 C 1.552238 -4.585835 1.856183 0
M  V30 5 C 1.765202 -4.295307 0.528597 0
M  V30 6 C 1.288819 -3.082768 0.055771 0
M  V30 7 S 1.394769 -2.366456 -1.665780 0
M  V30 8 C 0.559529 -0.904816 -1.267392 0
M  V30 9 C 0.233442 -0.984096 0.092568 0
M  V30 10 C 0.606632 -2.100360 0.772473 0
M  V30 11 C 0.418172 -2.437575 2.095312 0
M  V30 12 N -0.473734 0.088456 0.744729 0
M  V30 13 C -0.526102 1.503379 0.341064 0
M  V30 14 C -1.240745 1.709477 -0.951209 0 CFG=1
M  V30 15 C -1.613206 3.186761 -1.038787 0
M  V30 16 N -0.470067 4.053950 -0.998398 0
M  V30 17 N -0.441786 1.354780 -2.107871 0
M  V30 18 C 0.304715 0.139008 -2.252587 0
M  V30 19 O 0.831861 -0.104051 -3.367371 0
M  V30 20 H -0.951222 -2.689805 4.475610 0
M  V30 21 H 0.700691 -2.294293 5.152019 0
M  V30 22 H -0.209827 -3.698400 5.741882 0
M  V30 23 H 1.923855 -5.519168 2.201835 0
M  V30 24 H 2.276848 -4.948907 -0.162614 0
M  V30 25 H -0.092157 -1.780569 2.775300 0
M  V30 26 H -1.023276 -0.165018 1.620729 0
M  V30 27 H -1.011592 2.058288 1.140056 0
M  V30 28 H 0.517507 1.885871 0.206232 0
M  V30 29 H -2.218415 1.163642 -0.928091 0
M  V30 30 H -2.319744 3.465399 -0.233741 0
M  V30 31 H -2.161151 3.384377 -1.992608 0
M  V30 32 H 0.040131 4.041796 -1.917155 0
M  V30 33 H -0.838277 5.021370 -0.883925 0
M  V30 34 H -0.381944 2.017960 -2.924527 0
M  V30 END ATOM
M  V30 BEGIN BOND
M  V30 1 1 1 2
M  V30 2 1 2 3
M  V30 3 2 3 4
M  V30 4 1 4 5
M  V30 5 2 5 6
M  V30 6 1 6 7
M  V30 7 1 7 8
M  V30 8 2 8 9
M  V30 9 1 9 10
M  V30 10 2 10 11
M  V30 11 1 9 12
M  V30 12 1 12 13
M  V30 13 1 13 14
M  V30 14 1 14 15
M  V30 15 1 15 16
M  V30 16 1 14 17
M  V30 17 1 17 18
M  V30 18 2 18 19
M  V30 19 1 11 3
M  V30 20 1 10 6
M  V30 21 1 18 8
M  V30 22 1 1 20
M  V30 23 1 1 21
M  V30 24 1 1 22
M  V30 25 1 4 23
M  V30 26 1 5 24
M  V30 27 1 11 25
M  V30 28 1 12 26
M  V30 29 1 13 27
M  V30 30 1 13 28
M  V30 31 1 14 29 CFG=1
M  V30 32 1 15 30
M  V30 33 1 15 31
M  V30 34 1 16 32
M  V30 35 1 16 33
M  V30 36 1 17 34
M  V30 END BOND
M  V30 END CTAB
M  END
>  <Dataset>  (916) 
ChEMBL_Kinases

>  <Ligand_Instance>  (916) 
nan

>  <PDB_ID>  (916) 
nan

>  <Standardized_SMILES>  (916) 
COc1ccc2sc3c(c2c1)NC[C@@H](CN)NC3=O

>  <Name>  (916) 
nan

>  <Pocket>  (916) 
nan

>  <ATP_Site>  (916) 
nan

>  <Peripheral>  (916) 
nan

>  <Num_H_Atoms_ProtBoundConf>  (916) 
nan

>  <Num_Resolved_Atoms>  (916) 
nan

>  <Num_Not_Resolved_Atoms>  (916) 
nan

$$$$
CHEMBL564121
     RDKit          3D

  0  0  0  0  0  0  0  0  0  0999 V3000
M  V30 BEGIN CTAB
M  V30 COUNTS 53 57 0 0 0
M  V30 BEGIN ATOM
M  V30 1 C -1.657894 1.860453 -1.335823 0
M  V30 2 C -0.250474 1.847710 -0.861141 0
M  V30 3 C 0.776302 1.989421 -1.771753 0
M  V30 4 C 2.096321 1.982768 -1.370571 0
M  V30 5 C 2.415366 1.832871 -0.039257 0
M  V30 6 C 3.763540 1.808274 0.518557 0
M  V30 7 O 4.071631 1.672178 1.732186 0
M  V30 8 N 4.912792 1.944428 -0.313927 0
M  V30 9 C 6.292884 1.934513 0.130017 0
M  V30 10 C 7.309518 2.802572 -0.536997 0
M  V30 11 C 7.339375 1.287613 -0.696877 0
M  V30 12 C 1.371078 1.693487 0.847398 0
M  V30 13 C 0.023139 1.693173 0.496892 0
M  V30 14 O -0.996782 1.551492 1.409067 0
M  V30 15 C -1.942909 0.538015 1.412151 0
M  V30 16 C -3.296336 0.828744 1.299770 0
M  V30 17 C -4.193958 -0.222954 1.308745 0
M  V30 18 O -5.399608 0.130023 1.202324 0
M  V30 19 N -3.861472 -1.519322 1.418551 0
M  V30 20 C -4.854391 -2.571079 1.420976 0
M  V30 21 C -2.546406 -1.781435 1.526382 0
M  V30 22 C -1.584924 -0.790228 1.525846 0
M  V30 23 C -0.375991 -1.436297 1.652165 0
M  V30 24 N -0.639274 -2.769214 1.723548 0
M  V30 25 N -1.948555 -2.981160 1.647922 0
M  V30 26 C -2.446293 -4.313255 1.703162 0
M  V30 27 C -2.464042 -5.008100 2.917974 0
M  V30 28 C -2.948796 -6.301468 2.964130 0
M  V30 29 C -3.429559 -6.960623 1.841604 0
M  V30 30 C -3.407828 -6.261808 0.638877 0
M  V30 31 F -3.862589 -6.854709 -0.480289 0
M  V30 32 C -2.930699 -4.987145 0.590372 0
M  V30 33 H -2.131005 0.878183 -1.387903 0
M  V30 34 H -2.273252 2.605616 -0.751443 0
M  V30 35 H -1.686084 2.266508 -2.375267 0
M  V30 36 H 0.612278 2.112838 -2.842037 0
M  V30 37 H 2.920643 2.091712 -2.061466 0
M  V30 38 H 4.831327 2.065934 -1.346771 0
M  V30 39 H 6.418649 1.808025 1.215521 0
M  V30 40 H 8.132639 3.272222 0.017283 0
M  V30 41 H 6.999136 3.409036 -1.418956 0
M  V30 42 H 7.080046 0.844923 -1.694093 0
M  V30 43 H 8.158857 0.730932 -0.197256 0
M  V30 44 H 1.564156 1.572577 1.904394 0
M  V30 45 H -3.587491 1.858192 1.210710 0
M  V30 46 H -4.704407 -3.305702 2.216700 0
M  V30 47 H -5.833968 -2.068387 1.673961 0
M  V30 48 H -5.027051 -2.991652 0.409613 0
M  V30 49 H 0.574905 -0.966197 1.685873 0
M  V30 50 H -2.105473 -4.561861 3.840208 0
M  V30 51 H -2.983423 -6.887075 3.891521 0
M  V30 52 H -3.804856 -7.973065 1.898179 0
M  V30 53 H -2.902727 -4.415682 -0.343148 0
M  V30 END ATOM
M  V30 BEGIN BOND
M  V30 1 1 1 2
M  V30 2 2 2 3
M  V30 3 1 3 4
M  V30 4 2 4 5
M  V30 5 1 5 6
M  V30 6 2 6 7
M  V30 7 1 6 8
M  V30 8 1 8 9
M  V30 9 1 9 10
M  V30 10 1 10 11
M  V30 11 1 5 12
M  V30 12 2 12 13
M  V30 13 1 13 14
M  V30 14 1 14 15
M  V30 15 2 15 16
M  V30 16 1 16 17
M  V30 17 2 17 18
M  V30 18 1 17 19
M  V30 19 1 19 20
M  V30 20 1 19 21
M  V30 21 2 21 22
M  V30 22 1 22 23
M  V30 23 2 23 24
M  V30 24 1 24 25
M  V30 25 1 25 26
M  V30 26 2 26 27
M  V30 27 1 27 28
M  V30 28 2 28 29
M  V30 29 1 29 30
M  V30 30 1 30 31
M  V30 31 2 30 32
M  V30 32 1 13 2
M  V30 33 1 22 15
M  V30 34 1 32 26
M  V30 35 1 11 9
M  V30 36 1 25 21
M  V30 37 1 1 33
M  V30 38 1 1 34
M  V30 39 1 1 35
M  V30 40 1 3 36
M  V30 41 1 4 37
M  V30 42 1 8 38
M  V30 43 1 9 39
M  V30 44 1 10 40
M  V30 45 1 10 41
M  V30 46 1 11 42
M  V30 47 1 11 43
M  V30 48 1 12 44
M  V30 49 1 16 45
M  V30 50 1 20 46
M  V30 51 1 20 47
M  V30 52 1 20 48
M  V30 53 1 23 49
M  V30 54 1 27 50
M  V30 55 1 28 51
M  V30 56 1 29 52
M  V30 57 1 32 53
M  V30 END BOND
M  V30 END CTAB
M  END
>  <Dataset>  (917) 
ChEMBL_Kinases

>  <Ligand_Instance>  (917) 
nan

>  <PDB_ID>  (917) 
nan

>  <Standardized_SMILES>  (917) 
Cc1ccc(C(=O)NC2CC2)cc1Oc1cc(=O)n(C)c2c1cnn2-c1cccc(F)c1

>  <Name>  (917) 
nan

>  <Pocket>  (917) 
nan

>  <ATP_Site>  (917) 
nan

>  <Peripheral>  (917) 
nan

>  <Num_H_Atoms_ProtBoundConf>  (917) 
nan

>  <Num_Resolved_Atoms>  (917) 
nan

>  <Num_Not_Resolved_Atoms>  (917) 
nan

$$$$
CHEMBL564250
     RDKit          3D

  0  0  0  0  0  0  0  0  0  0999 V3000
M  V30 BEGIN CTAB
M  V30 COUNTS 39 42 0 0 0
M  V30 BEGIN ATOM
M  V30 1 C 2.774697 -5.093540 0.240728 0
M  V30 2 C 2.387207 -4.365790 1.478114 0
M  V30 3 C 2.791114 -4.716589 2.759510 0
M  V30 4 C 2.384316 -3.984226 3.860042 0
M  V30 5 C 1.572856 -2.891694 3.731928 0
M  V30 6 C 1.191924 -2.573110 2.446095 0
M  V30 7 C 0.327766 -1.422263 2.232646 0
M  V30 8 N -0.110754 -1.010103 1.038877 0
M  V30 9 C -0.904194 0.040305 0.806857 0
M  V30 10 N -1.165272 0.183905 -0.582140 0
M  V30 11 C -0.362325 1.009519 -1.449395 0
M  V30 12 C -0.589731 1.176408 -2.803130 0
M  V30 13 C 0.265636 2.005295 -3.524416 0
M  V30 14 N 1.303104 2.644487 -2.937947 0
M  V30 15 C 1.575731 2.521421 -1.622483 0
M  V30 16 C 0.717159 1.696851 -0.928049 0
M  V30 17 C -1.348567 0.814498 1.852415 0
M  V30 18 C -2.153154 1.902570 1.730906 0
M  V30 19 C -2.738138 2.506457 0.508343 0
M  V30 20 C -2.454974 2.522540 2.999359 0
M  V30 21 S -1.545477 1.468181 4.231168 0
M  V30 22 C -0.897641 0.387284 3.057200 0
M  V30 23 N -0.096834 -0.677154 3.265495 0
M  V30 24 N 1.587683 -3.286957 1.366807 0
M  V30 25 H 3.531291 -5.872870 0.492612 0
M  V30 26 H 1.842331 -5.609783 -0.120682 0
M  V30 27 H 3.132349 -4.355288 -0.498246 0
M  V30 28 H 3.432247 -5.585945 2.824674 0
M  V30 29 H 2.748377 -4.328928 4.837136 0
M  V30 30 H 1.251732 -2.316641 4.581164 0
M  V30 31 H -1.950044 -0.297912 -1.073228 0
M  V30 32 H -1.429689 0.648072 -3.234828 0
M  V30 33 H 0.079015 2.132189 -4.595189 0
M  V30 34 H 2.391377 3.014006 -1.121161 0
M  V30 35 H 0.898480 1.565772 0.142784 0
M  V30 36 H -3.717743 3.007183 0.765824 0
M  V30 37 H -2.914425 1.710813 -0.244699 0
M  V30 38 H -2.094341 3.321790 0.105457 0
M  V30 39 H -3.126129 3.468442 3.125566 0
M  V30 END ATOM
M  V30 BEGIN BOND
M  V30 1 1 1 2
M  V30 2 2 2 3
M  V30 3 1 3 4
M  V30 4 2 4 5
M  V30 5 1 5 6
M  V30 6 1 6 7
M  V30 7 2 7 8
M  V30 8 1 8 9
M  V30 9 1 9 10
M  V30 10 1 10 11
M  V30 11 2 11 12
M  V30 12 1 12 13
M  V30 13 2 13 14
M  V30 14 1 14 15
M  V30 15 2 15 16
M  V30 16 2 9 17
M  V30 17 1 17 18
M  V30 18 1 18 19
M  V30 19 2 18 20
M  V30 20 1 20 21
M  V30 21 1 21 22
M  V30 22 2 22 23
M  V30 23 2 6 24
M  V30 24 1 24 2
M  V30 25 1 23 7
M  V30 26 1 16 11
M  V30 27 1 22 17
M  V30 28 1 1 25
M  V30 29 1 1 26
M  V30 30 1 1 27
M  V30 31 1 3 28
M  V30 32 1 4 29
M  V30 33 1 5 30
M  V30 34 1 10 31
M  V30 35 1 12 32
M  V30 36 1 13 33
M  V30 37 1 15 34
M  V30 38 1 16 35
M  V30 39 1 19 36
M  V30 40 1 19 37
M  V30 41 1 19 38
M  V30 42 1 20 39
M  V30 END BOND
M  V30 END CTAB
M  END
>  <Dataset>  (918) 
ChEMBL_Kinases

>  <Ligand_Instance>  (918) 
nan

>  <PDB_ID>  (918) 
nan

>  <Standardized_SMILES>  (918) 
Cc1cccc(-c2nc(Nc3ccncc3)c3c(C)csc3n2)n1

>  <Name>  (918) 
nan

>  <Pocket>  (918) 
nan

>  <ATP_Site>  (918) 
nan

>  <Peripheral>  (918) 
nan

>  <Num_H_Atoms_ProtBoundConf>  (918) 
nan

>  <Num_Resolved_Atoms>  (918) 
nan

>  <Num_Not_Resolved_Atoms>  (918) 
nan

$$$$
CHEMBL564431
     RDKit          3D

  0  0  0  0  0  0  0  0  0  0999 V3000
M  V30 BEGIN CTAB
M  V30 COUNTS 43 46 0 0 0
M  V30 BEGIN ATOM
M  V30 1 N 0.955099 -2.839105 4.623210 0
M  V30 2 C 1.761126 -1.790401 4.114808 0
M  V30 3 O 2.880972 -1.571347 4.615853 0
M  V30 4 C 1.211407 -1.043573 3.036208 0
M  V30 5 S 2.274503 0.369406 2.373123 0
M  V30 6 C 1.160086 0.879665 1.156945 0
M  V30 7 C 1.313708 1.995062 0.188080 0
M  V30 8 C 0.401696 2.391604 -0.789354 0
M  V30 9 N 0.955665 3.435975 -1.426415 0
M  V30 10 C 2.163076 3.666668 -0.856016 0
M  V30 11 C 3.060787 4.651274 -1.210291 0
M  V30 12 C 4.267010 4.781533 -0.544241 0
M  V30 13 C 4.488104 3.873451 0.470184 0
M  V30 14 C 3.558716 2.923508 0.770508 0
M  V30 15 N 2.381635 2.779133 0.137099 0
M  V30 16 C 0.112885 0.055137 1.265534 0
M  V30 17 C 0.094577 -0.925742 2.194535 0
M  V30 18 O -0.742320 -1.926207 2.608830 0
M  V30 19 C -1.993688 -2.212083 2.061252 0
M  V30 20 C -2.026672 -2.591896 0.651343 0
M  V30 21 C -2.450264 -1.827164 -0.435085 0
M  V30 22 C -2.470534 -2.245977 -1.737910 0
M  V30 23 C -2.043271 -3.523415 -2.031981 0
M  V30 24 C -1.621136 -4.292106 -0.967825 0
M  V30 25 C -1.586485 -3.897319 0.377104 0
M  V30 26 C -1.098875 -4.863230 1.406966 0
M  V30 27 F -0.761419 -6.043270 0.766450 0
M  V30 28 F -0.024841 -4.360743 2.124313 0
M  V30 29 F -2.124520 -5.187067 2.289856 0
M  V30 30 H 0.101481 -3.152819 5.168895 0
M  V30 31 H 0.114694 -3.149510 5.160436 0
M  V30 32 H -0.551062 1.868528 -0.912988 0
M  V30 33 H 2.862647 5.356102 -2.015065 0
M  V30 34 H 4.951560 5.546857 -0.828204 0
M  V30 35 H 5.442788 3.962474 1.010965 0
M  V30 36 H 3.787224 2.239775 1.574955 0
M  V30 37 H -0.738269 0.168924 0.610799 0
M  V30 38 H -2.624082 -1.273296 2.154316 0
M  V30 39 H -2.561623 -2.964613 2.653705 0
M  V30 40 H -2.784678 -0.813459 -0.166249 0
M  V30 41 H -2.811353 -1.598302 -2.522739 0
M  V30 42 H -2.025816 -3.934771 -3.030449 0
M  V30 43 H -1.285571 -5.297042 -1.202669 0
M  V30 END ATOM
M  V30 BEGIN BOND
M  V30 1 1 1 2
M  V30 2 2 2 3
M  V30 3 1 2 4
M  V30 4 1 4 5
M  V30 5 1 5 6
M  V30 6 1 6 7
M  V30 7 2 7 8
M  V30 8 1 8 9
M  V30 9 2 9 10
M  V30 10 1 10 11
M  V30 11 2 11 12
M  V30 12 1 12 13
M  V30 13 2 13 14
M  V30 14 1 14 15
M  V30 15 2 6 16
M  V30 16 1 16 17
M  V30 17 1 17 18
M  V30 18 1 18 19
M  V30 19 1 19 20
M  V30 20 2 20 21
M  V30 21 1 21 22
M  V30 22 2 22 23
M  V30 23 1 23 24
M  V30 24 2 24 25
M  V30 25 1 25 26
M  V30 26 1 26 27
M  V30 27 1 26 28
M  V30 28 1 26 29
M  V30 29 2 17 4
M  V30 30 1 25 20
M  V30 31 1 15 7
M  V30 32 1 15 10
M  V30 33 1 1 30
M  V30 34 1 1 31
M  V30 35 1 8 32
M  V30 36 1 11 33
M  V30 37 1 12 34
M  V30 38 1 13 35
M  V30 39 1 14 36
M  V30 40 1 16 37
M  V30 41 1 19 38
M  V30 42 1 19 39
M  V30 43 1 21 40
M  V30 44 1 22 41
M  V30 45 1 23 42
M  V30 46 1 24 43
M  V30 END BOND
M  V30 END CTAB
M  END
>  <Dataset>  (919) 
ChEMBL_Kinases

>  <Ligand_Instance>  (919) 
nan

>  <PDB_ID>  (919) 
nan

>  <Standardized_SMILES>  (919) 
NC(=O)c1sc(-c2cnc3ccccn23)cc1OCc1ccccc1C(F)(F)F

>  <Name>  (919) 
nan

>  <Pocket>  (919) 
nan

>  <ATP_Site>  (919) 
nan

>  <Peripheral>  (919) 
nan

>  <Num_H_Atoms_ProtBoundConf>  (919) 
nan

>  <Num_Resolved_Atoms>  (919) 
nan

>  <Num_Not_Resolved_Atoms>  (919) 
nan

$$$$
CHEMBL564450
     RDKit          3D

  0  0  0  0  0  0  0  0  0  0999 V3000
M  V30 BEGIN CTAB
M  V30 COUNTS 64 69 0 0 0
M  V30 BEGIN ATOM
M  V30 1 C 5.130712 -0.524157 6.552835 0
M  V30 2 O 4.357119 -1.310478 5.664344 0
M  V30 3 C 4.007912 -0.838302 4.409305 0
M  V30 4 C 3.246767 -1.715687 3.646936 0
M  V30 5 C 2.828696 -1.375398 2.381104 0
M  V30 6 C 2.029533 -2.313218 1.611796 0
M  V30 7 C 0.961538 -2.014697 0.895676 0
M  V30 8 C 0.198489 -0.831802 0.580924 0
M  V30 9 C -0.294350 -0.513487 -0.701990 0
M  V30 10 N -0.960452 0.654121 -0.637470 0
M  V30 11 C -1.593888 1.322125 -1.761569 0
M  V30 12 C -3.041494 0.951851 -1.901922 0
M  V30 13 N -3.186077 -0.451316 -2.089180 0
M  V30 14 C -4.603963 -0.831177 -2.206087 0
M  V30 15 C -4.638546 -2.330407 -2.114580 0
M  V30 16 N -3.907704 -2.941705 -3.171666 0
M  V30 17 C -4.637803 -3.176986 -4.372462 0
M  V30 18 C -2.616418 -2.380941 -3.346684 0
M  V30 19 C -2.598685 -0.850591 -3.351485 0
M  V30 20 C -0.953645 1.153712 0.621033 0
M  V30 21 C -1.478366 2.284113 1.226707 0
M  V30 22 C -1.310217 2.528964 2.577088 0
M  V30 23 C -0.585639 1.590238 3.321621 0
M  V30 24 C -0.083610 0.482778 2.674915 0
M  V30 25 C -0.245968 0.233005 1.335045 0
M  V30 26 C 0.545212 -3.307526 0.333957 0
M  V30 27 O -0.422297 -3.578145 -0.422349 0
M  V30 28 N 1.404009 -4.361556 0.745660 0
M  V30 29 C 2.379673 -3.727519 1.581518 0
M  V30 30 O 3.331595 -4.314015 2.155062 0
M  V30 31 C 3.134986 -0.143793 1.777812 0
M  V30 32 O 2.904104 0.460096 0.646021 0
M  V30 33 C 3.452115 1.648656 0.620275 0
M  V30 34 C 4.088119 1.822004 1.837144 0
M  V30 35 C 3.882188 0.672035 2.574273 0
M  V30 36 C 4.320342 0.376215 3.840197 0
M  V30 37 H 5.842244 0.095853 5.970943 0
M  V30 38 H 4.491717 0.193414 7.122076 0
M  V30 39 H 5.747982 -1.124895 7.237848 0
M  V30 40 H 2.950932 -2.710120 4.021687 0
M  V30 41 H -0.155610 -1.115340 -1.600104 0
M  V30 42 H -1.015251 1.192049 -2.689534 0
M  V30 43 H -1.585392 2.439180 -1.534543 0
M  V30 44 H -3.640333 1.266504 -1.014160 0
M  V30 45 H -3.505734 1.516665 -2.750998 0
M  V30 46 H -5.218216 -0.427338 -1.397491 0
M  V30 47 H -4.999146 -0.476021 -3.182587 0
M  V30 48 H -5.703819 -2.652857 -2.095898 0
M  V30 49 H -4.179349 -2.645057 -1.150374 0
M  V30 50 H -5.710997 -3.058853 -4.181618 0
M  V30 51 H -4.401768 -2.487408 -5.209473 0
M  V30 52 H -4.461660 -4.247431 -4.665535 0
M  V30 53 H -2.117167 -2.750654 -4.265469 0
M  V30 54 H -1.969681 -2.678117 -2.494843 0
M  V30 55 H -1.562943 -0.549698 -3.483719 0
M  V30 56 H -3.188196 -0.445446 -4.202691 0
M  V30 57 H -2.024168 2.972282 0.612643 0
M  V30 58 H -1.718952 3.409869 3.050974 0
M  V30 59 H -0.456416 1.788291 4.380995 0
M  V30 60 H 0.445844 -0.182869 3.322865 0
M  V30 61 H 1.383059 -5.376124 0.524563 0
M  V30 62 H 3.388484 2.340558 -0.235864 0
M  V30 63 H 4.623281 2.738007 2.061963 0
M  V30 64 H 4.907733 1.043169 4.448258 0
M  V30 END ATOM
M  V30 BEGIN BOND
M  V30 1 1 1 2
M  V30 2 1 2 3
M  V30 3 2 3 4
M  V30 4 1 4 5
M  V30 5 1 5 6
M  V30 6 2 6 7
M  V30 7 1 7 8
M  V30 8 2 8 9
M  V30 9 1 9 10
M  V30 10 1 10 11
M  V30 11 1 11 12
M  V30 12 1 12 13
M  V30 13 1 13 14
M  V30 14 1 14 15
M  V30 15 1 15 16
M  V30 16 1 16 17
M  V30 17 1 16 18
M  V30 18 1 18 19
M  V30 19 1 10 20
M  V30 20 2 20 21
M  V30 21 1 21 22
M  V30 22 2 22 23
M  V30 23 1 23 24
M  V30 24 2 24 25
M  V30 25 1 7 26
M  V30 26 2 26 27
M  V30 27 1 26 28
M  V30 28 1 28 29
M  V30 29 2 29 30
M  V30 30 2 5 31
M  V30 31 1 31 32
M  V30 32 1 32 33
M  V30 33 2 33 34
M  V30 34 1 34 35
M  V30 35 2 35 36
M  V30 36 1 36 3
M  V30 37 1 29 6
M  V30 38 1 35 31
M  V30 39 1 25 8
M  V30 40 1 19 13
M  V30 41 1 25 20
M  V30 42 1 1 37
M  V30 43 1 1 38
M  V30 44 1 1 39
M  V30 45 1 4 40
M  V30 46 1 9 41
M  V30 47 1 11 42
M  V30 48 1 11 43
M  V30 49 1 12 44
M  V30 50 1 12 45
M  V30 51 1 14 46
M  V30 52 1 14 47
M  V30 53 1 15 48
M  V30 54 1 15 49
M  V30 55 1 17 50
M  V30 56 1 17 51
M  V30 57 1 17 52
M  V30 58 1 18 53
M  V30 59 1 18 54
M  V30 60 1 19 55
M  V30 61 1 19 56
M  V30 62 1 21 57
M  V30 63 1 22 58
M  V30 64 1 23 59
M  V30 65 1 24 60
M  V30 66 1 28 61
M  V30 67 1 33 62
M  V30 68 1 34 63
M  V30 69 1 36 64
M  V30 END BOND
M  V30 END CTAB
M  END
>  <Dataset>  (920) 
ChEMBL_Kinases

>  <Ligand_Instance>  (920) 
nan

>  <PDB_ID>  (920) 
nan

>  <Standardized_SMILES>  (920) 
COc1cc(C2=C(c3cn(CCN4CCN(C)CC4)c4ccccc34)C(=O)NC2=O)c2occc2c1

>  <Name>  (920) 
nan

>  <Pocket>  (920) 
nan

>  <ATP_Site>  (920) 
nan

>  <Peripheral>  (920) 
nan

>  <Num_H_Atoms_ProtBoundConf>  (920) 
nan

>  <Num_Resolved_Atoms>  (920) 
nan

>  <Num_Not_Resolved_Atoms>  (920) 
nan

$$$$
CHEMBL571451
     RDKit          3D

  0  0  0  0  0  0  0  0  0  0999 V3000
M  V30 BEGIN CTAB
M  V30 COUNTS 37 40 0 0 0
M  V30 BEGIN ATOM
M  V30 1 Cl 0.385340 -6.118775 4.429902 0
M  V30 2 C 1.111351 -5.035062 3.274673 0
M  V30 3 C 2.441613 -5.142622 2.950290 0
M  V30 4 C 3.131190 -4.349236 2.053036 0
M  V30 5 C 2.315928 -3.373148 1.470568 0
M  V30 6 C 0.978215 -3.203894 1.744582 0
M  V30 7 C 0.212748 -2.153786 1.080867 0
M  V30 8 N 0.826351 -1.348853 0.196677 0
M  V30 9 C 0.135642 -0.375395 -0.424779 0
M  V30 10 N 0.644628 0.546994 -1.379719 0
M  V30 11 C 1.218234 1.770443 -0.935661 0
M  V30 12 C 1.709965 2.707450 -1.826193 0
M  V30 13 C 2.281462 3.912060 -1.485423 0
M  V30 14 N 2.360200 4.185394 -0.171420 0
M  V30 15 C 1.894606 3.303432 0.726966 0
M  V30 16 C 1.309455 2.072755 0.416908 0
M  V30 17 C -1.224057 -0.204299 -0.146835 0
M  V30 18 C -1.993974 0.767994 -0.744680 0
M  V30 19 C -3.335924 0.932516 -0.468581 0
M  V30 20 C -3.925305 0.078925 0.450195 0
M  V30 21 C -3.183290 -0.922704 1.081846 0
M  V30 22 C -1.845916 -1.036496 0.763388 0
M  V30 23 N -1.099437 -2.006524 1.364356 0
M  V30 24 C 0.363339 -4.039342 2.654277 0
M  V30 25 H 2.998462 -5.933306 3.456036 0
M  V30 26 H 4.169025 -4.463261 1.825532 0
M  V30 27 H 2.752981 -2.686970 0.744716 0
M  V30 28 H 0.612394 0.357628 -2.395712 0
M  V30 29 H 1.616689 2.429925 -2.866551 0
M  V30 30 H 2.640161 4.585446 -2.263199 0
M  V30 31 H 1.945145 3.497543 1.793874 0
M  V30 32 H 0.951945 1.401394 1.169875 0
M  V30 33 H -1.539510 1.441385 -1.466532 0
M  V30 34 H -3.917201 1.710075 -0.958830 0
M  V30 35 H -4.983501 0.245936 0.636987 0
M  V30 36 H -3.692949 -1.552526 1.784262 0
M  V30 37 H -0.668358 -3.957521 2.907276 0
M  V30 END ATOM
M  V30 BEGIN BOND
M  V30 1 1 1 2
M  V30 2 2 2 3
M  V30 3 1 3 4
M  V30 4 2 4 5
M  V30 5 1 5 6
M  V30 6 1 6 7
M  V30 7 2 7 8
M  V30 8 1 8 9
M  V30 9 1 9 10
M  V30 10 1 10 11
M  V30 11 2 11 12
M  V30 12 1 12 13
M  V30 13 2 13 14
M  V30 14 1 14 15
M  V30 15 2 15 16
M  V30 16 2 9 17
M  V30 17 1 17 18
M  V30 18 2 18 19
M  V30 19 1 19 20
M  V30 20 2 20 21
M  V30 21 1 21 22
M  V30 22 2 22 23
M  V30 23 2 6 24
M  V30 24 1 24 2
M  V30 25 1 23 7
M  V30 26 1 16 11
M  V30 27 1 22 17
M  V30 28 1 3 25
M  V30 29 1 4 26
M  V30 30 1 5 27
M  V30 31 1 10 28
M  V30 32 1 12 29
M  V30 33 1 13 30
M  V30 34 1 15 31
M  V30 35 1 16 32
M  V30 36 1 18 33
M  V30 37 1 19 34
M  V30 38 1 20 35
M  V30 39 1 21 36
M  V30 40 1 24 37
M  V30 END BOND
M  V30 END CTAB
M  END
>  <Dataset>  (921) 
ChEMBL_Kinases

>  <Ligand_Instance>  (921) 
nan

>  <PDB_ID>  (921) 
nan

>  <Standardized_SMILES>  (921) 
Clc1cccc(-c2nc(Nc3ccncc3)c3ccccc3n2)c1

>  <Name>  (921) 
nan

>  <Pocket>  (921) 
nan

>  <ATP_Site>  (921) 
nan

>  <Peripheral>  (921) 
nan

>  <Num_H_Atoms_ProtBoundConf>  (921) 
nan

>  <Num_Resolved_Atoms>  (921) 
nan

>  <Num_Not_Resolved_Atoms>  (921) 
nan

$$$$
CHEMBL3727748
     RDKit          3D

  0  0  0  0  0  0  0  0  0  0999 V3000
M  V30 BEGIN CTAB
M  V30 COUNTS 64 68 0 0 0
M  V30 BEGIN ATOM
M  V30 1 C 2.830216 3.122410 2.908763 0
M  V30 2 C 3.086536 1.778201 2.292786 0
M  V30 3 C 3.953742 0.988486 3.265392 0
M  V30 4 C 3.880192 1.899876 1.022734 0
M  V30 5 C 1.865163 1.036914 2.060813 0
M  V30 6 S 1.343344 0.491854 0.450591 0
M  V30 7 C -0.237530 -0.330127 1.069292 0
M  V30 8 C -1.212416 -1.004705 0.340064 0
M  V30 9 N -1.061136 -1.127155 -1.051569 0
M  V30 10 C -2.108670 -1.835694 -1.725690 0
M  V30 11 C -1.826597 -1.899848 -3.231449 0 CFG=1
M  V30 12 N -1.746606 -0.553271 -3.765673 0
M  V30 13 C -0.544401 -2.681379 -3.432494 0
M  V30 14 C -0.159723 -2.815329 -4.852637 0
M  V30 15 C 0.654495 -1.813345 -5.357811 0
M  V30 16 C 1.113661 -1.771145 -6.660111 0
M  V30 17 C 0.720390 -2.813418 -7.502501 0
M  V30 18 C -0.090083 -3.810507 -6.999094 0
M  V30 19 C -0.533217 -3.830646 -5.702192 0
M  V30 20 N -2.234208 -1.487314 1.062857 0
M  V30 21 C -2.207616 -1.271776 2.389123 0
M  V30 22 C -3.319027 -1.790064 3.218312 0
M  V30 23 C -3.377680 -1.617798 4.584656 0
M  V30 24 C -4.456439 -2.138221 5.274071 0
M  V30 25 N -5.445348 -2.804600 4.651703 0
M  V30 26 C -5.367049 -2.962162 3.307372 0
M  V30 27 C -4.302326 -2.459516 2.554066 0
M  V30 28 N -1.245492 -0.614184 3.054797 0
M  V30 29 C -0.170724 -0.083976 2.444184 0
M  V30 30 C 0.905505 0.608013 2.900467 0
M  V30 31 C 1.044511 0.907210 4.344655 0
M  V30 32 C 1.585789 0.357390 5.489239 0
M  V30 33 N 1.333572 1.202621 6.504215 0
M  V30 34 N 0.663997 2.249632 6.052585 0
M  V30 35 C 0.459091 2.119407 4.729887 0
M  V30 36 H 1.851373 3.548008 2.626932 0
M  V30 37 H 3.576701 3.833103 2.444489 0
M  V30 38 H 3.069853 3.119941 3.969782 0
M  V30 39 H 3.972260 1.470925 4.281904 0
M  V30 40 H 3.568484 -0.040979 3.414524 0
M  V30 41 H 4.999968 0.853699 2.887330 0
M  V30 42 H 4.944146 2.096992 1.269201 0
M  V30 43 H 3.436723 2.720196 0.391610 0
M  V30 44 H 3.806145 1.000027 0.381211 0
M  V30 45 H -0.233784 -0.721179 -1.536872 0
M  V30 46 H -2.336083 -2.822858 -1.326800 0
M  V30 47 H -3.035729 -1.203774 -1.627030 0
M  V30 48 H -2.684362 -2.394127 -3.714856 0
M  V30 49 H -2.406210 0.067370 -3.262811 0
M  V30 50 H -1.848261 -0.550353 -4.793179 0
M  V30 51 H 0.271059 -2.286326 -2.798309 0
M  V30 52 H -0.759828 -3.700909 -3.014392 0
M  V30 53 H 0.983326 -0.985333 -4.738049 0
M  V30 54 H 1.748577 -0.970199 -7.015907 0
M  V30 55 H 1.067868 -2.803586 -8.531071 0
M  V30 56 H -0.381378 -4.608549 -7.673777 0
M  V30 57 H -1.160658 -4.587507 -5.283081 0
M  V30 58 H -2.554545 -1.069511 5.060201 0
M  V30 59 H -4.444616 -1.969659 6.345543 0
M  V30 60 H -6.155902 -3.501475 2.759691 0
M  V30 61 H -4.307671 -2.623073 1.490780 0
M  V30 62 H 2.075974 -0.598634 5.321730 0
M  V30 63 H 0.447914 2.932681 6.814100 0
M  V30 64 H -0.094794 2.963876 4.299418 0
M  V30 END ATOM
M  V30 BEGIN BOND
M  V30 1 1 1 2
M  V30 2 1 2 3
M  V30 3 1 2 4
M  V30 4 1 2 5
M  V30 5 1 5 6
M  V30 6 1 6 7
M  V30 7 2 7 8
M  V30 8 1 8 9
M  V30 9 1 9 10
M  V30 10 1 10 11
M  V30 11 1 11 12
M  V30 12 1 11 13
M  V30 13 1 13 14
M  V30 14 2 14 15
M  V30 15 1 15 16
M  V30 16 2 16 17
M  V30 17 1 17 18
M  V30 18 2 18 19
M  V30 19 1 8 20
M  V30 20 2 20 21
M  V30 21 1 21 22
M  V30 22 2 22 23
M  V30 23 1 23 24
M  V30 24 2 24 25
M  V30 25 1 25 26
M  V30 26 2 26 27
M  V30 27 1 21 28
M  V30 28 2 28 29
M  V30 29 1 29 30
M  V30 30 1 30 31
M  V30 31 1 31 32
M  V30 32 2 32 33
M  V30 33 1 33 34
M  V30 34 1 34 35
M  V30 35 2 30 5
M  V30 36 2 35 31
M  V30 37 1 29 7
M  V30 38 1 19 14
M  V30 39 1 27 22
M  V30 40 1 1 36
M  V30 41 1 1 37
M  V30 42 1 1 38
M  V30 43 1 3 39
M  V30 44 1 3 40
M  V30 45 1 3 41
M  V30 46 1 4 42
M  V30 47 1 4 43
M  V30 48 1 4 44
M  V30 49 1 9 45
M  V30 50 1 10 46
M  V30 51 1 10 47
M  V30 52 1 11 48 CFG=3
M  V30 53 1 12 49
M  V30 54 1 12 50
M  V30 55 1 13 51
M  V30 56 1 13 52
M  V30 57 1 15 53
M  V30 58 1 16 54
M  V30 59 1 17 55
M  V30 60 1 18 56
M  V30 61 1 19 57
M  V30 62 1 23 58
M  V30 63 1 24 59
M  V30 64 1 26 60
M  V30 65 1 27 61
M  V30 66 1 32 62
M  V30 67 1 34 63
M  V30 68 1 35 64
M  V30 END BOND
M  V30 END CTAB
M  END
>  <Dataset>  (922) 
ChEMBL_Kinases

>  <Ligand_Instance>  (922) 
nan

>  <PDB_ID>  (922) 
nan

>  <Standardized_SMILES>  (922) 
CC(C)(C)c1sc2c(NC[C@@H](N)Cc3ccccc3)nc(-c3ccncc3)nc2c1-c1cn[nH]c1

>  <Name>  (922) 
nan

>  <Pocket>  (922) 
nan

>  <ATP_Site>  (922) 
nan

>  <Peripheral>  (922) 
nan

>  <Num_H_Atoms_ProtBoundConf>  (922) 
nan

>  <Num_Resolved_Atoms>  (922) 
nan

>  <Num_Not_Resolved_Atoms>  (922) 
nan

$$$$
CHEMBL564660
     RDKit          3D

  0  0  0  0  0  0  0  0  0  0999 V3000
M  V30 BEGIN CTAB
M  V30 COUNTS 37 40 0 0 0
M  V30 BEGIN ATOM
M  V30 1 C 1.568076 -5.538980 2.996826 0
M  V30 2 C 0.242934 -5.173800 3.202760 0
M  V30 3 C -0.171169 -3.904735 2.786555 0
M  V30 4 C 0.711919 -3.032633 2.185035 0
M  V30 5 C 0.237061 -1.719214 1.766533 0
M  V30 6 N 1.038282 -0.820514 1.177337 0
M  V30 7 C 0.618127 0.392558 0.784049 0
M  V30 8 N 1.384532 1.393993 0.164315 0
M  V30 9 C 1.506520 1.391787 -1.266848 0
M  V30 10 C 0.903382 0.374696 -1.992729 0
M  V30 11 C 1.042749 0.405127 -3.377068 0
M  V30 12 N 1.737004 1.385467 -3.988315 0
M  V30 13 C 2.328783 2.382715 -3.280277 0
M  V30 14 C 2.226847 2.407692 -1.906304 0
M  V30 15 C -0.699934 0.729019 0.996842 0
M  V30 16 C -1.243326 1.961230 0.628810 0
M  V30 17 C -2.570959 2.280709 0.851564 0
M  V30 18 C -3.397428 1.358095 1.457724 0
M  V30 19 C -2.890417 0.120803 1.837444 0
M  V30 20 C -1.560509 -0.163670 1.599626 0
M  V30 21 N -1.049921 -1.350076 1.957656 0
M  V30 22 C 2.025546 -3.382270 1.975798 0
M  V30 23 C 2.438726 -4.652858 2.393031 0
M  V30 24 H 1.844476 -6.525868 3.332667 0
M  V30 25 H -0.537349 -5.787333 3.668825 0
M  V30 26 H -1.179546 -3.578396 2.922837 0
M  V30 27 H 1.869807 2.140536 0.706999 0
M  V30 28 H 0.338254 -0.426882 -1.519697 0
M  V30 29 H 0.586915 -0.370534 -3.973151 0
M  V30 30 H 2.896533 3.189431 -3.744648 0
M  V30 31 H 2.666424 3.168332 -1.245352 0
M  V30 32 H -0.566830 2.683657 0.145808 0
M  V30 33 H -2.885093 3.262658 0.526342 0
M  V30 34 H -4.440611 1.673521 1.606232 0
M  V30 35 H -3.578767 -0.588520 2.317943 0
M  V30 36 H 2.683504 -2.688732 1.509551 0
M  V30 37 H 3.473107 -4.953432 2.238249 0
M  V30 END ATOM
M  V30 BEGIN BOND
M  V30 1 2 1 2
M  V30 2 1 2 3
M  V30 3 2 3 4
M  V30 4 1 4 5
M  V30 5 2 5 6
M  V30 6 1 6 7
M  V30 7 1 7 8
M  V30 8 1 8 9
M  V30 9 2 9 10
M  V30 10 1 10 11
M  V30 11 2 11 12
M  V30 12 1 12 13
M  V30 13 2 13 14
M  V30 14 2 7 15
M  V30 15 1 15 16
M  V30 16 2 16 17
M  V30 17 1 17 18
M  V30 18 2 18 19
M  V30 19 1 19 20
M  V30 20 2 20 21
M  V30 21 1 4 22
M  V30 22 2 22 23
M  V30 23 1 23 1
M  V30 24 1 21 5
M  V30 25 1 14 9
M  V30 26 1 20 15
M  V30 27 1 1 24
M  V30 28 1 2 25
M  V30 29 1 3 26
M  V30 30 1 8 27
M  V30 31 1 10 28
M  V30 32 1 11 29
M  V30 33 1 13 30
M  V30 34 1 14 31
M  V30 35 1 16 32
M  V30 36 1 17 33
M  V30 37 1 18 34
M  V30 38 1 19 35
M  V30 39 1 22 36
M  V30 40 1 23 37
M  V30 END BOND
M  V30 END CTAB
M  END
>  <Dataset>  (923) 
ChEMBL_Kinases

>  <Ligand_Instance>  (923) 
nan

>  <PDB_ID>  (923) 
nan

>  <Standardized_SMILES>  (923) 
c1ccc(-c2nc(Nc3ccncc3)c3ccccc3n2)cc1

>  <Name>  (923) 
nan

>  <Pocket>  (923) 
nan

>  <ATP_Site>  (923) 
nan

>  <Peripheral>  (923) 
nan

>  <Num_H_Atoms_ProtBoundConf>  (923) 
nan

>  <Num_Resolved_Atoms>  (923) 
nan

>  <Num_Not_Resolved_Atoms>  (923) 
nan

$$$$
CHEMBL564731
     RDKit          3D

  0  0  0  0  0  0  0  0  0  0999 V3000
M  V30 BEGIN CTAB
M  V30 COUNTS 53 55 0 0 0
M  V30 BEGIN ATOM
M  V30 1 C 4.169695 0.989771 4.741188 0
M  V30 2 O 5.498889 1.266464 4.867316 0
M  V30 3 C 6.327726 0.994317 3.818329 0
M  V30 4 C 6.081909 1.682634 2.528402 0
M  V30 5 N 4.828517 1.469159 1.896090 0
M  V30 6 C 4.412230 0.165189 1.514205 0
M  V30 7 O 5.217803 -0.756667 1.772908 0
M  V30 8 C 3.152703 -0.171553 0.861832 0
M  V30 9 C 2.948810 -1.507316 0.577762 0
M  V30 10 C 1.763045 -1.911365 -0.048596 0
M  V30 11 C 0.813547 -0.962791 -0.372971 0
M  V30 12 C -0.466444 -1.234356 -1.026192 0
M  V30 13 C -1.568151 -1.509495 -0.205032 0
M  V30 14 N -1.379234 -1.509071 1.215896 0
M  V30 15 C -2.766188 -1.763066 -0.836151 0
M  V30 16 C -3.895813 -2.044511 0.028364 0
M  V30 17 O -3.724838 -2.034868 1.270996 0
M  V30 18 C -5.274984 -2.355516 -0.271744 0
M  V30 19 C -5.695910 -3.245105 -1.220497 0
M  V30 20 C -7.011937 -3.541984 -1.505118 0
M  V30 21 C -7.997186 -2.900013 -0.785279 0
M  V30 22 F -9.313076 -3.150548 -1.019895 0
M  V30 23 C -7.651600 -1.988401 0.189393 0
M  V30 24 C -6.303974 -1.727241 0.434570 0
M  V30 25 F -5.943500 -0.829608 1.393776 0
M  V30 26 C -2.791670 -1.727884 -2.203495 0
M  V30 27 C -1.666098 -1.449012 -2.968671 0
M  V30 28 N -0.488966 -1.199088 -2.375293 0 CHG=1 VAL=4
M  V30 29 O 0.657853 -0.917412 -3.072806 0 CHG=-1 VAL=1
M  V30 30 C 1.012924 0.392103 -0.088405 0
M  V30 31 C 0.030786 1.456449 -0.412361 0
M  V30 32 C 2.201505 0.773947 0.536215 0
M  V30 33 H 3.597200 1.232407 5.693853 0
M  V30 34 H 3.745891 1.649216 3.931188 0
M  V30 35 H 3.957497 -0.071321 4.528719 0
M  V30 36 H 6.348972 -0.123944 3.716358 0
M  V30 37 H 7.387730 1.219797 4.161246 0
M  V30 38 H 6.163677 2.791060 2.734547 0
M  V30 39 H 6.886357 1.365066 1.824997 0
M  V30 40 H 4.140515 2.247816 1.668483 0
M  V30 41 H 3.624372 -2.328785 0.788138 0
M  V30 42 H 1.532359 -2.932929 -0.301786 0
M  V30 43 H -1.568642 -0.512673 1.529218 0
M  V30 44 H -1.125979 -2.532697 1.335078 0
M  V30 45 H -4.971034 -3.766839 -1.801641 0
M  V30 46 H -7.303048 -4.252939 -2.264646 0
M  V30 47 H -8.371586 -1.448110 0.792277 0
M  V30 48 H -3.732317 -1.926032 -2.698125 0
M  V30 49 H -1.736924 -1.432747 -4.050061 0
M  V30 50 H -0.714692 1.096162 -1.119874 0
M  V30 51 H -0.426440 1.881560 0.514743 0
M  V30 52 H 0.605208 2.264874 -0.911230 0
M  V30 53 H 2.368578 1.813910 0.761386 0
M  V30 END ATOM
M  V30 BEGIN BOND
M  V30 1 1 1 2
M  V30 2 1 2 3
M  V30 3 1 3 4
M  V30 4 1 4 5
M  V30 5 1 5 6
M  V30 6 2 6 7
M  V30 7 1 6 8
M  V30 8 2 8 9
M  V30 9 1 9 10
M  V30 10 2 10 11
M  V30 11 1 11 12
M  V30 12 2 12 13
M  V30 13 1 13 14
M  V30 14 1 13 15
M  V30 15 1 15 16
M  V30 16 2 16 17
M  V30 17 1 16 18
M  V30 18 2 18 19
M  V30 19 1 19 20
M  V30 20 2 20 21
M  V30 21 1 21 22
M  V30 22 1 21 23
M  V30 23 2 23 24
M  V30 24 1 24 25
M  V30 25 2 15 26
M  V30 26 1 26 27
M  V30 27 2 27 28
M  V30 28 1 28 29
M  V30 29 1 11 30
M  V30 30 1 30 31
M  V30 31 2 30 32
M  V30 32 1 32 8
M  V30 33 1 28 12
M  V30 34 1 24 18
M  V30 35 1 1 33
M  V30 36 1 1 34
M  V30 37 1 1 35
M  V30 38 1 3 36
M  V30 39 1 3 37
M  V30 40 1 4 38
M  V30 41 1 4 39
M  V30 42 1 5 40
M  V30 43 1 9 41
M  V30 44 1 10 42
M  V30 45 1 14 43
M  V30 46 1 14 44
M  V30 47 1 19 45
M  V30 48 1 20 46
M  V30 49 1 23 47
M  V30 50 1 26 48
M  V30 51 1 27 49
M  V30 52 1 31 50
M  V30 53 1 31 51
M  V30 54 1 31 52
M  V30 55 1 32 53
M  V30 END BOND
M  V30 END CTAB
M  END
>  <Dataset>  (924) 
ChEMBL_Kinases

>  <Ligand_Instance>  (924) 
nan

>  <PDB_ID>  (924) 
nan

>  <Standardized_SMILES>  (924) 
COCCNC(=O)c1ccc(-c2c(N)c(C(=O)c3ccc(F)cc3F)cc[n+]2[O-])c(C)c1

>  <Name>  (924) 
nan

>  <Pocket>  (924) 
nan

>  <ATP_Site>  (924) 
nan

>  <Peripheral>  (924) 
nan

>  <Num_H_Atoms_ProtBoundConf>  (924) 
nan

>  <Num_Resolved_Atoms>  (924) 
nan

>  <Num_Not_Resolved_Atoms>  (924) 
nan

$$$$
CHEMBL564824
     RDKit          3D

  0  0  0  0  0  0  0  0  0  0999 V3000
M  V30 BEGIN CTAB
M  V30 COUNTS 41 44 0 0 0
M  V30 BEGIN ATOM
M  V30 1 C 1.983327 -6.948723 1.623304 0
M  V30 2 O 1.859365 -5.636666 1.132657 0
M  V30 3 C 2.893340 -4.806567 0.806357 0
M  V30 4 O 4.102834 -5.183018 0.930321 0
M  V30 5 C 2.579714 -3.455515 0.303837 0
M  V30 6 C 1.255430 -3.035691 0.165027 0
M  V30 7 C 0.963608 -1.774485 -0.303851 0
M  V30 8 C 1.958427 -0.884394 -0.651614 0
M  V30 9 C 1.564512 0.431351 -1.138864 0
M  V30 10 C 2.053762 1.115042 -2.222279 0
M  V30 11 N 1.440470 2.317815 -2.367025 0
M  V30 12 C 0.533911 2.441734 -1.374224 0
M  V30 13 N -0.333059 3.424566 -1.055020 0
M  V30 14 C -1.159572 3.320153 0.009257 0
M  V30 15 C -1.143016 2.179378 0.821941 0
M  V30 16 C -2.012387 2.011713 1.984187 0
M  V30 17 C -1.487927 1.249344 3.032429 0
M  V30 18 C -2.243818 1.038388 4.175854 0
M  V30 19 C -3.508036 1.576528 4.282716 0
M  V30 20 C -4.028189 2.335882 3.236467 0
M  V30 21 C -3.281003 2.547458 2.100012 0
M  V30 22 C -0.240166 1.195776 0.460386 0
M  V30 23 C 0.610562 1.283919 -0.620999 0
M  V30 24 C 3.277022 -1.288309 -0.518696 0
M  V30 25 C 3.569363 -2.569119 -0.042520 0
M  V30 26 H 2.871116 -7.022725 2.302216 0
M  V30 27 H 2.050336 -7.719027 0.826998 0
M  V30 28 H 1.087255 -7.235300 2.241055 0
M  V30 29 H 0.507076 -3.772851 0.452122 0
M  V30 30 H -0.104704 -1.584713 -0.360458 0
M  V30 31 H 2.830159 0.791893 -2.914123 0
M  V30 32 H 1.638639 3.034263 -3.126584 0
M  V30 33 H -1.854504 4.108117 0.264884 0
M  V30 34 H -0.515421 0.781376 3.059640 0
M  V30 35 H -1.870588 0.446072 5.022812 0
M  V30 36 H -4.146990 1.438223 5.168057 0
M  V30 37 H -5.008787 2.781191 3.262588 0
M  V30 38 H -3.594386 3.118943 1.238638 0
M  V30 39 H -0.226964 0.329538 1.077149 0
M  V30 40 H 4.061864 -0.596312 -0.789328 0
M  V30 41 H 4.620258 -2.881302 0.059753 0
M  V30 END ATOM
M  V30 BEGIN BOND
M  V30 1 1 1 2
M  V30 2 1 2 3
M  V30 3 2 3 4
M  V30 4 1 3 5
M  V30 5 2 5 6
M  V30 6 1 6 7
M  V30 7 2 7 8
M  V30 8 1 8 9
M  V30 9 2 9 10
M  V30 10 1 10 11
M  V30 11 1 11 12
M  V30 12 2 12 13
M  V30 13 1 13 14
M  V30 14 2 14 15
M  V30 15 1 15 16
M  V30 16 2 16 17
M  V30 17 1 17 18
M  V30 18 2 18 19
M  V30 19 1 19 20
M  V30 20 2 20 21
M  V30 21 1 15 22
M  V30 22 2 22 23
M  V30 23 1 8 24
M  V30 24 2 24 25
M  V30 25 1 25 5
M  V30 26 1 23 9
M  V30 27 1 23 12
M  V30 28 1 21 16
M  V30 29 1 1 26
M  V30 30 1 1 27
M  V30 31 1 1 28
M  V30 32 1 6 29
M  V30 33 1 7 30
M  V30 34 1 10 31
M  V30 35 1 11 32
M  V30 36 1 14 33
M  V30 37 1 17 34
M  V30 38 1 18 35
M  V30 39 1 19 36
M  V30 40 1 20 37
M  V30 41 1 21 38
M  V30 42 1 22 39
M  V30 43 1 24 40
M  V30 44 1 25 41
M  V30 END BOND
M  V30 END CTAB
M  END
>  <Dataset>  (925) 
ChEMBL_Kinases

>  <Ligand_Instance>  (925) 
nan

>  <PDB_ID>  (925) 
nan

>  <Standardized_SMILES>  (925) 
COC(=O)c1ccc(-c2c[nH]c3ncc(-c4ccccc4)cc23)cc1

>  <Name>  (925) 
nan

>  <Pocket>  (925) 
nan

>  <ATP_Site>  (925) 
nan

>  <Peripheral>  (925) 
nan

>  <Num_H_Atoms_ProtBoundConf>  (925) 
nan

>  <Num_Resolved_Atoms>  (925) 
nan

>  <Num_Not_Resolved_Atoms>  (925) 
nan

$$$$
CHEMBL564912
     RDKit          3D

  0  0  0  0  0  0  0  0  0  0999 V3000
M  V30 BEGIN CTAB
M  V30 COUNTS 55 59 0 0 0
M  V30 BEGIN ATOM
M  V30 1 O 2.373682 -4.553505 -0.052322 0
M  V30 2 C 2.096643 -3.456193 0.490081 0
M  V30 3 C 3.077426 -2.665385 1.254088 0
M  V30 4 C 3.117283 -1.272069 0.666698 0
M  V30 5 C 1.719278 -0.790026 0.532450 0
M  V30 6 C 1.589399 0.600934 0.563481 0
M  V30 7 C 2.748249 1.498490 0.718194 0
M  V30 8 C 3.042533 1.791894 2.046095 0
M  V30 9 C 4.094235 2.618294 2.419099 0
M  V30 10 C 4.839477 3.137479 1.376327 0
M  V30 11 F 5.881192 3.954113 1.707918 0
M  V30 12 C 4.575057 2.867057 0.049495 0
M  V30 13 C 3.520294 2.040035 -0.289494 0
M  V30 14 F 3.153558 1.694498 -1.548603 0
M  V30 15 C 0.317122 1.157092 0.443631 0
M  V30 16 C -0.838762 0.405592 0.293989 0
M  V30 17 C -2.125372 1.079423 0.176361 0
M  V30 18 C -2.983986 0.741392 -0.971734 0
M  V30 19 C -4.146940 -0.115692 -0.554959 0
M  V30 20 N -5.030108 0.706985 0.260628 0
M  V30 21 C -4.316617 1.295381 1.365749 0
M  V30 22 C -2.894572 0.775275 1.465029 0
M  V30 23 C -0.661675 -0.944029 0.269445 0
M  V30 24 C 0.575586 -1.541555 0.384183 0
M  V30 25 N 0.772979 -2.951987 0.361315 0
M  V30 26 C -0.346230 -3.810782 0.210424 0
M  V30 27 C -1.093155 -4.325694 1.253943 0
M  V30 28 Cl -0.601096 -3.868361 2.887621 0
M  V30 29 C -2.181003 -5.164684 1.023694 0
M  V30 30 C -2.496097 -5.471751 -0.301751 0
M  V30 31 C -1.769487 -4.973346 -1.366028 0
M  V30 32 C -0.699737 -4.146328 -1.100573 0
M  V30 33 Cl 0.200047 -3.532306 -2.480780 0
M  V30 34 H 2.716715 -2.597520 2.311885 0
M  V30 35 H 4.080272 -3.133554 1.285498 0
M  V30 36 H 3.732662 -0.582405 1.277452 0
M  V30 37 H 3.599690 -1.378862 -0.339224 0
M  V30 38 H 2.471067 1.396394 2.897450 0
M  V30 39 H 4.317457 2.842227 3.453385 0
M  V30 40 H 5.156217 3.271748 -0.767322 0
M  V30 41 H 0.263625 2.256025 0.473469 0
M  V30 42 H -1.923111 2.187221 0.234014 0
M  V30 43 H -2.473441 0.323908 -1.854802 0
M  V30 44 H -3.446585 1.697027 -1.354207 0
M  V30 45 H -3.824661 -1.026923 -0.030701 0
M  V30 46 H -4.726723 -0.381531 -1.476282 0
M  V30 47 H -5.370112 1.490564 -0.350256 0
M  V30 48 H -4.812166 1.064780 2.322444 0
M  V30 49 H -4.275545 2.417489 1.297636 0
M  V30 50 H -2.427490 1.292484 2.326366 0
M  V30 51 H -2.934132 -0.315340 1.661455 0
M  V30 52 H -1.499684 -1.594003 0.157559 0
M  V30 53 H -2.739644 -5.546933 1.860381 0
M  V30 54 H -3.356931 -6.135294 -0.476658 0
M  V30 55 H -2.091603 -5.268680 -2.355988 0
M  V30 END ATOM
M  V30 BEGIN BOND
M  V30 1 2 1 2
M  V30 2 1 2 3
M  V30 3 1 3 4
M  V30 4 1 4 5
M  V30 5 2 5 6
M  V30 6 1 6 7
M  V30 7 2 7 8
M  V30 8 1 8 9
M  V30 9 2 9 10
M  V30 10 1 10 11
M  V30 11 1 10 12
M  V30 12 2 12 13
M  V30 13 1 13 14
M  V30 14 1 6 15
M  V30 15 2 15 16
M  V30 16 1 16 17
M  V30 17 1 17 18
M  V30 18 1 18 19
M  V30 19 1 19 20
M  V30 20 1 20 21
M  V30 21 1 21 22
M  V30 22 1 16 23
M  V30 23 2 23 24
M  V30 24 1 24 25
M  V30 25 1 25 26
M  V30 26 2 26 27
M  V30 27 1 27 28
M  V30 28 1 27 29
M  V30 29 2 29 30
M  V30 30 1 30 31
M  V30 31 2 31 32
M  V30 32 1 32 33
M  V30 33 1 25 2
M  V30 34 1 32 26
M  V30 35 1 24 5
M  V30 36 1 13 7
M  V30 37 1 22 17
M  V30 38 1 3 34
M  V30 39 1 3 35
M  V30 40 1 4 36
M  V30 41 1 4 37
M  V30 42 1 8 38
M  V30 43 1 9 39
M  V30 44 1 12 40
M  V30 45 1 15 41
M  V30 46 1 17 42
M  V30 47 1 18 43
M  V30 48 1 18 44
M  V30 49 1 19 45
M  V30 50 1 19 46
M  V30 51 1 20 47
M  V30 52 1 21 48
M  V30 53 1 21 49
M  V30 54 1 22 50
M  V30 55 1 22 51
M  V30 56 1 23 52
M  V30 57 1 29 53
M  V30 58 1 30 54
M  V30 59 1 31 55
M  V30 END BOND
M  V30 END CTAB
M  END
>  <Dataset>  (926) 
ChEMBL_Kinases

>  <Ligand_Instance>  (926) 
nan

>  <PDB_ID>  (926) 
nan

>  <Standardized_SMILES>  (926) 
O=C1CCc2c(-c3ccc(F)cc3F)cc(C3CCNCC3)cc2N1c1c(Cl)cccc1Cl

>  <Name>  (926) 
nan

>  <Pocket>  (926) 
nan

>  <ATP_Site>  (926) 
nan

>  <Peripheral>  (926) 
nan

>  <Num_H_Atoms_ProtBoundConf>  (926) 
nan

>  <Num_Resolved_Atoms>  (926) 
nan

>  <Num_Not_Resolved_Atoms>  (926) 
nan

$$$$
CHEMBL564921
     RDKit          3D

  0  0  0  0  0  0  0  0  0  0999 V3000
M  V30 BEGIN CTAB
M  V30 COUNTS 29 31 0 0 0
M  V30 BEGIN ATOM
M  V30 1 N -0.353392 -1.705982 4.260450 0
M  V30 2 C 0.082569 -0.957095 3.473301 0
M  V30 3 C 0.629189 -0.046627 2.527422 0
M  V30 4 C 1.276237 1.123244 2.861360 0
M  V30 5 N 1.393101 1.418494 4.246159 0
M  V30 6 N 1.788821 1.975946 1.957433 0
M  V30 7 C 1.684848 1.707768 0.638536 0
M  V30 8 N 2.088079 2.353135 -0.473183 0
M  V30 9 N 1.701507 1.600826 -1.514684 0
M  V30 10 C 1.069185 0.503137 -1.122581 0
M  V30 11 N 0.520110 -0.523616 -1.942561 0
M  V30 12 C 1.044956 0.548533 0.271933 0
M  V30 13 C 0.506364 -0.349671 1.186352 0
M  V30 14 C -0.155213 -1.555442 0.693158 0
M  V30 15 C -1.502144 -1.322625 0.488625 0
M  V30 16 C -2.364163 -2.307631 0.020361 0
M  V30 17 C -1.804839 -3.560485 -0.238665 0
M  V30 18 C -0.462483 -3.796455 -0.035997 0
M  V30 19 C 0.385074 -2.790019 0.435702 0
M  V30 20 H 0.954573 1.836470 5.102537 0
M  V30 21 H 2.319707 1.067303 4.546884 0
M  V30 22 H 2.602269 3.266171 -0.469841 0
M  V30 23 H -0.439866 -0.645660 -2.362487 0
M  V30 24 H 1.146933 -1.338853 -2.210582 0
M  V30 25 H -2.048123 -0.383868 0.656918 0
M  V30 26 H -3.418460 -2.179672 -0.155886 0
M  V30 27 H -2.385887 -4.395405 -0.605158 0
M  V30 28 H 0.031023 -4.739270 -0.216164 0
M  V30 29 H 1.432920 -2.855050 0.629352 0
M  V30 END ATOM
M  V30 BEGIN BOND
M  V30 1 3 1 2
M  V30 2 1 2 3
M  V30 3 2 3 4
M  V30 4 1 4 5
M  V30 5 1 4 6
M  V30 6 2 6 7
M  V30 7 1 7 8
M  V30 8 1 8 9
M  V30 9 2 9 10
M  V30 10 1 10 11
M  V30 11 1 10 12
M  V30 12 2 12 13
M  V30 13 1 13 14
M  V30 14 2 14 15
M  V30 15 1 15 16
M  V30 16 2 16 17
M  V30 17 1 17 18
M  V30 18 2 18 19
M  V30 19 1 13 3
M  V30 20 1 19 14
M  V30 21 1 12 7
M  V30 22 1 5 20
M  V30 23 1 5 21
M  V30 24 1 8 22
M  V30 25 1 11 23
M  V30 26 1 11 24
M  V30 27 1 15 25
M  V30 28 1 16 26
M  V30 29 1 17 27
M  V30 30 1 18 28
M  V30 31 1 19 29
M  V30 END BOND
M  V30 END CTAB
M  END
>  <Dataset>  (927) 
ChEMBL_Kinases

>  <Ligand_Instance>  (927) 
nan

>  <PDB_ID>  (927) 
nan

>  <Standardized_SMILES>  (927) 
N#Cc1c(N)nc2[nH]nc(N)c2c1-c1ccccc1

>  <Name>  (927) 
nan

>  <Pocket>  (927) 
nan

>  <ATP_Site>  (927) 
nan

>  <Peripheral>  (927) 
nan

>  <Num_H_Atoms_ProtBoundConf>  (927) 
nan

>  <Num_Resolved_Atoms>  (927) 
nan

>  <Num_Not_Resolved_Atoms>  (927) 
nan

$$$$
CHEMBL564091
     RDKit          3D

  0  0  0  0  0  0  0  0  0  0999 V3000
M  V30 BEGIN CTAB
M  V30 COUNTS 56 60 0 0 0
M  V30 BEGIN ATOM
M  V30 1 C 1.092751 1.716982 1.584105 0
M  V30 2 N 1.626516 0.902969 2.572260 0
M  V30 3 C 1.075275 1.158788 3.871603 0
M  V30 4 C 1.948129 -0.452605 2.394065 0
M  V30 5 C 3.102166 -0.835974 1.561518 0
M  V30 6 C 3.171726 -0.501055 0.144141 0
M  V30 7 N 2.142628 -1.019128 -0.722635 0
M  V30 8 N 0.997641 -0.472826 -1.056922 0
M  V30 9 C 0.302929 -1.253763 -1.904122 0
M  V30 10 C -0.994031 -0.763665 -2.353369 0
M  V30 11 C -1.971873 -0.271814 -1.612599 0
M  V30 12 C -2.231939 -0.007364 -0.203521 0
M  V30 13 C -2.770306 1.109744 0.395385 0
M  V30 14 N -2.863708 0.928482 1.716790 0
M  V30 15 C -3.392841 1.917958 2.665263 0
M  V30 16 C -2.395991 -0.296921 2.023967 0
M  V30 17 C -2.278724 -0.967712 3.229878 0
M  V30 18 C -1.770772 -2.242458 3.320220 0
M  V30 19 C -1.371749 -2.846131 2.145786 0
M  V30 20 C -1.485398 -2.189600 0.958396 0
M  V30 21 C -1.996454 -0.898790 0.841336 0
M  V30 22 C -3.070346 0.093160 -2.527612 0
M  V30 23 O -4.228108 0.599109 -2.363958 0
M  V30 24 N -2.714141 -0.199495 -3.870000 0
M  V30 25 C -1.388878 -0.747103 -3.768277 0
M  V30 26 O -0.681148 -1.148473 -4.734405 0
M  V30 27 C 1.058676 -2.382544 -2.125215 0
M  V30 28 C 0.718487 -3.448628 -2.927623 0
M  V30 29 C 1.653158 -4.469105 -2.978717 0
M  V30 30 C 2.810823 -4.327051 -2.239313 0
M  V30 31 N 3.068425 -3.230114 -1.465674 0
M  V30 32 C 2.203810 -2.218801 -1.379331 0
M  V30 33 H -0.029809 1.617787 1.567317 0
M  V30 34 H 1.241403 2.801808 1.918557 0
M  V30 35 H 1.475938 1.703161 0.570585 0
M  V30 36 H 0.648813 0.269688 4.381378 0
M  V30 37 H 1.822991 1.609310 4.569916 0
M  V30 38 H 0.247409 1.918821 3.848475 0
M  V30 39 H 2.197119 -0.826897 3.447683 0
M  V30 40 H 1.013344 -1.020575 2.094619 0
M  V30 41 H 3.352957 -1.939621 1.665867 0
M  V30 42 H 4.015812 -0.358008 2.052968 0
M  V30 43 H 3.341937 0.562288 -0.131762 0
M  V30 44 H 4.135066 -0.989181 -0.249118 0
M  V30 45 H -3.061925 1.991809 -0.181980 0
M  V30 46 H -3.214536 1.569100 3.690536 0
M  V30 47 H -2.844529 2.876503 2.542595 0
M  V30 48 H -4.479593 2.055357 2.481158 0
M  V30 49 H -2.581262 -0.519332 4.169585 0
M  V30 50 H -1.658120 -2.810062 4.230844 0
M  V30 51 H -0.970989 -3.844653 2.183229 0
M  V30 52 H -1.172849 -2.695804 0.079635 0
M  V30 53 H -3.197234 -0.090798 -4.785277 0
M  V30 54 H -0.189486 -3.504867 -3.470820 0
M  V30 55 H 1.534764 -5.371348 -3.561712 0
M  V30 56 H 3.629551 -5.046423 -2.182853 0
M  V30 END ATOM
M  V30 BEGIN BOND
M  V30 1 1 1 2
M  V30 2 1 2 3
M  V30 3 1 2 4
M  V30 4 1 4 5
M  V30 5 1 5 6
M  V30 6 1 6 7
M  V30 7 1 7 8
M  V30 8 2 8 9
M  V30 9 1 9 10
M  V30 10 2 10 11
M  V30 11 1 11 12
M  V30 12 2 12 13
M  V30 13 1 13 14
M  V30 14 1 14 15
M  V30 15 1 14 16
M  V30 16 2 16 17
M  V30 17 1 17 18
M  V30 18 2 18 19
M  V30 19 1 19 20
M  V30 20 2 20 21
M  V30 21 1 11 22
M  V30 22 2 22 23
M  V30 23 1 22 24
M  V30 24 1 24 25
M  V30 25 2 25 26
M  V30 26 1 9 27
M  V30 27 2 27 28
M  V30 28 1 28 29
M  V30 29 2 29 30
M  V30 30 1 30 31
M  V30 31 2 31 32
M  V30 32 1 32 7
M  V30 33 1 25 10
M  V30 34 1 32 27
M  V30 35 1 21 12
M  V30 36 1 21 16
M  V30 37 1 1 33
M  V30 38 1 1 34
M  V30 39 1 1 35
M  V30 40 1 3 36
M  V30 41 1 3 37
M  V30 42 1 3 38
M  V30 43 1 4 39
M  V30 44 1 4 40
M  V30 45 1 5 41
M  V30 46 1 5 42
M  V30 47 1 6 43
M  V30 48 1 6 44
M  V30 49 1 13 45
M  V30 50 1 15 46
M  V30 51 1 15 47
M  V30 52 1 15 48
M  V30 53 1 17 49
M  V30 54 1 18 50
M  V30 55 1 19 51
M  V30 56 1 20 52
M  V30 57 1 24 53
M  V30 58 1 28 54
M  V30 59 1 29 55
M  V30 60 1 30 56
M  V30 END BOND
M  V30 END CTAB
M  END
>  <Dataset>  (928) 
ChEMBL_Kinases

>  <Ligand_Instance>  (928) 
nan

>  <PDB_ID>  (928) 
nan

>  <Standardized_SMILES>  (928) 
CN(C)CCCn1nc(C2=C(c3cn(C)c4ccccc34)C(=O)NC2=O)c2cccnc21

>  <Name>  (928) 
nan

>  <Pocket>  (928) 
nan

>  <ATP_Site>  (928) 
nan

>  <Peripheral>  (928) 
nan

>  <Num_H_Atoms_ProtBoundConf>  (928) 
nan

>  <Num_Resolved_Atoms>  (928) 
nan

>  <Num_Not_Resolved_Atoms>  (928) 
nan

$$$$
CHEMBL571486
     RDKit          3D

  0  0  0  0  0  0  0  0  0  0999 V3000
M  V30 BEGIN CTAB
M  V30 COUNTS 33 35 0 0 0
M  V30 BEGIN ATOM
M  V30 1 C 1.145115 -1.359765 4.599103 0
M  V30 2 O 0.804216 -0.170217 3.917519 0
M  V30 3 C 0.476739 -0.264426 2.577515 0
M  V30 4 C 0.460216 -1.445794 1.858014 0
M  V30 5 C 0.122930 -1.466699 0.520044 0
M  V30 6 C 0.105216 -2.653690 -0.207214 0
M  V30 7 C 0.457112 -3.945901 0.460726 0
M  V30 8 C -0.242427 -2.632636 -1.562646 0
M  V30 9 C -0.556886 -1.423341 -2.129288 0
M  V30 10 C -0.554692 -0.213066 -1.450164 0
M  V30 11 C -0.204969 -0.290119 -0.117566 0
M  V30 12 C -0.189390 0.900420 0.603299 0
M  V30 13 C 0.147713 0.929763 1.945231 0
M  V30 14 O 0.156240 2.128716 2.643045 0
M  V30 15 C -0.191664 3.305946 1.927151 0
M  V30 16 C -0.940655 0.796468 -2.408650 0
M  V30 17 O -1.042974 2.025438 -2.130147 0
M  V30 18 N -1.185144 0.223405 -3.687582 0
M  V30 19 C -0.943524 -1.164147 -3.506146 0
M  V30 20 O -1.077269 -1.974490 -4.481058 0
M  V30 21 H 1.282701 -1.185011 5.692859 0
M  V30 22 H 2.159443 -1.656036 4.214049 0
M  V30 23 H 0.391342 -2.158544 4.454579 0
M  V30 24 H 0.718397 -2.359152 2.367249 0
M  V30 25 H 1.577438 -3.989999 0.504934 0
M  V30 26 H 0.163088 -4.771336 -0.233842 0
M  V30 27 H -0.021751 -4.035336 1.440732 0
M  V30 28 H -0.255834 -3.545823 -2.121221 0
M  V30 29 H -0.442832 1.829876 0.121510 0
M  V30 30 H -0.188813 4.195723 2.595537 0
M  V30 31 H 0.512257 3.420253 1.078143 0
M  V30 32 H -1.220298 3.214360 1.503306 0
M  V30 33 H -1.480063 0.753089 -4.553917 0
M  V30 END ATOM
M  V30 BEGIN BOND
M  V30 1 1 1 2
M  V30 2 1 2 3
M  V30 3 2 3 4
M  V30 4 1 4 5
M  V30 5 2 5 6
M  V30 6 1 6 7
M  V30 7 1 6 8
M  V30 8 2 8 9
M  V30 9 1 9 10
M  V30 10 2 10 11
M  V30 11 1 11 12
M  V30 12 2 12 13
M  V30 13 1 13 14
M  V30 14 1 14 15
M  V30 15 1 10 16
M  V30 16 2 16 17
M  V30 17 1 16 18
M  V30 18 1 18 19
M  V30 19 2 19 20
M  V30 20 1 13 3
M  V30 21 1 11 5
M  V30 22 1 19 9
M  V30 23 1 1 21
M  V30 24 1 1 22
M  V30 25 1 1 23
M  V30 26 1 4 24
M  V30 27 1 7 25
M  V30 28 1 7 26
M  V30 29 1 7 27
M  V30 30 1 8 28
M  V30 31 1 12 29
M  V30 32 1 15 30
M  V30 33 1 15 31
M  V30 34 1 15 32
M  V30 35 1 18 33
M  V30 END BOND
M  V30 END CTAB
M  END
>  <Dataset>  (929) 
ChEMBL_Kinases

>  <Ligand_Instance>  (929) 
nan

>  <PDB_ID>  (929) 
nan

>  <Standardized_SMILES>  (929) 
COc1cc2c(C)cc3c(c2cc1OC)C(=O)NC3=O

>  <Name>  (929) 
nan

>  <Pocket>  (929) 
nan

>  <ATP_Site>  (929) 
nan

>  <Peripheral>  (929) 
nan

>  <Num_H_Atoms_ProtBoundConf>  (929) 
nan

>  <Num_Resolved_Atoms>  (929) 
nan

>  <Num_Not_Resolved_Atoms>  (929) 
nan

$$$$
CHEMBL562709
     RDKit          3D

  0  0  0  0  0  0  0  0  0  0999 V3000
M  V30 BEGIN CTAB
M  V30 COUNTS 65 70 0 0 0
M  V30 BEGIN ATOM
M  V30 1 C 1.561400 2.380539 5.467411 0
M  V30 2 N 2.964552 2.184443 5.165806 0
M  V30 3 C 3.281101 0.806626 4.899572 0
M  V30 4 C 3.023238 0.349872 3.523293 0
M  V30 5 N 2.866759 1.319644 2.496321 0
M  V30 6 C 1.763019 0.935170 1.600486 0
M  V30 7 C 1.652330 1.965575 0.528667 0
M  V30 8 C 0.548066 1.690776 -0.467347 0
M  V30 9 N 0.684604 0.445602 -1.157073 0
M  V30 10 N 0.124883 -0.614623 -0.646131 0
M  V30 11 C 0.313789 -1.724265 -1.375787 0
M  V30 12 C -0.164064 -3.082237 -1.142208 0
M  V30 13 C -1.411977 -3.426332 -0.773353 0
M  V30 14 C -2.634526 -2.689904 -0.492580 0
M  V30 15 C -2.876254 -1.575576 0.279424 0
M  V30 16 N -4.160877 -1.186855 0.254937 0
M  V30 17 C -4.729194 -0.038069 0.970730 0
M  V30 18 C -4.806125 -2.049766 -0.546563 0
M  V30 19 C -6.140765 -2.080062 -0.901502 0
M  V30 20 C -6.626706 -3.042655 -1.745788 0
M  V30 21 C -5.732709 -3.979020 -2.227280 0
M  V30 22 C -4.417826 -3.923830 -1.858484 0
M  V30 23 C -3.895779 -2.975780 -1.014977 0
M  V30 24 C -1.441775 -4.893163 -0.622044 0
M  V30 25 O -2.339328 -5.745630 -0.295804 0
M  V30 26 N -0.152622 -5.448149 -0.915117 0
M  V30 27 C 0.650718 -4.304681 -1.242343 0
M  V30 28 O 1.869879 -4.434163 -1.556802 0
M  V30 29 C 1.075142 -1.275047 -2.448790 0
M  V30 30 C 1.621077 -1.851152 -3.569462 0
M  V30 31 C 2.345043 -1.089717 -4.469407 0
M  V30 32 C 2.547417 0.275573 -4.279234 0
M  V30 33 N 2.002804 0.844045 -3.164963 0
M  V30 34 C 1.293955 0.076995 -2.292085 0
M  V30 35 C 2.668594 2.669473 2.882731 0
M  V30 36 C 3.423575 3.068153 4.113692 0
M  V30 37 H 0.943271 1.610422 4.999478 0
M  V30 38 H 1.228232 3.425574 5.229761 0
M  V30 39 H 1.438755 2.279453 6.561161 0
M  V30 40 H 2.695661 0.184981 5.610761 0
M  V30 41 H 4.354734 0.673487 5.209273 0
M  V30 42 H 3.910066 -0.281917 3.217833 0
M  V30 43 H 2.172504 -0.370540 3.471521 0
M  V30 44 H 0.836248 0.809958 2.191285 0
M  V30 45 H 2.041023 -0.069477 1.213400 0
M  V30 46 H 2.616697 2.162275 0.065825 0
M  V30 47 H 1.348407 2.923105 1.034733 0
M  V30 48 H -0.428133 1.824478 0.014931 0
M  V30 49 H 0.634069 2.505853 -1.240737 0
M  V30 50 H -2.139014 -1.044683 0.862230 0
M  V30 51 H -4.705849 -0.265585 2.053172 0
M  V30 52 H -5.771119 0.139918 0.610928 0
M  V30 53 H -4.105889 0.867093 0.708772 0
M  V30 54 H -6.835465 -1.325660 -0.508344 0
M  V30 55 H -7.685948 -3.018569 -1.991484 0
M  V30 56 H -6.109095 -4.751339 -2.901862 0
M  V30 57 H -3.792392 -4.671355 -2.276294 0
M  V30 58 H 0.188209 -6.443586 -0.910462 0
M  V30 59 H 1.469392 -2.902800 -3.736910 0
M  V30 60 H 2.768431 -1.583868 -5.354917 0
M  V30 61 H 3.128009 0.832733 -5.021391 0
M  V30 62 H 1.610616 2.959042 3.048049 0
M  V30 63 H 3.056438 3.328786 2.050660 0
M  V30 64 H 4.516216 2.919633 4.008160 0
M  V30 65 H 3.183446 4.092972 4.407314 0
M  V30 END ATOM
M  V30 BEGIN BOND
M  V30 1 1 1 2
M  V30 2 1 2 3
M  V30 3 1 3 4
M  V30 4 1 4 5
M  V30 5 1 5 6
M  V30 6 1 6 7
M  V30 7 1 7 8
M  V30 8 1 8 9
M  V30 9 1 9 10
M  V30 10 2 10 11
M  V30 11 1 11 12
M  V30 12 2 12 13
M  V30 13 1 13 14
M  V30 14 2 14 15
M  V30 15 1 15 16
M  V30 16 1 16 17
M  V30 17 1 16 18
M  V30 18 2 18 19
M  V30 19 1 19 20
M  V30 20 2 20 21
M  V30 21 1 21 22
M  V30 22 2 22 23
M  V30 23 1 13 24
M  V30 24 2 24 25
M  V30 25 1 24 26
M  V30 26 1 26 27
M  V30 27 2 27 28
M  V30 28 1 11 29
M  V30 29 2 29 30
M  V30 30 1 30 31
M  V30 31 2 31 32
M  V30 32 1 32 33
M  V30 33 2 33 34
M  V30 34 1 5 35
M  V30 35 1 35 36
M  V30 36 1 36 2
M  V30 37 1 34 9
M  V30 38 1 27 12
M  V30 39 1 34 29
M  V30 40 1 23 14
M  V30 41 1 23 18
M  V30 42 1 1 37
M  V30 43 1 1 38
M  V30 44 1 1 39
M  V30 45 1 3 40
M  V30 46 1 3 41
M  V30 47 1 4 42
M  V30 48 1 4 43
M  V30 49 1 6 44
M  V30 50 1 6 45
M  V30 51 1 7 46
M  V30 52 1 7 47
M  V30 53 1 8 48
M  V30 54 1 8 49
M  V30 55 1 15 50
M  V30 56 1 17 51
M  V30 57 1 17 52
M  V30 58 1 17 53
M  V30 59 1 19 54
M  V30 60 1 20 55
M  V30 61 1 21 56
M  V30 62 1 22 57
M  V30 63 1 26 58
M  V30 64 1 30 59
M  V30 65 1 31 60
M  V30 66 1 32 61
M  V30 67 1 35 62
M  V30 68 1 35 63
M  V30 69 1 36 64
M  V30 70 1 36 65
M  V30 END BOND
M  V30 END CTAB
M  END
>  <Dataset>  (930) 
ChEMBL_Kinases

>  <Ligand_Instance>  (930) 
nan

>  <PDB_ID>  (930) 
nan

>  <Standardized_SMILES>  (930) 
CN1CCN(CCCn2nc(C3=C(c4cn(C)c5ccccc45)C(=O)NC3=O)c3cccnc32)CC1

>  <Name>  (930) 
nan

>  <Pocket>  (930) 
nan

>  <ATP_Site>  (930) 
nan

>  <Peripheral>  (930) 
nan

>  <Num_H_Atoms_ProtBoundConf>  (930) 
nan

>  <Num_Resolved_Atoms>  (930) 
nan

>  <Num_Not_Resolved_Atoms>  (930) 
nan

$$$$
CHEMBL562716
     RDKit          3D

  0  0  0  0  0  0  0  0  0  0999 V3000
M  V30 BEGIN CTAB
M  V30 COUNTS 54 57 0 0 0
M  V30 BEGIN ATOM
M  V30 1 C 2.069964 -4.923872 0.488783 0
M  V30 2 O 2.027831 -4.999172 -0.916087 0
M  V30 3 C 1.572502 -3.913159 -1.647543 0
M  V30 4 C 1.132647 -2.705537 -1.148587 0
M  V30 5 C 0.712326 -1.729301 -2.023479 0
M  V30 6 C 0.248880 -0.455498 -1.487029 0
M  V30 7 O -0.145375 0.468498 -2.243605 0
M  V30 8 O 0.225277 -0.214348 -0.120356 0
M  V30 9 C -0.230351 1.037074 0.400494 0 CFG=2
M  V30 10 C 0.928368 1.726238 1.068824 0
M  V30 11 C 0.392203 2.891689 1.819686 0
M  V30 12 C 1.055920 4.101973 1.801582 0
M  V30 13 O 2.238720 4.211038 1.065828 0
M  V30 14 C 0.518967 5.175785 2.521501 0
M  V30 15 C -0.661710 5.017790 3.239055 0
M  V30 16 O -1.158906 6.122775 3.943691 0
M  V30 17 C -1.326583 3.806843 3.257685 0
M  V30 18 C -0.777409 2.767261 2.541538 0
M  V30 19 O -1.374397 1.522426 2.504147 0
M  V30 20 C -1.372727 0.724326 1.310328 0 CFG=2
M  V30 21 C -1.535661 -0.707044 1.586704 0
M  V30 22 C -2.384553 -1.525606 0.882101 0
M  V30 23 C -2.577142 -2.874492 1.097987 0
M  V30 24 O -3.459356 -3.630629 0.335174 0
M  V30 25 C -1.833043 -3.441406 2.130522 0
M  V30 26 O -1.975883 -4.792029 2.403758 0
M  V30 27 C -0.954893 -2.675384 2.885495 0
M  V30 28 O -0.194244 -3.215870 3.928377 0
M  V30 29 C -0.828568 -1.327009 2.594128 0
M  V30 30 C 0.713628 -1.912453 -3.390439 0
M  V30 31 C 1.159558 -3.136273 -3.892609 0
M  V30 32 O 1.136022 -3.257568 -5.279541 0
M  V30 33 C 1.583073 -4.121827 -3.025564 0
M  V30 34 O 1.996630 -5.282254 -3.684829 0
M  V30 35 H 1.230465 -4.374306 0.941106 0
M  V30 36 H 3.027214 -4.457628 0.847706 0
M  V30 37 H 2.051075 -5.956531 0.910396 0
M  V30 38 H 1.148340 -2.604774 -0.072536 0
M  V30 39 H -0.536429 1.720693 -0.443498 0
M  V30 40 H 1.637885 2.027759 0.278197 0
M  V30 41 H 1.354662 1.048345 1.832080 0
M  V30 42 H 2.226303 4.523942 0.091184 0
M  V30 43 H 1.060622 6.121115 2.492169 0
M  V30 44 H -2.095430 6.473368 3.748421 0
M  V30 45 H -2.259337 3.687468 3.826432 0
M  V30 46 H -2.316693 1.047805 0.785973 0
M  V30 47 H -2.963325 -1.079617 0.077343 0
M  V30 48 H -3.652342 -3.360568 -0.629103 0
M  V30 49 H -2.432990 -5.409866 1.745177 0
M  V30 50 H -0.398539 -4.165049 4.206566 0
M  V30 51 H -0.126451 -0.751613 3.209740 0
M  V30 52 H 0.361714 -1.081418 -4.018795 0
M  V30 53 H 0.293056 -3.578868 -5.750581 0
M  V30 54 H 1.359441 -6.086695 -3.616999 0
M  V30 END ATOM
M  V30 BEGIN BOND
M  V30 1 1 1 2
M  V30 2 1 2 3
M  V30 3 2 3 4
M  V30 4 1 4 5
M  V30 5 1 5 6
M  V30 6 2 6 7
M  V30 7 1 6 8
M  V30 8 1 8 9
M  V30 9 1 9 10
M  V30 10 1 10 11
M  V30 11 2 11 12
M  V30 12 1 12 13
M  V30 13 1 12 14
M  V30 14 2 14 15
M  V30 15 1 15 16
M  V30 16 1 15 17
M  V30 17 2 17 18
M  V30 18 1 18 19
M  V30 19 1 19 20
M  V30 20 1 20 21
M  V30 21 2 21 22
M  V30 22 1 22 23
M  V30 23 1 23 24
M  V30 24 2 23 25
M  V30 25 1 25 26
M  V30 26 1 25 27
M  V30 27 1 27 28
M  V30 28 2 27 29
M  V30 29 2 5 30
M  V30 30 1 30 31
M  V30 31 1 31 32
M  V30 32 2 31 33
M  V30 33 1 33 34
M  V30 34 1 33 3
M  V30 35 1 20 9
M  V30 36 1 29 21
M  V30 37 1 18 11
M  V30 38 1 1 35
M  V30 39 1 1 36
M  V30 40 1 1 37
M  V30 41 1 4 38
M  V30 42 1 9 39 CFG=3
M  V30 43 1 10 40
M  V30 44 1 10 41
M  V30 45 1 13 42
M  V30 46 1 14 43
M  V30 47 1 16 44
M  V30 48 1 17 45
M  V30 49 1 20 46 CFG=3
M  V30 50 1 22 47
M  V30 51 1 24 48
M  V30 52 1 26 49
M  V30 53 1 28 50
M  V30 54 1 29 51
M  V30 55 1 30 52
M  V30 56 1 32 53
M  V30 57 1 34 54
M  V30 END BOND
M  V30 END CTAB
M  END
>  <Dataset>  (931) 
ChEMBL_Kinases

>  <Ligand_Instance>  (931) 
nan

>  <PDB_ID>  (931) 
nan

>  <Standardized_SMILES>  (931) 
COc1cc(C(=O)O[C@@H]2Cc3c(O)cc(O)cc3O[C@@H]2c2cc(O)c(O)c(O)c2)cc(O)c1O

>  <Name>  (931) 
nan

>  <Pocket>  (931) 
nan

>  <ATP_Site>  (931) 
nan

>  <Peripheral>  (931) 
nan

>  <Num_H_Atoms_ProtBoundConf>  (931) 
nan

>  <Num_Resolved_Atoms>  (931) 
nan

>  <Num_Not_Resolved_Atoms>  (931) 
nan

$$$$
CHEMBL562720
     RDKit          3D

  0  0  0  0  0  0  0  0  0  0999 V3000
M  V30 BEGIN CTAB
M  V30 COUNTS 41 44 0 0 0
M  V30 BEGIN ATOM
M  V30 1 C -0.748053 -5.524969 4.960975 0
M  V30 2 N -0.474656 -4.462902 4.082972 0
M  V30 3 C -0.200848 -3.400813 3.204986 0
M  V30 4 N 0.934804 -2.852731 2.790984 0
M  V30 5 C 0.975214 -1.856102 1.924968 0
M  V30 6 N 2.019722 -1.200978 1.402326 0
M  V30 7 C 1.438751 -0.310358 0.586326 0
M  V30 8 C 2.250300 0.614317 -0.207606 0
M  V30 9 C 3.628694 0.583945 -0.150591 0
M  V30 10 C 4.314386 1.483180 -0.938155 0
M  V30 11 C 3.677272 2.394200 -1.764705 0
M  V30 12 C 2.278911 2.415151 -1.813244 0
M  V30 13 C 1.513307 3.371865 -2.687369 0
M  V30 14 N 1.269479 4.576889 -1.931051 0
M  V30 15 C 1.592586 1.511465 -1.021810 0
M  V30 16 C 0.067336 -0.400249 0.594635 0
M  V30 17 C -0.265718 -1.409572 1.466082 0
M  V30 18 C -1.496170 -1.903087 1.827930 0
M  V30 19 C -1.461510 -2.962752 2.753576 0
M  V30 20 N -2.793032 -3.222398 2.910535 0
M  V30 21 C -3.503001 -2.402796 2.159791 0
M  V30 22 N -2.736529 -1.552508 1.458183 0
M  V30 23 C -3.116937 -0.518010 0.535839 0
M  V30 24 H -0.127738 -6.440155 4.924219 0
M  V30 25 H -0.823581 -5.218841 6.052230 0
M  V30 26 H -1.803446 -5.943496 4.687909 0
M  V30 27 H 0.545413 -4.622245 4.382567 0
M  V30 28 H 3.018833 -1.391300 1.622269 0
M  V30 29 H 4.127520 -0.114406 0.485393 0
M  V30 30 H 5.416462 1.514678 -0.943091 0
M  V30 31 H 4.200535 3.123839 -2.403964 0
M  V30 32 H 0.517063 2.873381 -2.870456 0
M  V30 33 H 1.971857 3.520307 -3.664571 0
M  V30 34 H 0.391560 4.566100 -1.369689 0
M  V30 35 H 1.471320 5.439090 -2.447439 0
M  V30 36 H 0.506002 1.555406 -1.082911 0
M  V30 37 H -0.587269 0.220525 0.012749 0
M  V30 38 H -4.586808 -2.455724 2.152589 0
M  V30 39 H -4.244294 -0.468485 0.493230 0
M  V30 40 H -2.806711 0.511370 0.867217 0
M  V30 41 H -2.798191 -0.736883 -0.488747 0
M  V30 END ATOM
M  V30 BEGIN BOND
M  V30 1 1 1 2
M  V30 2 1 2 3
M  V30 3 2 3 4
M  V30 4 1 4 5
M  V30 5 1 5 6
M  V30 6 1 6 7
M  V30 7 1 7 8
M  V30 8 2 8 9
M  V30 9 1 9 10
M  V30 10 2 10 11
M  V30 11 1 11 12
M  V30 12 1 12 13
M  V30 13 1 13 14
M  V30 14 2 12 15
M  V30 15 2 7 16
M  V30 16 1 16 17
M  V30 17 1 17 18
M  V30 18 2 18 19
M  V30 19 1 19 20
M  V30 20 2 20 21
M  V30 21 1 21 22
M  V30 22 1 22 23
M  V30 23 1 19 3
M  V30 24 2 17 5
M  V30 25 1 22 18
M  V30 26 1 15 8
M  V30 27 1 1 24
M  V30 28 1 1 25
M  V30 29 1 1 26
M  V30 30 1 2 27
M  V30 31 1 6 28
M  V30 32 1 9 29
M  V30 33 1 10 30
M  V30 34 1 11 31
M  V30 35 1 13 32
M  V30 36 1 13 33
M  V30 37 1 14 34
M  V30 38 1 14 35
M  V30 39 1 15 36
M  V30 40 1 16 37
M  V30 41 1 21 38
M  V30 42 1 23 39
M  V30 43 1 23 40
M  V30 44 1 23 41
M  V30 END BOND
M  V30 END CTAB
M  END
>  <Dataset>  (932) 
ChEMBL_Kinases

>  <Ligand_Instance>  (932) 
nan

>  <PDB_ID>  (932) 
nan

>  <Standardized_SMILES>  (932) 
CNc1nc2[nH]c(-c3cccc(CN)c3)cc2c2c1ncn2C

>  <Name>  (932) 
nan

>  <Pocket>  (932) 
nan

>  <ATP_Site>  (932) 
nan

>  <Peripheral>  (932) 
nan

>  <Num_H_Atoms_ProtBoundConf>  (932) 
nan

>  <Num_Resolved_Atoms>  (932) 
nan

>  <Num_Not_Resolved_Atoms>  (932) 
nan

$$$$
CHEMBL562754
     RDKit          3D

  0  0  0  0  0  0  0  0  0  0999 V3000
M  V30 BEGIN CTAB
M  V30 COUNTS 33 36 0 0 0
M  V30 BEGIN ATOM
M  V30 1 C -3.126869 -2.195660 0.005074 0
M  V30 2 C -2.354532 -2.996106 1.001872 0 CFG=2
M  V30 3 C -1.610228 -2.037984 1.905858 0
M  V30 4 N -0.885914 -1.026418 1.133814 0
M  V30 5 C 0.231836 -1.166761 0.267538 0
M  V30 6 C 0.424572 -2.380408 -0.404499 0
M  V30 7 S 1.846917 -2.201946 -1.361385 0
M  V30 8 C 2.189914 -0.442401 -0.839755 0
M  V30 9 C 3.210685 0.391635 -1.216431 0
M  V30 10 C 3.218367 1.655855 -0.666787 0
M  V30 11 C 2.193822 1.947969 0.207479 0
M  V30 12 C 1.176077 1.106622 0.578951 0
M  V30 13 C 1.124839 -0.163138 0.057862 0
M  V30 14 C 0.348769 1.884991 1.535088 0
M  V30 15 C 1.115227 3.157464 1.818347 0
M  V30 16 O 2.085309 3.185146 0.829356 0
M  V30 17 C -0.305544 -3.641650 -0.424298 0
M  V30 18 O 0.135600 -4.495909 -1.211802 0
M  V30 19 N -1.465732 -3.970630 0.372784 0
M  V30 20 H -3.555660 -1.331044 0.545917 0
M  V30 21 H -2.502279 -1.787790 -0.811465 0
M  V30 22 H -3.982088 -2.747944 -0.440215 0
M  V30 23 H -3.078212 -3.536346 1.637366 0
M  V30 24 H -0.849023 -2.643051 2.430909 0
M  V30 25 H -2.299946 -1.561133 2.596284 0
M  V30 26 H -1.275191 -0.055184 1.253222 0
M  V30 27 H 3.945719 0.024485 -1.912684 0
M  V30 28 H 4.021482 2.308090 -0.965069 0
M  V30 29 H 0.155737 1.356011 2.491321 0
M  V30 30 H -0.564941 2.201074 0.994039 0
M  V30 31 H 0.457201 4.071243 1.728674 0
M  V30 32 H 1.519222 3.113076 2.844815 0
M  V30 33 H -1.604159 -5.004230 0.452927 0
M  V30 END ATOM
M  V30 BEGIN BOND
M  V30 1 1 1 2
M  V30 2 1 2 3
M  V30 3 1 3 4
M  V30 4 1 4 5
M  V30 5 2 5 6
M  V30 6 1 6 7
M  V30 7 1 7 8
M  V30 8 2 8 9
M  V30 9 1 9 10
M  V30 10 2 10 11
M  V30 11 1 11 12
M  V30 12 2 12 13
M  V30 13 1 12 14
M  V30 14 1 14 15
M  V30 15 1 15 16
M  V30 16 1 6 17
M  V30 17 2 17 18
M  V30 18 1 17 19
M  V30 19 1 19 2
M  V30 20 1 13 5
M  V30 21 1 13 8
M  V30 22 1 16 11
M  V30 23 1 1 20
M  V30 24 1 1 21
M  V30 25 1 1 22
M  V30 26 1 2 23 CFG=1
M  V30 27 1 3 24
M  V30 28 1 3 25
M  V30 29 1 4 26
M  V30 30 1 9 27
M  V30 31 1 10 28
M  V30 32 1 14 29
M  V30 33 1 14 30
M  V30 34 1 15 31
M  V30 35 1 15 32
M  V30 36 1 19 33
M  V30 END BOND
M  V30 END CTAB
M  END
>  <Dataset>  (933) 
ChEMBL_Kinases

>  <Ligand_Instance>  (933) 
nan

>  <PDB_ID>  (933) 
nan

>  <Standardized_SMILES>  (933) 
C[C@@H]1CNc2c(sc3ccc4c(c23)CCO4)C(=O)N1

>  <Name>  (933) 
nan

>  <Pocket>  (933) 
nan

>  <ATP_Site>  (933) 
nan

>  <Peripheral>  (933) 
nan

>  <Num_H_Atoms_ProtBoundConf>  (933) 
nan

>  <Num_Resolved_Atoms>  (933) 
nan

>  <Num_Not_Resolved_Atoms>  (933) 
nan

$$$$
CHEMBL562764
     RDKit          3D

  0  0  0  0  0  0  0  0  0  0999 V3000
M  V30 BEGIN CTAB
M  V30 COUNTS 40 43 0 0 0
M  V30 BEGIN ATOM
M  V30 1 N 2.955488 -3.997865 2.875627 0
M  V30 2 C 3.446728 -2.681517 2.707851 0
M  V30 3 O 4.506763 -2.315293 3.260978 0
M  V30 4 C 2.662362 -1.850370 1.890493 0
M  V30 5 S 3.246407 -0.079515 1.621245 0
M  V30 6 C 1.951410 0.406667 0.597553 0
M  V30 7 C 1.880434 1.786179 0.046807 0
M  V30 8 C 2.888404 2.699254 0.362622 0
M  V30 9 N 2.593607 3.869924 -0.253789 0
M  V30 10 C 1.445638 3.728100 -0.941136 0
M  V30 11 C 0.712105 4.589347 -1.727049 0
M  V30 12 C -0.467810 4.167993 -2.332707 0
M  V30 13 C -0.832752 2.859436 -2.090536 0
M  V30 14 C -0.060772 2.047708 -1.297978 0
M  V30 15 N 1.064289 2.461347 -0.724821 0
M  V30 16 C 1.172201 -0.662340 0.481658 0
M  V30 17 C 1.476988 -1.827830 1.109026 0
M  V30 18 O 0.967065 -3.082687 1.236354 0
M  V30 19 C -0.201504 -3.580549 0.665127 0
M  V30 20 C -1.373676 -2.832593 1.139882 0
M  V30 21 C -2.226367 -1.898753 0.597519 0
M  V30 22 C -3.279252 -1.374681 1.305670 0
M  V30 23 C -3.533434 -1.762735 2.603499 0
M  V30 24 C -2.705835 -2.697242 3.190984 0
M  V30 25 C -1.633440 -3.226689 2.460279 0
M  V30 26 Cl -0.730659 -4.398500 3.434815 0
M  V30 27 H 2.526308 -4.910321 3.082090 0
M  V30 28 H 3.403573 -4.706550 2.241920 0
M  V30 29 H 3.783150 2.721842 0.930414 0
M  V30 30 H 1.085185 5.603948 -1.858156 0
M  V30 31 H -0.973251 4.915004 -2.929825 0
M  V30 32 H -1.753317 2.551654 -2.570607 0
M  V30 33 H -0.458850 1.067797 -1.197450 0
M  V30 34 H 0.271101 -0.755005 -0.082363 0
M  V30 35 H -0.188150 -3.441839 -0.459386 0
M  V30 36 H -0.310752 -4.680376 0.800072 0
M  V30 37 H -1.903856 -1.692356 -0.424567 0
M  V30 38 H -3.833266 -0.655550 0.707349 0
M  V30 39 H -4.391422 -1.272008 3.042591 0
M  V30 40 H -2.977364 -2.941483 4.203773 0
M  V30 END ATOM
M  V30 BEGIN BOND
M  V30 1 1 1 2
M  V30 2 2 2 3
M  V30 3 1 2 4
M  V30 4 1 4 5
M  V30 5 1 5 6
M  V30 6 1 6 7
M  V30 7 2 7 8
M  V30 8 1 8 9
M  V30 9 2 9 10
M  V30 10 1 10 11
M  V30 11 2 11 12
M  V30 12 1 12 13
M  V30 13 2 13 14
M  V30 14 1 14 15
M  V30 15 2 6 16
M  V30 16 1 16 17
M  V30 17 1 17 18
M  V30 18 1 18 19
M  V30 19 1 19 20
M  V30 20 2 20 21
M  V30 21 1 21 22
M  V30 22 2 22 23
M  V30 23 1 23 24
M  V30 24 2 24 25
M  V30 25 1 25 26
M  V30 26 2 17 4
M  V30 27 1 25 20
M  V30 28 1 15 7
M  V30 29 1 15 10
M  V30 30 1 1 27
M  V30 31 1 1 28
M  V30 32 1 8 29
M  V30 33 1 11 30
M  V30 34 1 12 31
M  V30 35 1 13 32
M  V30 36 1 14 33
M  V30 37 1 16 34
M  V30 38 1 19 35
M  V30 39 1 19 36
M  V30 40 1 21 37
M  V30 41 1 22 38
M  V30 42 1 23 39
M  V30 43 1 24 40
M  V30 END BOND
M  V30 END CTAB
M  END
>  <Dataset>  (934) 
ChEMBL_Kinases

>  <Ligand_Instance>  (934) 
nan

>  <PDB_ID>  (934) 
nan

>  <Standardized_SMILES>  (934) 
NC(=O)c1sc(-c2cnc3ccccn23)cc1OCc1ccccc1Cl

>  <Name>  (934) 
nan

>  <Pocket>  (934) 
nan

>  <ATP_Site>  (934) 
nan

>  <Peripheral>  (934) 
nan

>  <Num_H_Atoms_ProtBoundConf>  (934) 
nan

>  <Num_Resolved_Atoms>  (934) 
nan

>  <Num_Not_Resolved_Atoms>  (934) 
nan

$$$$
CHEMBL56281
     RDKit          3D

  0  0  0  0  0  0  0  0  0  0999 V3000
M  V30 BEGIN CTAB
M  V30 COUNTS 17 17 0 0 0
M  V30 BEGIN ATOM
M  V30 1 N 0.785383 -3.085842 4.354925 0
M  V30 2 C 0.990013 -2.260815 3.562798 0
M  V30 3 C 1.240026 -1.228191 2.592435 0
M  V30 4 C 2.605796 -0.759237 2.558562 0
M  V30 5 N 3.719424 -0.384006 2.547555 0
M  V30 6 C 0.297853 -0.756034 1.788523 0
M  V30 7 C 0.522595 0.272617 0.812388 0
M  V30 8 C 1.295731 1.353521 1.114971 0
M  V30 9 C 1.521251 2.348494 0.180837 0
M  V30 10 C 0.937468 2.214248 -1.074138 0
M  V30 11 N 0.167074 1.149548 -1.389742 0
M  V30 12 C -0.030625 0.193984 -0.443846 0
M  V30 13 H -0.701570 -1.207355 1.913373 0
M  V30 14 H 1.777697 1.528722 2.053989 0
M  V30 15 H 2.129585 3.213864 0.380253 0
M  V30 16 H 1.106858 2.984948 -1.809226 0
M  V30 17 H -0.647608 -0.671410 -0.666629 0
M  V30 END ATOM
M  V30 BEGIN BOND
M  V30 1 3 1 2
M  V30 2 1 2 3
M  V30 3 1 3 4
M  V30 4 3 4 5
M  V30 5 2 3 6 CFG=2
M  V30 6 1 6 7
M  V30 7 2 7 8
M  V30 8 1 8 9
M  V30 9 2 9 10
M  V30 10 1 10 11
M  V30 11 2 11 12
M  V30 12 1 12 7
M  V30 13 1 6 13
M  V30 14 1 8 14
M  V30 15 1 9 15
M  V30 16 1 10 16
M  V30 17 1 12 17
M  V30 END BOND
M  V30 END CTAB
M  END
>  <Dataset>  (935) 
ChEMBL_Kinases

>  <Ligand_Instance>  (935) 
nan

>  <PDB_ID>  (935) 
nan

>  <Standardized_SMILES>  (935) 
N#CC(C#N)=Cc1cccnc1

>  <Name>  (935) 
nan

>  <Pocket>  (935) 
nan

>  <ATP_Site>  (935) 
nan

>  <Peripheral>  (935) 
nan

>  <Num_H_Atoms_ProtBoundConf>  (935) 
nan

>  <Num_Resolved_Atoms>  (935) 
nan

>  <Num_Not_Resolved_Atoms>  (935) 
nan

$$$$
CHEMBL562931
     RDKit          3D

  0  0  0  0  0  0  0  0  0  0999 V3000
M  V30 BEGIN CTAB
M  V30 COUNTS 48 51 0 0 0
M  V30 BEGIN ATOM
M  V30 1 C 2.419195 -3.591430 3.022876 0
M  V30 2 C 3.324321 -2.413885 2.726670 0
M  V30 3 C 4.141507 -2.086504 3.975168 0
M  V30 4 C 4.295261 -2.832816 1.686098 0
M  V30 5 O 4.512515 -2.331428 0.530538 0
M  V30 6 O 5.155737 -3.908403 1.855529 0
M  V30 7 C 2.555070 -1.256631 2.264485 0
M  V30 8 C 2.347523 -0.190781 3.109891 0
M  V30 9 C 1.627477 0.927182 2.724679 0
M  V30 10 C 1.099657 0.969018 1.442208 0
M  V30 11 C 0.320068 2.114832 0.941706 0
M  V30 12 C 0.602942 3.474055 1.050774 0
M  V30 13 N -0.364722 4.194848 0.455385 0
M  V30 14 C -1.309655 3.357005 -0.062121 0
M  V30 15 N -2.456727 3.543792 -0.739441 0
M  V30 16 C -3.235357 2.526437 -1.151358 0
M  V30 17 C -2.871156 1.201640 -0.883638 0
M  V30 18 C -3.648623 0.036147 -1.288513 0
M  V30 19 C -5.023077 -0.006430 -1.398439 0
M  V30 20 C -5.645519 -1.174010 -1.794033 0
M  V30 21 C -4.895572 -2.296169 -2.079022 0
M  V30 22 C -3.514790 -2.293763 -1.980804 0
M  V30 23 C -2.785327 -3.488525 -2.289260 0
M  V30 24 N -2.195413 -4.457183 -2.519078 0
M  V30 25 C -2.894047 -1.105526 -1.579034 0
M  V30 26 C -1.681202 1.046949 -0.182669 0
M  V30 27 C -0.886344 2.091838 0.237731 0
M  V30 28 C 1.308312 -0.104350 0.589798 0
M  V30 29 C 2.035848 -1.225715 0.989554 0
M  V30 30 H 1.805805 -3.443899 3.936091 0
M  V30 31 H 1.761914 -3.717980 2.128093 0
M  V30 32 H 3.054025 -4.480667 3.187282 0
M  V30 33 H 4.850364 -2.918656 4.132329 0
M  V30 34 H 3.502378 -1.985210 4.873569 0
M  V30 35 H 4.719529 -1.151584 3.779917 0
M  V30 36 H 5.351744 -4.608686 1.152953 0
M  V30 37 H 2.753291 -0.226166 4.091788 0
M  V30 38 H 1.462531 1.766602 3.386105 0
M  V30 39 H 1.468634 3.883958 1.539695 0
M  V30 40 H -0.418712 5.247104 0.380629 0
M  V30 41 H -4.169030 2.683535 -1.702906 0
M  V30 42 H -5.564203 0.890093 -1.166902 0
M  V30 43 H -6.734065 -1.186259 -1.874494 0
M  V30 44 H -5.366345 -3.234086 -2.395071 0
M  V30 45 H -1.815961 -1.204731 -1.533204 0
M  V30 46 H -1.397887 0.036044 0.026545 0
M  V30 47 H 0.941875 -0.167681 -0.425049 0
M  V30 48 H 2.200236 -2.069138 0.321674 0
M  V30 END ATOM
M  V30 BEGIN BOND
M  V30 1 1 1 2
M  V30 2 1 2 3
M  V30 3 1 2 4
M  V30 4 2 4 5
M  V30 5 1 4 6
M  V30 6 1 2 7
M  V30 7 2 7 8
M  V30 8 1 8 9
M  V30 9 2 9 10
M  V30 10 1 10 11
M  V30 11 2 11 12
M  V30 12 1 12 13
M  V30 13 1 13 14
M  V30 14 2 14 15
M  V30 15 1 15 16
M  V30 16 2 16 17
M  V30 17 1 17 18
M  V30 18 2 18 19
M  V30 19 1 19 20
M  V30 20 2 20 21
M  V30 21 1 21 22
M  V30 22 1 22 23
M  V30 23 3 23 24
M  V30 24 2 22 25
M  V30 25 1 17 26
M  V30 26 2 26 27
M  V30 27 1 10 28
M  V30 28 2 28 29
M  V30 29 1 29 7
M  V30 30 1 27 11
M  V30 31 1 27 14
M  V30 32 1 25 18
M  V30 33 1 1 30
M  V30 34 1 1 31
M  V30 35 1 1 32
M  V30 36 1 3 33
M  V30 37 1 3 34
M  V30 38 1 3 35
M  V30 39 1 6 36
M  V30 40 1 8 37
M  V30 41 1 9 38
M  V30 42 1 12 39
M  V30 43 1 13 40
M  V30 44 1 16 41
M  V30 45 1 19 42
M  V30 46 1 20 43
M  V30 47 1 21 44
M  V30 48 1 25 45
M  V30 49 1 26 46
M  V30 50 1 28 47
M  V30 51 1 29 48
M  V30 END BOND
M  V30 END CTAB
M  END
>  <Dataset>  (936) 
ChEMBL_Kinases

>  <Ligand_Instance>  (936) 
nan

>  <PDB_ID>  (936) 
nan

>  <Standardized_SMILES>  (936) 
CC(C)(C(=O)O)c1ccc(-c2c[nH]c3ncc(-c4cccc(C#N)c4)cc23)cc1

>  <Name>  (936) 
nan

>  <Pocket>  (936) 
nan

>  <ATP_Site>  (936) 
nan

>  <Peripheral>  (936) 
nan

>  <Num_H_Atoms_ProtBoundConf>  (936) 
nan

>  <Num_Resolved_Atoms>  (936) 
nan

>  <Num_Not_Resolved_Atoms>  (936) 
nan

$$$$
CHEMBL562971
     RDKit          3D

  0  0  0  0  0  0  0  0  0  0999 V3000
M  V30 BEGIN CTAB
M  V30 COUNTS 53 56 0 0 0
M  V30 BEGIN ATOM
M  V30 1 C 5.103492 -5.568982 -3.320872 0
M  V30 2 N 3.733547 -5.140743 -3.187895 0
M  V30 3 C 2.667791 -4.333053 -2.781253 0
M  V30 4 N 3.136258 -3.288383 -2.062659 0
M  V30 5 C 2.299887 -2.342442 -1.541840 0
M  V30 6 N 2.419466 -1.211244 -0.802250 0
M  V30 7 C 1.206537 -0.673228 -0.581001 0
M  V30 8 C 0.901067 0.541419 0.173575 0
M  V30 9 C 1.910097 1.276214 0.760798 0
M  V30 10 C 1.592061 2.423691 1.473708 0
M  V30 11 C 0.274687 2.860679 1.616386 0
M  V30 12 C -0.723038 2.115740 1.023508 0
M  V30 13 C -2.181884 2.400708 1.055040 0
M  V30 14 N -2.822569 1.747597 2.174776 0
M  V30 15 C -2.740349 2.183238 3.521975 0
M  V30 16 O -2.097442 3.189997 3.890650 0
M  V30 17 C -3.437029 1.445500 4.617610 0
M  V30 18 C -3.161889 2.146062 5.951507 0
M  V30 19 O -1.802181 2.156108 6.197072 0
M  V30 20 C -1.542190 2.783689 7.393252 0
M  V30 21 C -0.409615 0.957452 0.302967 0
M  V30 22 C 0.282789 -1.489057 -1.200657 0
M  V30 23 C 0.959409 -2.529298 -1.799941 0
M  V30 24 C 0.487877 -3.595403 -2.532683 0
M  V30 25 C 1.334568 -4.539695 -3.051294 0
M  V30 26 N 0.727525 -5.517735 -3.741167 0
M  V30 27 C -0.596863 -5.200216 -3.673505 0
M  V30 28 N -0.723726 -4.051745 -2.949879 0
M  V30 29 C -1.983113 -3.377067 -2.646708 0
M  V30 30 H 5.487816 -5.579503 -4.350186 0
M  V30 31 H 5.334292 -6.533718 -2.836157 0
M  V30 32 H 5.794288 -4.833196 -2.787164 0
M  V30 33 H 3.337548 -5.958789 -3.748568 0
M  V30 34 H 3.337013 -0.846657 -0.473479 0
M  V30 35 H 2.958696 0.985188 0.684198 0
M  V30 36 H 2.338042 3.042223 1.957232 0
M  V30 37 H -0.043487 3.736494 2.151363 0
M  V30 38 H -2.681753 2.178056 0.111184 0
M  V30 39 H -2.255115 3.503600 1.283898 0
M  V30 40 H -3.390232 0.892215 1.993698 0
M  V30 41 H -3.001445 0.405015 4.679534 0
M  V30 42 H -4.531085 1.448413 4.486484 0
M  V30 43 H -3.594396 3.175556 5.878362 0
M  V30 44 H -3.663897 1.575761 6.747708 0
M  V30 45 H -2.025433 2.303680 8.275971 0
M  V30 46 H -1.823603 3.858135 7.364150 0
M  V30 47 H -0.432149 2.744292 7.577076 0
M  V30 48 H -1.161785 0.333719 -0.184179 0
M  V30 49 H -0.798530 -1.371623 -1.236669 0
M  V30 50 H -1.401673 -5.767143 -4.119341 0
M  V30 51 H -2.832855 -3.984395 -3.032761 0
M  V30 52 H -2.159559 -3.323833 -1.537317 0
M  V30 53 H -2.019803 -2.367277 -3.096654 0
M  V30 END ATOM
M  V30 BEGIN BOND
M  V30 1 1 1 2
M  V30 2 1 2 3
M  V30 3 2 3 4
M  V30 4 1 4 5
M  V30 5 1 5 6
M  V30 6 1 6 7
M  V30 7 1 7 8
M  V30 8 2 8 9
M  V30 9 1 9 10
M  V30 10 2 10 11
M  V30 11 1 11 12
M  V30 12 1 12 13
M  V30 13 1 13 14
M  V30 14 1 14 15
M  V30 15 2 15 16
M  V30 16 1 15 17
M  V30 17 1 17 18
M  V30 18 1 18 19
M  V30 19 1 19 20
M  V30 20 2 12 21
M  V30 21 2 7 22
M  V30 22 1 22 23
M  V30 23 1 23 24
M  V30 24 2 24 25
M  V30 25 1 25 26
M  V30 26 2 26 27
M  V30 27 1 27 28
M  V30 28 1 28 29
M  V30 29 1 25 3
M  V30 30 2 23 5
M  V30 31 1 28 24
M  V30 32 1 21 8
M  V30 33 1 1 30
M  V30 34 1 1 31
M  V30 35 1 1 32
M  V30 36 1 2 33
M  V30 37 1 6 34
M  V30 38 1 9 35
M  V30 39 1 10 36
M  V30 40 1 11 37
M  V30 41 1 13 38
M  V30 42 1 13 39
M  V30 43 1 14 40
M  V30 44 1 17 41
M  V30 45 1 17 42
M  V30 46 1 18 43
M  V30 47 1 18 44
M  V30 48 1 20 45
M  V30 49 1 20 46
M  V30 50 1 20 47
M  V30 51 1 21 48
M  V30 52 1 22 49
M  V30 53 1 27 50
M  V30 54 1 29 51
M  V30 55 1 29 52
M  V30 56 1 29 53
M  V30 END BOND
M  V30 END CTAB
M  END
>  <Dataset>  (937) 
ChEMBL_Kinases

>  <Ligand_Instance>  (937) 
nan

>  <PDB_ID>  (937) 
nan

>  <Standardized_SMILES>  (937) 
CNc1nc2[nH]c(-c3cccc(CNC(=O)CCOC)c3)cc2c2c1ncn2C

>  <Name>  (937) 
nan

>  <Pocket>  (937) 
nan

>  <ATP_Site>  (937) 
nan

>  <Peripheral>  (937) 
nan

>  <Num_H_Atoms_ProtBoundConf>  (937) 
nan

>  <Num_Resolved_Atoms>  (937) 
nan

>  <Num_Not_Resolved_Atoms>  (937) 
nan

$$$$
CHEMBL563091
     RDKit          3D

  0  0  0  0  0  0  0  0  0  0999 V3000
M  V30 BEGIN CTAB
M  V30 COUNTS 42 45 0 0 0
M  V30 BEGIN ATOM
M  V30 1 C 3.594175 -0.641671 5.100342 0
M  V30 2 C 3.778894 -1.601279 3.954274 0
M  V30 3 C 4.589618 -2.729461 4.036097 0
M  V30 4 C 4.704188 -3.557755 2.938195 0
M  V30 5 N 4.043259 -3.283697 1.800447 0
M  V30 6 C 3.247036 -2.213161 1.657897 0
M  V30 7 C 3.135409 -1.389051 2.756065 0
M  V30 8 N 2.312662 -0.243499 2.677946 0
M  V30 9 C 1.515017 0.282829 1.643405 0
M  V30 10 C 1.714318 1.554831 1.094478 0
M  V30 11 C 0.917211 2.049198 0.081117 0
M  V30 12 O 1.169083 3.210611 -0.356168 0
M  V30 13 N -0.102853 1.295006 -0.418410 0
M  V30 14 C -0.937425 1.821161 -1.484341 0
M  V30 15 C -0.284244 0.077483 0.115636 0
M  V30 16 C 0.478045 -0.466529 1.125685 0
M  V30 17 C -0.053098 -1.718006 1.360257 0
M  V30 18 N -1.098825 -1.903250 0.510676 0
M  V30 19 N -1.234917 -0.806905 -0.244705 0
M  V30 20 C -2.291607 -0.824454 -1.200931 0
M  V30 21 C -3.623849 -0.669749 -0.801268 0
M  V30 22 C -4.697858 -0.677203 -1.678214 0
M  V30 23 F -5.957113 -0.519852 -1.199372 0
M  V30 24 C -4.429931 -0.847533 -3.021710 0
M  V30 25 C -3.133527 -1.004681 -3.470574 0
M  V30 26 C -2.087177 -0.992124 -2.568172 0
M  V30 27 F -0.788407 -1.146631 -2.991116 0
M  V30 28 H 4.258248 -0.895131 5.934800 0
M  V30 29 H 3.746027 0.407195 4.747071 0
M  V30 30 H 2.533033 -0.711004 5.416292 0
M  V30 31 H 5.111857 -2.926142 4.968026 0
M  V30 32 H 5.351796 -4.411262 3.082689 0
M  V30 33 H 2.747908 -2.056999 0.712166 0
M  V30 34 H 2.169160 0.437408 3.454145 0
M  V30 35 H 2.524460 2.131251 1.504188 0
M  V30 36 H -0.565139 1.495240 -2.481409 0
M  V30 37 H -2.009302 1.681752 -1.321597 0
M  V30 38 H -0.797956 2.942288 -1.495039 0
M  V30 39 H 0.335341 -2.408739 2.112958 0
M  V30 40 H -3.856071 -0.535223 0.244292 0
M  V30 41 H -5.248993 -0.858138 -3.735029 0
M  V30 42 H -2.913560 -1.139666 -4.529374 0
M  V30 END ATOM
M  V30 BEGIN BOND
M  V30 1 1 1 2
M  V30 2 2 2 3
M  V30 3 1 3 4
M  V30 4 2 4 5
M  V30 5 1 5 6
M  V30 6 2 6 7
M  V30 7 1 7 8
M  V30 8 1 8 9
M  V30 9 2 9 10
M  V30 10 1 10 11
M  V30 11 2 11 12
M  V30 12 1 11 13
M  V30 13 1 13 14
M  V30 14 1 13 15
M  V30 15 2 15 16
M  V30 16 1 16 17
M  V30 17 2 17 18
M  V30 18 1 18 19
M  V30 19 1 19 20
M  V30 20 2 20 21
M  V30 21 1 21 22
M  V30 22 1 22 23
M  V30 23 2 22 24
M  V30 24 1 24 25
M  V30 25 2 25 26
M  V30 26 1 26 27
M  V30 27 1 7 2
M  V30 28 1 16 9
M  V30 29 1 26 20
M  V30 30 1 19 15
M  V30 31 1 1 28
M  V30 32 1 1 29
M  V30 33 1 1 30
M  V30 34 1 3 31
M  V30 35 1 4 32
M  V30 36 1 6 33
M  V30 37 1 8 34
M  V30 38 1 10 35
M  V30 39 1 14 36
M  V30 40 1 14 37
M  V30 41 1 14 38
M  V30 42 1 17 39
M  V30 43 1 21 40
M  V30 44 1 24 41
M  V30 45 1 25 42
M  V30 END BOND
M  V30 END CTAB
M  END
>  <Dataset>  (938) 
ChEMBL_Kinases

>  <Ligand_Instance>  (938) 
nan

>  <PDB_ID>  (938) 
nan

>  <Standardized_SMILES>  (938) 
Cc1ccncc1Nc1cc(=O)n(C)c2c1cnn2-c1cc(F)ccc1F

>  <Name>  (938) 
nan

>  <Pocket>  (938) 
nan

>  <ATP_Site>  (938) 
nan

>  <Peripheral>  (938) 
nan

>  <Num_H_Atoms_ProtBoundConf>  (938) 
nan

>  <Num_Resolved_Atoms>  (938) 
nan

>  <Num_Not_Resolved_Atoms>  (938) 
nan

$$$$
CHEMBL563672
     RDKit          3D

  0  0  0  0  0  0  0  0  0  0999 V3000
M  V30 BEGIN CTAB
M  V30 COUNTS 39 42 0 0 0
M  V30 BEGIN ATOM
M  V30 1 C 0.381815 -4.942346 2.784582 0
M  V30 2 C -1.059576 -4.765948 2.383525 0 CFG=2
M  V30 3 C -1.218331 -4.087777 1.058862 0
M  V30 4 N -0.570995 -2.795031 0.957069 0
M  V30 5 C -0.843596 -1.593792 1.659708 0
M  V30 6 C -1.448428 -1.665325 2.936577 0
M  V30 7 S -1.619822 0.092435 3.474636 0
M  V30 8 C -0.876769 0.765138 1.963962 0
M  V30 9 C -0.671308 2.087270 1.659307 0
M  V30 10 C -0.088678 2.353580 0.450213 0
M  V30 11 C 0.261856 1.354341 -0.390423 0
M  V30 12 O 0.835431 1.401893 -1.593413 0
M  V30 13 C 1.325935 2.259308 -2.493535 0
M  V30 14 C 2.511648 3.105806 -2.200319 0
M  V30 15 C 2.650671 4.111894 -1.138514 0
M  V30 16 C 3.202735 2.767070 -0.871006 0
M  V30 17 C 0.031137 0.022323 -0.034276 0
M  V30 18 C -0.558560 -0.342564 1.178811 0
M  V30 19 C -1.889051 -2.731072 3.764368 0
M  V30 20 O -2.347668 -2.368956 4.878502 0
M  V30 21 N -1.856678 -4.139296 3.448399 0
M  V30 22 H 0.546072 -4.288244 3.682959 0
M  V30 23 H 1.068338 -4.658906 1.960655 0
M  V30 24 H 0.627268 -5.974766 3.118515 0
M  V30 25 H -1.488886 -5.781597 2.255632 0
M  V30 26 H -2.296675 -4.058754 0.828592 0
M  V30 27 H -0.757345 -4.745123 0.301736 0
M  V30 28 H 0.231082 -2.700006 0.258924 0
M  V30 29 H -0.981835 2.818960 2.390303 0
M  V30 30 H 0.070472 3.374642 0.177021 0
M  V30 31 H 1.584808 1.658592 -3.439176 0
M  V30 32 H 0.492974 2.944798 -2.907096 0
M  V30 33 H 3.218258 3.261876 -3.083760 0
M  V30 34 H 3.470088 4.891483 -1.288864 0
M  V30 35 H 1.814744 4.570426 -0.606986 0
M  V30 36 H 2.704503 2.103167 -0.160086 0
M  V30 37 H 4.297858 2.587273 -0.978443 0
M  V30 38 H 0.308416 -0.815196 -0.705264 0
M  V30 39 H -2.474944 -4.718379 4.064416 0
M  V30 END ATOM
M  V30 BEGIN BOND
M  V30 1 1 1 2
M  V30 2 1 2 3
M  V30 3 1 3 4
M  V30 4 1 4 5
M  V30 5 2 5 6
M  V30 6 1 6 7
M  V30 7 1 7 8
M  V30 8 2 8 9
M  V30 9 1 9 10
M  V30 10 2 10 11
M  V30 11 1 11 12
M  V30 12 1 12 13
M  V30 13 1 13 14
M  V30 14 1 14 15
M  V30 15 1 15 16
M  V30 16 1 11 17
M  V30 17 2 17 18
M  V30 18 1 6 19
M  V30 19 2 19 20
M  V30 20 1 19 21
M  V30 21 1 21 2
M  V30 22 1 18 5
M  V30 23 1 18 8
M  V30 24 1 16 14
M  V30 25 1 1 22
M  V30 26 1 1 23
M  V30 27 1 1 24
M  V30 28 1 2 25 CFG=3
M  V30 29 1 3 26
M  V30 30 1 3 27
M  V30 31 1 4 28
M  V30 32 1 9 29
M  V30 33 1 10 30
M  V30 34 1 13 31
M  V30 35 1 13 32
M  V30 36 1 14 33
M  V30 37 1 15 34
M  V30 38 1 15 35
M  V30 39 1 16 36
M  V30 40 1 16 37
M  V30 41 1 17 38
M  V30 42 1 21 39
M  V30 END BOND
M  V30 END CTAB
M  END
>  <Dataset>  (939) 
ChEMBL_Kinases

>  <Ligand_Instance>  (939) 
nan

>  <PDB_ID>  (939) 
nan

>  <Standardized_SMILES>  (939) 
C[C@@H]1CNc2c(sc3ccc(OCC4CC4)cc23)C(=O)N1

>  <Name>  (939) 
nan

>  <Pocket>  (939) 
nan

>  <ATP_Site>  (939) 
nan

>  <Peripheral>  (939) 
nan

>  <Num_H_Atoms_ProtBoundConf>  (939) 
nan

>  <Num_Resolved_Atoms>  (939) 
nan

>  <Num_Not_Resolved_Atoms>  (939) 
nan

$$$$
CHEMBL563121
     RDKit          3D

  0  0  0  0  0  0  0  0  0  0999 V3000
M  V30 BEGIN CTAB
M  V30 COUNTS 63 68 0 0 0
M  V30 BEGIN ATOM
M  V30 1 C 1.110956 2.254965 3.439695 0
M  V30 2 N 0.461059 0.960357 3.318356 0
M  V30 3 C 0.975477 -0.234547 2.929306 0
M  V30 4 C 0.053738 -1.246917 2.935198 0
M  V30 5 C 0.258450 -2.641057 2.536384 0
M  V30 6 C 0.719296 -3.332456 1.477440 0
M  V30 7 C 1.170216 -2.559897 0.329848 0
M  V30 8 N 1.870318 -1.437804 0.280511 0
M  V30 9 N 2.072590 -0.991591 -0.939329 0
M  V30 10 C 2.793945 0.235228 -1.120743 0
M  V30 11 C 2.006575 1.493265 -1.022517 0
M  V30 12 C 0.878152 1.667854 -1.971637 0
M  V30 13 N -0.139534 0.653806 -1.809982 0
M  V30 14 C -0.821576 0.837055 -0.563121 0
M  V30 15 C -1.775645 -0.286411 -0.241095 0
M  V30 16 C -2.295126 -0.873713 -1.524561 0
M  V30 17 C -2.420558 0.306934 -2.497771 0
M  V30 18 C -1.019229 0.617185 -2.965725 0
M  V30 19 C 1.480978 -1.852624 -1.781748 0
M  V30 20 N 1.423159 -1.816863 -3.115705 0
M  V30 21 C 0.780088 -2.777178 -3.834874 0
M  V30 22 C 0.193547 -3.787301 -3.091996 0
M  V30 23 C 0.256078 -3.819969 -1.713106 0
M  V30 24 C 0.912146 -2.840319 -1.000872 0
M  V30 25 C 0.665474 -4.759090 1.756704 0
M  V30 26 O 1.024819 -5.655518 0.975657 0
M  V30 27 N 0.139635 -4.969512 3.061479 0
M  V30 28 C -0.117006 -3.644325 3.551860 0
M  V30 29 O -0.605636 -3.550838 4.732452 0
M  V30 30 C -1.108740 -0.629615 3.359180 0
M  V30 31 C -2.388640 -1.107456 3.569370 0
M  V30 32 C -3.401142 -0.241466 4.008142 0
M  V30 33 C -3.082493 1.104386 4.222552 0
M  V30 34 C -1.815010 1.610388 4.021342 0
M  V30 35 C -0.848181 0.697080 3.585018 0
M  V30 36 H 2.055811 2.183239 2.845389 0
M  V30 37 H 1.423475 2.384477 4.479365 0
M  V30 38 H 0.478099 3.088270 3.059443 0
M  V30 39 H 2.013756 -0.242874 2.685448 0
M  V30 40 H 3.269843 0.225807 -2.141826 0
M  V30 41 H 3.654637 0.253408 -0.411874 0
M  V30 42 H 1.706694 1.711846 0.029983 0
M  V30 43 H 2.739351 2.340551 -1.267415 0
M  V30 44 H 0.396103 2.658817 -1.716479 0
M  V30 45 H 1.201528 1.777792 -3.026723 0
M  V30 46 H -0.049033 0.855909 0.246555 0
M  V30 47 H -1.382044 1.798532 -0.521635 0
M  V30 48 H -1.283107 -1.097570 0.310103 0
M  V30 49 H -2.671427 0.103552 0.315246 0
M  V30 50 H -3.258931 -1.407082 -1.426247 0
M  V30 51 H -1.492688 -1.520076 -1.932488 0
M  V30 52 H -3.100990 0.007380 -3.323825 0
M  V30 53 H -2.818056 1.177548 -1.958557 0
M  V30 54 H -1.007216 1.563868 -3.551309 0
M  V30 55 H -0.733028 -0.192189 -3.650495 0
M  V30 56 H 0.770663 -2.687141 -4.912734 0
M  V30 57 H -0.326026 -4.563219 -3.656037 0
M  V30 58 H -0.217416 -4.622834 -1.165110 0
M  V30 59 H 0.011356 -5.919674 3.471658 0
M  V30 60 H -2.622892 -2.151580 3.396057 0
M  V30 61 H -4.423579 -0.559456 4.187046 0
M  V30 62 H -3.808199 1.855621 4.566769 0
M  V30 63 H -1.590330 2.662472 4.194275 0
M  V30 END ATOM
M  V30 BEGIN BOND
M  V30 1 1 1 2
M  V30 2 1 2 3
M  V30 3 2 3 4
M  V30 4 1 4 5
M  V30 5 2 5 6
M  V30 6 1 6 7
M  V30 7 2 7 8
M  V30 8 1 8 9
M  V30 9 1 9 10
M  V30 10 1 10 11
M  V30 11 1 11 12
M  V30 12 1 12 13
M  V30 13 1 13 14
M  V30 14 1 14 15
M  V30 15 1 15 16
M  V30 16 1 16 17
M  V30 17 1 17 18
M  V30 18 1 9 19
M  V30 19 2 19 20
M  V30 20 1 20 21
M  V30 21 2 21 22
M  V30 22 1 22 23
M  V30 23 2 23 24
M  V30 24 1 6 25
M  V30 25 2 25 26
M  V30 26 1 25 27
M  V30 27 1 27 28
M  V30 28 2 28 29
M  V30 29 1 4 30
M  V30 30 2 30 31
M  V30 31 1 31 32
M  V30 32 2 32 33
M  V30 33 1 33 34
M  V30 34 2 34 35
M  V30 35 1 35 2
M  V30 36 1 28 5
M  V30 37 1 35 30
M  V30 38 1 24 7
M  V30 39 1 18 13
M  V30 40 1 24 19
M  V30 41 1 1 36
M  V30 42 1 1 37
M  V30 43 1 1 38
M  V30 44 1 3 39
M  V30 45 1 10 40
M  V30 46 1 10 41
M  V30 47 1 11 42
M  V30 48 1 11 43
M  V30 49 1 12 44
M  V30 50 1 12 45
M  V30 51 1 14 46
M  V30 52 1 14 47
M  V30 53 1 15 48
M  V30 54 1 15 49
M  V30 55 1 16 50
M  V30 56 1 16 51
M  V30 57 1 17 52
M  V30 58 1 17 53
M  V30 59 1 18 54
M  V30 60 1 18 55
M  V30 61 1 21 56
M  V30 62 1 22 57
M  V30 63 1 23 58
M  V30 64 1 27 59
M  V30 65 1 31 60
M  V30 66 1 32 61
M  V30 67 1 33 62
M  V30 68 1 34 63
M  V30 END BOND
M  V30 END CTAB
M  END
>  <Dataset>  (940) 
ChEMBL_Kinases

>  <Ligand_Instance>  (940) 
nan

>  <PDB_ID>  (940) 
nan

>  <Standardized_SMILES>  (940) 
Cn1cc(C2=C(c3nn(CCCN4CCCCC4)c4ncccc34)C(=O)NC2=O)c2ccccc21

>  <Name>  (940) 
nan

>  <Pocket>  (940) 
nan

>  <ATP_Site>  (940) 
nan

>  <Peripheral>  (940) 
nan

>  <Num_H_Atoms_ProtBoundConf>  (940) 
nan

>  <Num_Resolved_Atoms>  (940) 
nan

>  <Num_Not_Resolved_Atoms>  (940) 
nan

$$$$
CHEMBL563207
     RDKit          3D

  0  0  0  0  0  0  0  0  0  0999 V3000
M  V30 BEGIN CTAB
M  V30 COUNTS 42 46 0 0 0
M  V30 BEGIN ATOM
M  V30 1 C -1.142354 -7.183947 0.167420 0
M  V30 2 C -1.603266 -5.769648 -0.022255 0
M  V30 3 C -2.885468 -5.445613 -0.472083 0
M  V30 4 C -3.216050 -4.104449 -0.615060 0
M  V30 5 C -2.308091 -3.105190 -0.322914 0
M  V30 6 C -1.055827 -3.476958 0.117599 0
M  V30 7 C -0.059945 -2.464193 0.439829 0
M  V30 8 N -0.362819 -1.167890 0.307646 0
M  V30 9 C 0.508458 -0.183616 0.587556 0
M  V30 10 N 0.068333 1.135988 0.406983 0
M  V30 11 C 0.397181 2.484925 0.504034 0
M  V30 12 C 0.925779 3.208445 -0.553881 0
M  V30 13 C 1.273851 4.562385 -0.505685 0
M  V30 14 C 1.036127 5.129701 0.727321 0
M  V30 15 N 1.260462 6.420044 1.112995 0
M  V30 16 N 0.897584 6.560016 2.379110 0
M  V30 17 N 0.440659 5.421795 2.857839 0
M  V30 18 C 0.520027 4.533399 1.853086 0
M  V30 19 C 0.210904 3.192133 1.692563 0
M  V30 20 C 1.747611 -0.585278 1.023879 0
M  V30 21 C 2.672890 0.389698 1.321226 0
M  V30 22 C 3.942740 0.087099 1.765017 0
M  V30 23 C 4.300151 -1.236853 1.916828 0
M  V30 24 C 3.381567 -2.243199 1.622335 0
M  V30 25 C 2.120433 -1.902964 1.180698 0
M  V30 26 N 1.165815 -2.794051 0.870088 0
M  V30 27 N -0.718884 -4.770821 0.261753 0
M  V30 28 H -0.551943 -7.509926 -0.697939 0
M  V30 29 H -2.009899 -7.847269 0.330262 0
M  V30 30 H -0.548615 -7.178701 1.120410 0
M  V30 31 H -3.521755 -6.290436 -0.673742 0
M  V30 32 H -4.217325 -3.907916 -0.965262 0
M  V30 33 H -2.584175 -2.064635 -0.440684 0
M  V30 34 H -0.891945 1.340027 0.056596 0
M  V30 35 H 1.092863 2.697786 -1.515355 0
M  V30 36 H 1.678627 5.091838 -1.336728 0
M  V30 37 H 0.065250 5.119267 3.788010 0
M  V30 38 H -0.201597 2.640539 2.528458 0
M  V30 39 H 2.454023 1.439149 1.221657 0
M  V30 40 H 4.667439 0.856970 1.997768 0
M  V30 41 H 5.284669 -1.572990 2.263122 0
M  V30 42 H 3.631410 -3.297208 1.731211 0
M  V30 END ATOM
M  V30 BEGIN BOND
M  V30 1 1 1 2
M  V30 2 2 2 3
M  V30 3 1 3 4
M  V30 4 2 4 5
M  V30 5 1 5 6
M  V30 6 1 6 7
M  V30 7 2 7 8
M  V30 8 1 8 9
M  V30 9 1 9 10
M  V30 10 1 10 11
M  V30 11 2 11 12
M  V30 12 1 12 13
M  V30 13 2 13 14
M  V30 14 1 14 15
M  V30 15 2 15 16
M  V30 16 1 16 17
M  V30 17 1 17 18
M  V30 18 2 18 19
M  V30 19 2 9 20
M  V30 20 1 20 21
M  V30 21 2 21 22
M  V30 22 1 22 23
M  V30 23 2 23 24
M  V30 24 1 24 25
M  V30 25 2 25 26
M  V30 26 2 6 27
M  V30 27 1 27 2
M  V30 28 1 26 7
M  V30 29 1 19 11
M  V30 30 1 25 20
M  V30 31 1 18 14
M  V30 32 1 1 28
M  V30 33 1 1 29
M  V30 34 1 1 30
M  V30 35 1 3 31
M  V30 36 1 4 32
M  V30 37 1 5 33
M  V30 38 1 10 34
M  V30 39 1 12 35
M  V30 40 1 13 36
M  V30 41 1 17 37
M  V30 42 1 19 38
M  V30 43 1 21 39
M  V30 44 1 22 40
M  V30 45 1 23 41
M  V30 46 1 24 42
M  V30 END BOND
M  V30 END CTAB
M  END
>  <Dataset>  (941) 
ChEMBL_Kinases

>  <Ligand_Instance>  (941) 
nan

>  <PDB_ID>  (941) 
nan

>  <Standardized_SMILES>  (941) 
Cc1cccc(-c2nc(Nc3ccc4nn[nH]c4c3)c3ccccc3n2)n1

>  <Name>  (941) 
nan

>  <Pocket>  (941) 
nan

>  <ATP_Site>  (941) 
nan

>  <Peripheral>  (941) 
nan

>  <Num_H_Atoms_ProtBoundConf>  (941) 
nan

>  <Num_Resolved_Atoms>  (941) 
nan

>  <Num_Not_Resolved_Atoms>  (941) 
nan

$$$$
CHEMBL563235
     RDKit          3D

  0  0  0  0  0  0  0  0  0  0999 V3000
M  V30 BEGIN CTAB
M  V30 COUNTS 42 44 0 0 0
M  V30 BEGIN ATOM
M  V30 1 C 2.063273 -2.629992 2.502228 0
M  V30 2 C 3.012211 -1.574112 2.037257 0
M  V30 3 C 4.205669 -1.328084 2.689373 0
M  V30 4 C 5.051940 -0.343826 2.225992 0
M  V30 5 C 6.293086 -0.142189 2.966160 0
M  V30 6 O 6.529400 -0.860324 3.971977 0
M  V30 7 O 7.216357 0.817351 2.591258 0
M  V30 8 C 4.765646 0.428465 1.119181 0
M  V30 9 C 3.559241 0.177044 0.463105 0
M  V30 10 C 2.709731 -0.806167 0.922756 0
M  V30 11 C 1.452758 -1.053073 0.221976 0
M  V30 12 C 0.313468 -0.358774 0.603405 0
M  V30 13 N 0.424542 0.563958 1.662879 0
M  V30 14 C -0.842756 -0.630730 -0.090816 0
M  V30 15 C -2.022276 0.112167 0.315533 0
M  V30 16 O -1.878876 0.982378 1.232453 0
M  V30 17 C -3.416086 0.109252 -0.091302 0
M  V30 18 C -4.082694 1.303567 -0.383296 0
M  V30 19 C -5.393961 1.364506 -0.789388 0
M  V30 20 C -6.099616 0.191315 -0.919165 0
M  V30 21 F -7.386364 0.245663 -1.317506 0
M  V30 22 C -5.506938 -1.023710 -0.647974 0
M  V30 23 C -4.189314 -1.007716 -0.245412 0
M  V30 24 F -3.667334 -2.225670 0.018472 0
M  V30 25 C -0.768567 -1.563019 -1.098390 0
M  V30 26 C 0.376052 -2.238436 -1.456896 0
M  V30 27 N 1.494078 -1.961040 -0.769368 0 CHG=1 VAL=4
M  V30 28 O 2.641905 -2.625846 -1.115009 0 CHG=-1 VAL=1
M  V30 29 H 1.281730 -2.153274 3.123842 0
M  V30 30 H 2.670253 -3.311763 3.149223 0
M  V30 31 H 1.653877 -3.228693 1.677017 0
M  V30 32 H 4.416899 -1.940159 3.554313 0
M  V30 33 H 8.076832 0.992794 3.103235 0
M  V30 34 H 5.437208 1.203205 0.758692 0
M  V30 35 H 3.352828 0.791858 -0.401196 0
M  V30 36 H 0.316526 1.601254 1.744834 0
M  V30 37 H 0.655309 0.443622 2.692673 0
M  V30 38 H -3.563143 2.264818 -0.294857 0
M  V30 39 H -5.892034 2.290133 -1.010059 0
M  V30 40 H -6.082626 -1.921722 -0.758165 0
M  V30 41 H -1.656069 -1.781420 -1.653267 0
M  V30 42 H 0.342730 -2.966156 -2.274057 0
M  V30 END ATOM
M  V30 BEGIN BOND
M  V30 1 1 1 2
M  V30 2 2 2 3
M  V30 3 1 3 4
M  V30 4 1 4 5
M  V30 5 2 5 6
M  V30 6 1 5 7
M  V30 7 2 4 8
M  V30 8 1 8 9
M  V30 9 2 9 10
M  V30 10 1 10 11
M  V30 11 2 11 12
M  V30 12 1 12 13
M  V30 13 1 12 14
M  V30 14 1 14 15
M  V30 15 2 15 16
M  V30 16 1 15 17
M  V30 17 2 17 18
M  V30 18 1 18 19
M  V30 19 2 19 20
M  V30 20 1 20 21
M  V30 21 1 20 22
M  V30 22 2 22 23
M  V30 23 1 23 24
M  V30 24 2 14 25
M  V30 25 1 25 26
M  V30 26 2 26 27
M  V30 27 1 27 28
M  V30 28 1 10 2
M  V30 29 1 27 11
M  V30 30 1 23 17
M  V30 31 1 1 29
M  V30 32 1 1 30
M  V30 33 1 1 31
M  V30 34 1 3 32
M  V30 35 1 7 33
M  V30 36 1 8 34
M  V30 37 1 9 35
M  V30 38 1 13 36
M  V30 39 1 13 37
M  V30 40 1 18 38
M  V30 41 1 19 39
M  V30 42 1 22 40
M  V30 43 1 25 41
M  V30 44 1 26 42
M  V30 END BOND
M  V30 END CTAB
M  END
>  <Dataset>  (942) 
ChEMBL_Kinases

>  <Ligand_Instance>  (942) 
nan

>  <PDB_ID>  (942) 
nan

>  <Standardized_SMILES>  (942) 
Cc1cc(C(=O)O)ccc1-c1c(N)c(C(=O)c2ccc(F)cc2F)cc[n+]1[O-]

>  <Name>  (942) 
nan

>  <Pocket>  (942) 
nan

>  <ATP_Site>  (942) 
nan

>  <Peripheral>  (942) 
nan

>  <Num_H_Atoms_ProtBoundConf>  (942) 
nan

>  <Num_Resolved_Atoms>  (942) 
nan

>  <Num_Not_Resolved_Atoms>  (942) 
nan

$$$$
CHEMBL563249
     RDKit          3D

  0  0  0  0  0  0  0  0  0  0999 V3000
M  V30 BEGIN CTAB
M  V30 COUNTS 40 42 0 0 0
M  V30 BEGIN ATOM
M  V30 1 C 2.525891 -4.789337 1.543390 0
M  V30 2 O 2.232845 -3.546759 0.960056 0
M  V30 3 C 3.116546 -2.805238 0.189752 0
M  V30 4 C 4.418529 -3.203611 -0.104906 0
M  V30 5 C 5.253980 -2.431025 -0.873504 0
M  V30 6 C 4.791312 -1.238546 -1.361159 0
M  V30 7 C 3.503327 -0.857147 -1.062538 0
M  V30 8 C 2.622698 -1.590378 -0.297994 0
M  V30 9 C 1.262898 -1.167499 0.003338 0
M  V30 10 O 0.489212 -2.141840 -0.172037 0
M  V30 11 C 0.714392 0.107387 0.440239 0
M  V30 12 C 1.462801 1.236710 0.677294 0
M  V30 13 C 0.892015 2.422895 1.093278 0
M  V30 14 N -0.454476 2.457384 1.269112 0 CHG=1 VAL=4
M  V30 15 O -1.054916 3.622991 1.682752 0 CHG=-1 VAL=1
M  V30 16 C -1.184112 1.355331 1.037757 0
M  V30 17 C -2.625192 1.466861 1.247684 0
M  V30 18 C -2.999107 1.148886 2.554235 0
M  V30 19 C -4.335415 1.198757 2.942172 0
M  V30 20 C -5.295437 1.567644 2.018796 0
M  V30 21 C -4.909892 1.880079 0.727291 0
M  V30 22 C -3.588788 1.833975 0.332218 0
M  V30 23 Cl -2.988305 2.204652 -1.260821 0
M  V30 24 C -0.650466 0.130586 0.615077 0
M  V30 25 N -1.556080 -0.964995 0.407291 0
M  V30 26 H 1.591985 -5.417603 1.635531 0
M  V30 27 H 3.330925 -5.358412 1.066980 0
M  V30 28 H 2.830799 -4.633734 2.610057 0
M  V30 29 H 4.767004 -4.141692 0.284927 0
M  V30 30 H 6.252403 -2.808500 -1.058856 0
M  V30 31 H 5.471464 -0.657218 -1.960051 0
M  V30 32 H 3.194447 0.083806 -1.472098 0
M  V30 33 H 2.533169 1.197393 0.535578 0
M  V30 34 H 1.487303 3.308836 1.278192 0
M  V30 35 H -2.331370 0.850997 3.345575 0
M  V30 36 H -4.661596 0.957883 3.950143 0
M  V30 37 H -6.346166 1.622346 2.267925 0
M  V30 38 H -5.631170 2.175975 -0.034101 0
M  V30 39 H -1.901898 -1.655127 1.125751 0
M  V30 40 H -2.028081 -1.271157 -0.478496 0
M  V30 END ATOM
M  V30 BEGIN BOND
M  V30 1 1 1 2
M  V30 2 1 2 3
M  V30 3 2 3 4
M  V30 4 1 4 5
M  V30 5 2 5 6
M  V30 6 1 6 7
M  V30 7 2 7 8
M  V30 8 1 8 9
M  V30 9 2 9 10
M  V30 10 1 9 11
M  V30 11 2 11 12
M  V30 12 1 12 13
M  V30 13 2 13 14
M  V30 14 1 14 15
M  V30 15 1 14 16
M  V30 16 1 16 17
M  V30 17 2 17 18
M  V30 18 1 18 19
M  V30 19 2 19 20
M  V30 20 1 20 21
M  V30 21 2 21 22
M  V30 22 1 22 23
M  V30 23 2 16 24
M  V30 24 1 24 25
M  V30 25 1 8 3
M  V30 26 1 24 11
M  V30 27 1 22 17
M  V30 28 1 1 26
M  V30 29 1 1 27
M  V30 30 1 1 28
M  V30 31 1 4 29
M  V30 32 1 5 30
M  V30 33 1 6 31
M  V30 34 1 7 32
M  V30 35 1 12 33
M  V30 36 1 13 34
M  V30 37 1 18 35
M  V30 38 1 19 36
M  V30 39 1 20 37
M  V30 40 1 21 38
M  V30 41 1 25 39
M  V30 42 1 25 40
M  V30 END BOND
M  V30 END CTAB
M  END
>  <Dataset>  (943) 
ChEMBL_Kinases

>  <Ligand_Instance>  (943) 
nan

>  <PDB_ID>  (943) 
nan

>  <Standardized_SMILES>  (943) 
COc1ccccc1C(=O)c1cc[n+]([O-])c(-c2ccccc2Cl)c1N

>  <Name>  (943) 
nan

>  <Pocket>  (943) 
nan

>  <ATP_Site>  (943) 
nan

>  <Peripheral>  (943) 
nan

>  <Num_H_Atoms_ProtBoundConf>  (943) 
nan

>  <Num_Resolved_Atoms>  (943) 
nan

>  <Num_Not_Resolved_Atoms>  (943) 
nan

$$$$
CHEMBL563284
     RDKit          3D

  0  0  0  0  0  0  0  0  0  0999 V3000
M  V30 BEGIN CTAB
M  V30 COUNTS 53 57 0 0 0
M  V30 BEGIN ATOM
M  V30 1 C 0.473458 -0.863125 4.390797 0
M  V30 2 C 1.585092 -0.764218 3.401447 0
M  V30 3 C 2.696581 -1.608338 3.480822 0
M  V30 4 C 3.750913 -1.545254 2.577121 0
M  V30 5 C 3.682487 -0.607825 1.568609 0
M  V30 6 C 4.792199 -0.548936 0.625592 0
M  V30 7 O 5.744050 -1.353479 0.787433 0
M  V30 8 N 4.858584 0.362736 -0.461830 0
M  V30 9 C 5.962543 0.420421 -1.399064 0
M  V30 10 C 6.281316 1.705910 -2.088325 0
M  V30 11 C 5.599580 0.631627 -2.874574 0
M  V30 12 C 2.587195 0.225862 1.488296 0
M  V30 13 C 1.517577 0.186158 2.377597 0
M  V30 14 O 0.434277 1.044301 2.260094 0
M  V30 15 C -0.878695 0.635554 2.076349 0
M  V30 16 C -1.876000 0.963383 3.002230 0
M  V30 17 C -3.198106 0.552807 2.818878 0
M  V30 18 O -4.074797 0.863141 3.669696 0
M  V30 19 N -3.552497 -0.183011 1.725181 0
M  V30 20 C -4.930474 -0.587448 1.573274 0
M  V30 21 C -2.587877 -0.478493 0.865683 0
M  V30 22 C -1.264511 -0.108871 0.980198 0
M  V30 23 C -0.610703 -0.612051 -0.108879 0
M  V30 24 N -1.536861 -1.265029 -0.847620 0
M  V30 25 N -2.741859 -1.190364 -0.264927 0
M  V30 26 C -3.813304 -1.838986 -0.941436 0
M  V30 27 C -3.926115 -3.235953 -0.904067 0
M  V30 28 C -4.880760 -3.999211 -1.495325 0
M  V30 29 C -5.851193 -3.335488 -2.214508 0
M  V30 30 F -6.817739 -4.068344 -2.816398 0
M  V30 31 C -5.804774 -1.953351 -2.296184 0
M  V30 32 C -4.809876 -1.228129 -1.674278 0
M  V30 33 F -4.754360 0.133822 -1.750835 0
M  V30 34 H 0.217781 0.130465 4.831690 0
M  V30 35 H 0.843670 -1.492730 5.225610 0
M  V30 36 H -0.385191 -1.358608 3.891351 0
M  V30 37 H 2.750701 -2.356099 4.285575 0
M  V30 38 H 4.569945 -2.225675 2.701817 0
M  V30 39 H 4.077438 1.037427 -0.610917 0
M  V30 40 H 6.808740 -0.304350 -1.244982 0
M  V30 41 H 5.680589 2.590330 -1.768156 0
M  V30 42 H 7.321052 1.969838 -2.342545 0
M  V30 43 H 6.239532 0.128093 -3.627062 0
M  V30 44 H 4.533126 0.812983 -3.128255 0
M  V30 45 H 2.520685 0.965690 0.702320 0
M  V30 46 H -1.593819 1.541867 3.860748 0
M  V30 47 H -4.959348 -1.627061 1.249817 0
M  V30 48 H -5.449844 -0.492466 2.575289 0
M  V30 49 H -5.494916 0.039197 0.836903 0
M  V30 50 H 0.438265 -0.492823 -0.308996 0
M  V30 51 H -3.144769 -3.749668 -0.326645 0
M  V30 52 H -4.871730 -5.061570 -1.401935 0
M  V30 53 H -6.571191 -1.418636 -2.865071 0
M  V30 END ATOM
M  V30 BEGIN BOND
M  V30 1 1 1 2
M  V30 2 2 2 3
M  V30 3 1 3 4
M  V30 4 2 4 5
M  V30 5 1 5 6
M  V30 6 2 6 7
M  V30 7 1 6 8
M  V30 8 1 8 9
M  V30 9 1 9 10
M  V30 10 1 10 11
M  V30 11 1 5 12
M  V30 12 2 12 13
M  V30 13 1 13 14
M  V30 14 1 14 15
M  V30 15 2 15 16
M  V30 16 1 16 17
M  V30 17 2 17 18
M  V30 18 1 17 19
M  V30 19 1 19 20
M  V30 20 1 19 21
M  V30 21 2 21 22
M  V30 22 1 22 23
M  V30 23 2 23 24
M  V30 24 1 24 25
M  V30 25 1 25 26
M  V30 26 2 26 27
M  V30 27 1 27 28
M  V30 28 2 28 29
M  V30 29 1 29 30
M  V30 30 1 29 31
M  V30 31 2 31 32
M  V30 32 1 32 33
M  V30 33 1 13 2
M  V30 34 1 22 15
M  V30 35 1 32 26
M  V30 36 1 11 9
M  V30 37 1 25 21
M  V30 38 1 1 34
M  V30 39 1 1 35
M  V30 40 1 1 36
M  V30 41 1 3 37
M  V30 42 1 4 38
M  V30 43 1 8 39
M  V30 44 1 9 40
M  V30 45 1 10 41
M  V30 46 1 10 42
M  V30 47 1 11 43
M  V30 48 1 11 44
M  V30 49 1 12 45
M  V30 50 1 16 46
M  V30 51 1 20 47
M  V30 52 1 20 48
M  V30 53 1 20 49
M  V30 54 1 23 50
M  V30 55 1 27 51
M  V30 56 1 28 52
M  V30 57 1 31 53
M  V30 END BOND
M  V30 END CTAB
M  END
>  <Dataset>  (944) 
ChEMBL_Kinases

>  <Ligand_Instance>  (944) 
nan

>  <PDB_ID>  (944) 
nan

>  <Standardized_SMILES>  (944) 
Cc1ccc(C(=O)NC2CC2)cc1Oc1cc(=O)n(C)c2c1cnn2-c1ccc(F)cc1F

>  <Name>  (944) 
nan

>  <Pocket>  (944) 
nan

>  <ATP_Site>  (944) 
nan

>  <Peripheral>  (944) 
nan

>  <Num_H_Atoms_ProtBoundConf>  (944) 
nan

>  <Num_Resolved_Atoms>  (944) 
nan

>  <Num_Not_Resolved_Atoms>  (944) 
nan

$$$$
CHEMBL563307
     RDKit          3D

  0  0  0  0  0  0  0  0  0  0999 V3000
M  V30 BEGIN CTAB
M  V30 COUNTS 47 51 0 0 0
M  V30 BEGIN ATOM
M  V30 1 C 4.979474 -5.992084 3.710982 0
M  V30 2 O 4.079799 -5.174392 2.987485 0
M  V30 3 C 3.804948 -3.888078 3.434273 0
M  V30 4 C 4.367345 -3.340327 4.568777 0
M  V30 5 C 4.058172 -2.057673 4.965505 0
M  V30 6 C 3.168073 -1.338198 4.192039 0
M  V30 7 C 2.580961 -1.849521 3.046659 0
M  V30 8 C 1.660880 -0.977112 2.330046 0
M  V30 9 C 0.999887 -1.332025 1.182531 0
M  V30 10 C 0.151093 -0.426732 0.584540 0
M  V30 11 C -0.108525 0.836919 1.033098 0
M  V30 12 C 0.577636 1.132272 2.181628 0
M  V30 13 C 0.481857 2.315433 2.885264 0
M  V30 14 C -0.386968 3.240237 2.347386 0
M  V30 15 C -1.041524 2.895113 1.202261 0
M  V30 16 S -2.235438 3.910036 0.304724 0
M  V30 17 C -2.545316 2.721514 -0.967178 0
M  V30 18 C -1.716303 1.599079 -0.645618 0
M  V30 19 C -0.969365 1.740432 0.481369 0
M  V30 20 N -1.733547 0.539993 -1.595160 0
M  V30 21 C -2.912401 -0.100106 -2.206964 0
M  V30 22 C -3.481069 0.715222 -3.314165 0 CFG=1
M  V30 23 C -4.672665 -0.065947 -3.864889 0
M  V30 24 N -3.978259 2.014259 -2.949086 0
M  V30 25 C -3.513068 3.030356 -2.023533 0
M  V30 26 O -3.896213 4.215582 -2.060336 0
M  V30 27 N 1.426823 0.255693 2.799031 0
M  V30 28 C 2.919832 -3.117384 2.700732 0
M  V30 29 H 4.813280 -5.910566 4.805117 0
M  V30 30 H 6.038999 -5.778591 3.437612 0
M  V30 31 H 4.741929 -7.046264 3.434401 0
M  V30 32 H 5.051095 -3.913829 5.149518 0
M  V30 33 H 4.513484 -1.644777 5.864294 0
M  V30 34 H 2.974202 -0.328527 4.573134 0
M  V30 35 H 1.197580 -2.327434 0.816982 0
M  V30 36 H -0.315285 -0.871247 -0.265965 0
M  V30 37 H 1.017317 2.554581 3.786541 0
M  V30 38 H -0.544214 4.191150 2.806386 0
M  V30 39 H -0.707145 0.286033 -1.825525 0
M  V30 40 H -2.505134 -1.035932 -2.686592 0
M  V30 41 H -3.636939 -0.456328 -1.461028 0
M  V30 42 H -2.686604 0.790994 -4.099804 0
M  V30 43 H -4.580268 -1.154773 -3.637912 0
M  V30 44 H -5.617111 0.248077 -3.344501 0
M  V30 45 H -4.857652 0.149890 -4.937266 0
M  V30 46 H -4.852027 2.343126 -3.418682 0
M  V30 47 H 2.478460 -3.542415 1.813485 0
M  V30 END ATOM
M  V30 BEGIN BOND
M  V30 1 1 1 2
M  V30 2 1 2 3
M  V30 3 2 3 4
M  V30 4 1 4 5
M  V30 5 2 5 6
M  V30 6 1 6 7
M  V30 7 1 7 8
M  V30 8 2 8 9
M  V30 9 1 9 10
M  V30 10 2 10 11
M  V30 11 1 11 12
M  V30 12 1 12 13
M  V30 13 2 13 14
M  V30 14 1 14 15
M  V30 15 1 15 16
M  V30 16 1 16 17
M  V30 17 2 17 18
M  V30 18 1 18 19
M  V30 19 1 18 20
M  V30 20 1 20 21
M  V30 21 1 21 22
M  V30 22 1 22 23
M  V30 23 1 22 24
M  V30 24 1 24 25
M  V30 25 2 25 26
M  V30 26 2 12 27
M  V30 27 2 7 28
M  V30 28 1 28 3
M  V30 29 1 27 8
M  V30 30 1 19 11
M  V30 31 2 19 15
M  V30 32 1 25 17
M  V30 33 1 1 29
M  V30 34 1 1 30
M  V30 35 1 1 31
M  V30 36 1 4 32
M  V30 37 1 5 33
M  V30 38 1 6 34
M  V30 39 1 9 35
M  V30 40 1 10 36
M  V30 41 1 13 37
M  V30 42 1 14 38
M  V30 43 1 20 39
M  V30 44 1 21 40
M  V30 45 1 21 41
M  V30 46 1 22 42 CFG=3
M  V30 47 1 23 43
M  V30 48 1 23 44
M  V30 49 1 23 45
M  V30 50 1 24 46
M  V30 51 1 28 47
M  V30 END BOND
M  V30 END CTAB
M  END
>  <Dataset>  (945) 
ChEMBL_Kinases

>  <Ligand_Instance>  (945) 
nan

>  <PDB_ID>  (945) 
nan

>  <Standardized_SMILES>  (945) 
COc1cccc(-c2ccc3c(ccc4sc5c(c43)NC[C@@H](C)NC5=O)n2)c1

>  <Name>  (945) 
nan

>  <Pocket>  (945) 
nan

>  <ATP_Site>  (945) 
nan

>  <Peripheral>  (945) 
nan

>  <Num_H_Atoms_ProtBoundConf>  (945) 
nan

>  <Num_Resolved_Atoms>  (945) 
nan

>  <Num_Not_Resolved_Atoms>  (945) 
nan

$$$$
CHEMBL563308
     RDKit          3D

  0  0  0  0  0  0  0  0  0  0999 V3000
M  V30 BEGIN CTAB
M  V30 COUNTS 41 43 0 0 0
M  V30 BEGIN ATOM
M  V30 1 C -2.570375 -3.973038 3.452228 0
M  V30 2 C -3.458415 -3.266200 2.467986 0
M  V30 3 C -4.564117 -4.192701 2.005407 0
M  V30 4 C -2.738516 -2.767325 1.264103 0
M  V30 5 O -1.714213 -1.841358 1.579884 0
M  V30 6 C -0.972201 -1.309793 0.502002 0
M  V30 7 C -1.298205 -1.729188 -0.768983 0
M  V30 8 C -0.556308 -1.192296 -1.795675 0
M  V30 9 C 0.430356 -0.294008 -1.431606 0
M  V30 10 S 1.631718 0.631819 -2.552211 0
M  V30 11 C 2.417042 1.454756 -1.248232 0
M  V30 12 C 1.808326 1.049866 -0.079726 0
M  V30 13 C 0.784209 0.149986 -0.157962 0
M  V30 14 C 0.014074 -0.414952 0.836697 0
M  V30 15 N 2.240747 1.565119 1.191090 0
M  V30 16 C 2.933282 2.834519 1.464384 0
M  V30 17 C 4.346980 2.781177 0.921700 0 CFG=1
M  V30 18 C 4.932535 1.384072 1.144610 0
M  V30 19 N 4.311778 3.107645 -0.511644 0
M  V30 20 C 3.530109 2.397704 -1.496610 0
M  V30 21 O 3.767711 2.550660 -2.723619 0
M  V30 22 H -1.662330 -4.403441 2.979640 0
M  V30 23 H -2.294229 -3.287138 4.279898 0
M  V30 24 H -3.140955 -4.841693 3.866815 0
M  V30 25 H -3.994345 -2.405015 2.960926 0
M  V30 26 H -5.317007 -3.601766 1.431276 0
M  V30 27 H -4.201623 -5.006490 1.356129 0
M  V30 28 H -5.111594 -4.641369 2.873383 0
M  V30 29 H -3.503919 -2.329616 0.579240 0
M  V30 30 H -2.263944 -3.645439 0.742832 0
M  V30 31 H -2.065995 -2.425112 -1.023182 0
M  V30 32 H -0.693691 -1.422838 -2.836216 0
M  V30 33 H 0.176572 -0.163582 1.867532 0
M  V30 34 H 2.045481 0.972193 2.054061 0
M  V30 35 H 2.893269 3.036977 2.532767 0
M  V30 36 H 2.391727 3.651966 0.923879 0
M  V30 37 H 4.985230 3.496382 1.438852 0
M  V30 38 H 5.845547 1.425386 1.773221 0
M  V30 39 H 5.207531 0.988537 0.143237 0
M  V30 40 H 4.155206 0.703065 1.583025 0
M  V30 41 H 4.825386 3.876477 -1.036054 0
M  V30 END ATOM
M  V30 BEGIN BOND
M  V30 1 1 1 2
M  V30 2 1 2 3
M  V30 3 1 2 4
M  V30 4 1 4 5
M  V30 5 1 5 6
M  V30 6 2 6 7
M  V30 7 1 7 8
M  V30 8 2 8 9
M  V30 9 1 9 10
M  V30 10 1 10 11
M  V30 11 2 11 12
M  V30 12 1 12 13
M  V30 13 2 13 14
M  V30 14 1 12 15
M  V30 15 1 15 16
M  V30 16 1 16 17
M  V30 17 1 17 18
M  V30 18 1 17 19
M  V30 19 1 19 20
M  V30 20 2 20 21
M  V30 21 1 14 6
M  V30 22 1 13 9
M  V30 23 1 20 11
M  V30 24 1 1 22
M  V30 25 1 1 23
M  V30 26 1 1 24
M  V30 27 1 2 25
M  V30 28 1 3 26
M  V30 29 1 3 27
M  V30 30 1 3 28
M  V30 31 1 4 29
M  V30 32 1 4 30
M  V30 33 1 7 31
M  V30 34 1 8 32
M  V30 35 1 14 33
M  V30 36 1 15 34
M  V30 37 1 16 35
M  V30 38 1 16 36
M  V30 39 1 17 37 CFG=1
M  V30 40 1 18 38
M  V30 41 1 18 39
M  V30 42 1 18 40
M  V30 43 1 19 41
M  V30 END BOND
M  V30 END CTAB
M  END
>  <Dataset>  (946) 
ChEMBL_Kinases

>  <Ligand_Instance>  (946) 
nan

>  <PDB_ID>  (946) 
nan

>  <Standardized_SMILES>  (946) 
CC(C)COc1ccc2sc3c(c2c1)NC[C@@H](C)NC3=O

>  <Name>  (946) 
nan

>  <Pocket>  (946) 
nan

>  <ATP_Site>  (946) 
nan

>  <Peripheral>  (946) 
nan

>  <Num_H_Atoms_ProtBoundConf>  (946) 
nan

>  <Num_Resolved_Atoms>  (946) 
nan

>  <Num_Not_Resolved_Atoms>  (946) 
nan

$$$$
CHEMBL563385
     RDKit          3D

  0  0  0  0  0  0  0  0  0  0999 V3000
M  V30 BEGIN CTAB
M  V30 COUNTS 59 61 0 0 0
M  V30 BEGIN ATOM
M  V30 1 C 3.660777 -4.155626 1.916188 0
M  V30 2 C 3.305412 -2.888044 2.665906 0
M  V30 3 O 2.650179 -2.007659 1.794478 0
M  V30 4 C 2.186358 -0.763910 2.136480 0
M  V30 5 O 2.496765 -0.664804 3.346723 0
M  V30 6 C 1.497408 0.273443 1.382108 0
M  V30 7 C 1.215968 1.373310 2.058570 0
M  V30 8 C 1.542136 1.618011 3.508477 0
M  V30 9 N 0.575199 2.375942 1.233079 0
M  V30 10 C 0.912246 2.308287 -0.153071 0
M  V30 11 O 0.493141 3.379018 -0.903024 0
M  V30 12 C 1.473482 4.043464 -1.601625 0
M  V30 13 N 0.281605 1.037572 -0.621426 0
M  V30 14 C -1.053242 1.042923 -0.065557 0
M  V30 15 C -1.965122 0.008339 -0.519960 0
M  V30 16 O -1.962728 -0.917365 -1.402976 0
M  V30 17 C -3.243874 -0.005192 0.210849 0
M  V30 18 C -4.239235 -0.909797 -0.064427 0
M  V30 19 C -5.465234 -0.965541 0.595626 0
M  V30 20 C -5.716821 -0.060038 1.596566 0
M  V30 21 C -4.763751 0.877993 1.927762 0
M  V30 22 C -3.575656 0.876601 1.235763 0
M  V30 23 C 1.156774 0.032160 -0.018969 0
M  V30 24 C 0.816200 -1.342192 -0.376484 0
M  V30 25 C 1.078237 -1.801510 -1.667868 0
M  V30 26 C 0.760589 -3.093032 -2.052281 0
M  V30 27 C 0.169412 -3.947129 -1.132806 0
M  V30 28 O -0.223150 -5.267491 -1.316759 0
M  V30 29 C -0.073377 -5.979077 -2.527489 0
M  V30 30 C -0.104223 -3.511925 0.167894 0
M  V30 31 C 0.218064 -2.212554 0.545296 0
M  V30 32 H 4.652194 -4.562978 2.229041 0
M  V30 33 H 2.910633 -4.938849 2.143263 0
M  V30 34 H 3.659119 -3.925766 0.835209 0
M  V30 35 H 2.618378 -3.133788 3.495414 0
M  V30 36 H 4.266091 -2.452893 3.008959 0
M  V30 37 H 0.995389 0.918330 4.166730 0
M  V30 38 H 1.181073 2.656474 3.762110 0
M  V30 39 H 2.626779 1.636156 3.691930 0
M  V30 40 H -0.070068 3.056272 1.721347 0
M  V30 41 H 1.998795 2.199120 -0.273333 0
M  V30 42 H 0.959169 4.878023 -2.151120 0
M  V30 43 H 2.005681 3.457565 -2.347975 0
M  V30 44 H 2.143881 4.567167 -0.875820 0
M  V30 45 H -0.994218 0.965457 1.062552 0
M  V30 46 H -1.426631 2.091338 -0.230037 0
M  V30 47 H -4.126103 -1.644373 -0.824436 0
M  V30 48 H -6.216135 -1.686060 0.351765 0
M  V30 49 H -6.647702 -0.060647 2.137363 0
M  V30 50 H -4.931594 1.603990 2.710969 0
M  V30 51 H -2.850676 1.625217 1.519047 0
M  V30 52 H 2.146729 0.227869 -0.572381 0
M  V30 53 H 1.536349 -1.182501 -2.425786 0
M  V30 54 H 0.918366 -3.536795 -3.006328 0
M  V30 55 H 0.862165 -5.720135 -3.059838 0
M  V30 56 H -0.133050 -7.061462 -2.288329 0
M  V30 57 H -0.932615 -5.728864 -3.183877 0
M  V30 58 H -0.567381 -4.128526 0.944323 0
M  V30 59 H -0.019284 -1.888452 1.571744 0
M  V30 END ATOM
M  V30 BEGIN BOND
M  V30 1 1 1 2
M  V30 2 1 2 3
M  V30 3 1 3 4
M  V30 4 2 4 5
M  V30 5 1 4 6
M  V30 6 2 6 7
M  V30 7 1 7 8
M  V30 8 1 7 9
M  V30 9 1 9 10
M  V30 10 1 10 11
M  V30 11 1 11 12
M  V30 12 1 10 13
M  V30 13 1 13 14
M  V30 14 1 14 15
M  V30 15 2 15 16
M  V30 16 1 15 17
M  V30 17 2 17 18
M  V30 18 1 18 19
M  V30 19 2 19 20
M  V30 20 1 20 21
M  V30 21 2 21 22
M  V30 22 1 13 23
M  V30 23 1 23 24
M  V30 24 2 24 25
M  V30 25 1 25 26
M  V30 26 2 26 27
M  V30 27 1 27 28
M  V30 28 1 28 29
M  V30 29 1 27 30
M  V30 30 2 30 31
M  V30 31 1 23 6
M  V30 32 1 31 24
M  V30 33 1 22 17
M  V30 34 1 1 32
M  V30 35 1 1 33
M  V30 36 1 1 34
M  V30 37 1 2 35
M  V30 38 1 2 36
M  V30 39 1 8 37
M  V30 40 1 8 38
M  V30 41 1 8 39
M  V30 42 1 9 40
M  V30 43 1 10 41
M  V30 44 1 12 42
M  V30 45 1 12 43
M  V30 46 1 12 44
M  V30 47 1 14 45
M  V30 48 1 14 46
M  V30 49 1 18 47
M  V30 50 1 19 48
M  V30 51 1 20 49
M  V30 52 1 21 50
M  V30 53 1 22 51
M  V30 54 1 23 52
M  V30 55 1 25 53
M  V30 56 1 26 54
M  V30 57 1 29 55
M  V30 58 1 29 56
M  V30 59 1 29 57
M  V30 60 1 30 58
M  V30 61 1 31 59
M  V30 END BOND
M  V30 END CTAB
M  END
>  <Dataset>  (947) 
ChEMBL_Kinases

>  <Ligand_Instance>  (947) 
nan

>  <PDB_ID>  (947) 
nan

>  <Standardized_SMILES>  (947) 
CCOC(=O)C1=C(C)NC(OC)N(CC(=O)c2ccccc2)C1c1ccc(OC)cc1

>  <Name>  (947) 
nan

>  <Pocket>  (947) 
nan

>  <ATP_Site>  (947) 
nan

>  <Peripheral>  (947) 
nan

>  <Num_H_Atoms_ProtBoundConf>  (947) 
nan

>  <Num_Resolved_Atoms>  (947) 
nan

>  <Num_Not_Resolved_Atoms>  (947) 
nan

$$$$
CHEMBL563421
     RDKit          3D

  0  0  0  0  0  0  0  0  0  0999 V3000
M  V30 BEGIN CTAB
M  V30 COUNTS 44 47 0 0 0
M  V30 BEGIN ATOM
M  V30 1 C 0.121215 -6.099561 2.905646 0
M  V30 2 C 0.664641 -4.908631 2.243022 0
M  V30 3 C 2.058253 -4.763405 2.179731 0
M  V30 4 C 2.717646 -3.720795 1.568951 0
M  V30 5 C 1.904039 -2.775459 0.992439 0
M  V30 6 C 0.512134 -2.895252 1.040464 0
M  V30 7 C -0.255962 -1.832862 0.397692 0
M  V30 8 N 0.355294 -0.836497 -0.267611 0
M  V30 9 C -0.288181 0.180771 -0.877613 0
M  V30 10 N 0.642703 1.059747 -1.511363 0
M  V30 11 C 1.508252 1.817048 -0.673408 0
M  V30 12 C 2.575707 2.522650 -1.227643 0
M  V30 13 C 3.460238 3.259981 -0.452776 0
M  V30 14 C 3.264103 3.286047 0.899806 0
M  V30 15 C 2.234132 2.616112 1.519811 0
M  V30 16 C 2.011981 2.627487 2.960127 0
M  V30 17 N 0.884985 1.948612 3.507124 0
M  V30 18 O 2.860203 3.260961 3.679470 0
M  V30 19 C 1.381967 1.895022 0.693526 0
M  V30 20 C -1.663866 0.224210 -0.828165 0
M  V30 21 C -2.212371 1.297387 -1.479565 0
M  V30 22 C -3.606196 1.335198 -1.427574 0
M  V30 23 C -4.341753 0.359702 -0.768508 0
M  V30 24 C -3.694141 -0.708498 -0.125827 0
M  V30 25 C -2.322224 -0.780649 -0.155171 0
M  V30 26 N -1.590980 -1.741888 0.413482 0
M  V30 27 N -0.089073 -3.947295 1.658533 0
M  V30 28 H 0.951212 -6.629624 3.419709 0
M  V30 29 H -0.342581 -6.801370 2.145406 0
M  V30 30 H -0.647322 -5.835817 3.642336 0
M  V30 31 H 2.687567 -5.533776 2.649373 0
M  V30 32 H 3.787319 -3.633800 1.538196 0
M  V30 33 H 2.405712 -1.946455 0.506860 0
M  V30 34 H 0.712264 1.168914 -2.528363 0
M  V30 35 H 2.673415 2.458432 -2.321738 0
M  V30 36 H 4.275274 3.795777 -0.900642 0
M  V30 37 H 3.929524 3.844762 1.539339 0
M  V30 38 H -0.013459 2.053413 2.992028 0
M  V30 39 H 0.754029 1.341988 4.344073 0
M  V30 40 H 0.552476 1.353945 1.165426 0
M  V30 41 H -1.629879 2.039840 -1.981241 0
M  V30 42 H -4.151480 2.134225 -1.904184 0
M  V30 43 H -5.417846 0.334363 -0.694317 0
M  V30 44 H -4.221083 -1.495781 0.400725 0
M  V30 END ATOM
M  V30 BEGIN BOND
M  V30 1 1 1 2
M  V30 2 2 2 3
M  V30 3 1 3 4
M  V30 4 2 4 5
M  V30 5 1 5 6
M  V30 6 1 6 7
M  V30 7 2 7 8
M  V30 8 1 8 9
M  V30 9 1 9 10
M  V30 10 1 10 11
M  V30 11 2 11 12
M  V30 12 1 12 13
M  V30 13 2 13 14
M  V30 14 1 14 15
M  V30 15 1 15 16
M  V30 16 1 16 17
M  V30 17 2 16 18
M  V30 18 2 15 19
M  V30 19 2 9 20
M  V30 20 1 20 21
M  V30 21 2 21 22
M  V30 22 1 22 23
M  V30 23 2 23 24
M  V30 24 1 24 25
M  V30 25 2 25 26
M  V30 26 2 6 27
M  V30 27 1 27 2
M  V30 28 1 26 7
M  V30 29 1 19 11
M  V30 30 1 25 20
M  V30 31 1 1 28
M  V30 32 1 1 29
M  V30 33 1 1 30
M  V30 34 1 3 31
M  V30 35 1 4 32
M  V30 36 1 5 33
M  V30 37 1 10 34
M  V30 38 1 12 35
M  V30 39 1 13 36
M  V30 40 1 14 37
M  V30 41 1 17 38
M  V30 42 1 17 39
M  V30 43 1 19 40
M  V30 44 1 21 41
M  V30 45 1 22 42
M  V30 46 1 23 43
M  V30 47 1 24 44
M  V30 END BOND
M  V30 END CTAB
M  END
>  <Dataset>  (948) 
ChEMBL_Kinases

>  <Ligand_Instance>  (948) 
nan

>  <PDB_ID>  (948) 
nan

>  <Standardized_SMILES>  (948) 
Cc1cccc(-c2nc(Nc3cccc(C(N)=O)c3)c3ccccc3n2)n1

>  <Name>  (948) 
nan

>  <Pocket>  (948) 
nan

>  <ATP_Site>  (948) 
nan

>  <Peripheral>  (948) 
nan

>  <Num_H_Atoms_ProtBoundConf>  (948) 
nan

>  <Num_Resolved_Atoms>  (948) 
nan

>  <Num_Not_Resolved_Atoms>  (948) 
nan

$$$$
CHEMBL563447
     RDKit          3D

  0  0  0  0  0  0  0  0  0  0999 V3000
M  V30 BEGIN CTAB
M  V30 COUNTS 47 50 0 0 0
M  V30 BEGIN ATOM
M  V30 1 C -2.562817 -3.106069 -1.882036 0
M  V30 2 C -1.803656 -2.913168 -0.606620 0 CFG=1
M  V30 3 O -2.067247 -1.733474 0.063498 0
M  V30 4 C -1.163043 -0.735853 0.408788 0
M  V30 5 C 0.150594 -0.719464 0.159299 0
M  V30 6 C 0.874275 0.369808 0.588092 0
M  V30 7 C 2.368649 0.544520 0.386042 0
M  V30 8 C 3.235013 -0.324000 -0.239313 0
M  V30 9 N 4.424850 0.277355 -0.157983 0
M  V30 10 C 4.279209 1.445791 0.482916 0
M  V30 11 C 5.281576 2.360113 0.765060 0
M  V30 12 C 4.954044 3.517742 1.436013 0
M  V30 13 C 3.643462 3.740876 1.810455 0
M  V30 14 C 3.240168 4.979044 2.538459 0
M  V30 15 O 2.891686 5.957859 1.620214 0
M  V30 16 C 2.725265 2.781934 1.488393 0
M  V30 17 N 2.983055 1.649537 0.844365 0
M  V30 18 S -0.287959 1.399483 1.356169 0
M  V30 19 C -1.736551 0.308986 1.069146 0
M  V30 20 C -3.072065 0.671272 1.521361 0
M  V30 21 N -3.287485 1.897394 2.206553 0
M  V30 22 O -3.953149 -0.179564 1.248269 0
M  V30 23 C -2.066420 -4.126349 0.248114 0
M  V30 24 C -3.158461 -4.033949 1.085786 0
M  V30 25 C -3.458360 -5.095358 1.890389 0
M  V30 26 C -2.723771 -6.262980 1.911342 0
M  V30 27 C -1.631972 -6.310534 1.050155 0
M  V30 28 C -1.286571 -5.264310 0.216642 0
M  V30 29 Cl 0.081819 -5.315361 -0.867243 0
M  V30 30 H -2.080131 -2.656218 -2.764446 0
M  V30 31 H -3.599712 -2.732474 -1.771459 0
M  V30 32 H -2.618651 -4.193732 -2.093204 0
M  V30 33 H -0.722115 -2.961522 -0.844437 0
M  V30 34 H 0.654267 -1.544295 -0.372017 0
M  V30 35 H 2.874478 -1.270094 -0.664243 0
M  V30 36 H 6.312884 2.195243 0.476036 0
M  V30 37 H 5.722621 4.267998 1.678128 0
M  V30 38 H 4.070788 5.383601 3.148668 0
M  V30 39 H 2.360162 4.737478 3.183883 0
M  V30 40 H 1.916930 6.032968 1.532993 0
M  V30 41 H 1.696663 2.940448 1.773580 0
M  V30 42 H -4.253399 2.328864 2.132801 0
M  V30 43 H -2.514886 2.323575 2.744494 0
M  V30 44 H -3.813677 -3.176746 1.164505 0
M  V30 45 H -4.305518 -5.069678 2.564530 0
M  V30 46 H -2.943608 -7.123708 2.544858 0
M  V30 47 H -1.041148 -7.207259 1.044603 0
M  V30 END ATOM
M  V30 BEGIN BOND
M  V30 1 1 1 2
M  V30 2 1 2 3
M  V30 3 1 3 4
M  V30 4 1 4 5
M  V30 5 2 5 6
M  V30 6 1 6 7
M  V30 7 2 7 8
M  V30 8 1 8 9
M  V30 9 2 9 10
M  V30 10 1 10 11
M  V30 11 2 11 12
M  V30 12 1 12 13
M  V30 13 1 13 14
M  V30 14 1 14 15
M  V30 15 2 13 16
M  V30 16 1 16 17
M  V30 17 1 6 18
M  V30 18 1 18 19
M  V30 19 1 19 20
M  V30 20 1 20 21
M  V30 21 2 20 22
M  V30 22 1 2 23
M  V30 23 2 23 24
M  V30 24 1 24 25
M  V30 25 2 25 26
M  V30 26 1 26 27
M  V30 27 2 27 28
M  V30 28 1 28 29
M  V30 29 2 19 4
M  V30 30 1 28 23
M  V30 31 1 17 7
M  V30 32 1 17 10
M  V30 33 1 1 30
M  V30 34 1 1 31
M  V30 35 1 1 32
M  V30 36 1 2 33 CFG=3
M  V30 37 1 5 34
M  V30 38 1 8 35
M  V30 39 1 11 36
M  V30 40 1 12 37
M  V30 41 1 14 38
M  V30 42 1 14 39
M  V30 43 1 15 40
M  V30 44 1 16 41
M  V30 45 1 21 42
M  V30 46 1 21 43
M  V30 47 1 24 44
M  V30 48 1 25 45
M  V30 49 1 26 46
M  V30 50 1 27 47
M  V30 END BOND
M  V30 END CTAB
M  END
>  <Dataset>  (949) 
ChEMBL_Kinases

>  <Ligand_Instance>  (949) 
nan

>  <PDB_ID>  (949) 
nan

>  <Standardized_SMILES>  (949) 
C[C@@H](Oc1cc(-c2cnc3ccc(CO)cn23)sc1C(N)=O)c1ccccc1Cl

>  <Name>  (949) 
nan

>  <Pocket>  (949) 
nan

>  <ATP_Site>  (949) 
nan

>  <Peripheral>  (949) 
nan

>  <Num_H_Atoms_ProtBoundConf>  (949) 
nan

>  <Num_Resolved_Atoms>  (949) 
nan

>  <Num_Not_Resolved_Atoms>  (949) 
nan

$$$$
CHEMBL563560
     RDKit          3D

  0  0  0  0  0  0  0  0  0  0999 V3000
M  V30 BEGIN CTAB
M  V30 COUNTS 52 57 0 0 0
M  V30 BEGIN ATOM
M  V30 1 C 3.862588 -4.607542 1.395081 0
M  V30 2 N 2.553699 -4.017377 1.088954 0
M  V30 3 C 1.372724 -4.213134 1.712111 0
M  V30 4 C 0.386931 -3.463735 1.104901 0
M  V30 5 C -1.035992 -3.376240 1.401343 0
M  V30 6 C -1.801008 -2.307942 1.553425 0
M  V30 7 C -1.671237 -0.868048 1.521696 0
M  V30 8 N -0.750249 -0.152222 2.187490 0
M  V30 9 N -0.849506 1.141631 1.980586 0
M  V30 10 C 0.063847 2.068515 2.618192 0
M  V30 11 C 1.308371 2.311879 1.830883 0
M  V30 12 N 1.011663 2.881644 0.541623 0
M  V30 13 C 0.905499 4.165733 0.182353 0
M  V30 14 C 0.608642 4.259708 -1.179810 0
M  V30 15 N 0.547167 2.967939 -1.594572 0
M  V30 16 C 0.790430 2.162467 -0.550417 0
M  V30 17 C -1.892794 1.321684 1.126800 0
M  V30 18 N -2.366573 2.483258 0.628817 0
M  V30 19 C -3.434469 2.437275 -0.229874 0
M  V30 20 C -3.979194 1.182870 -0.546837 0
M  V30 21 C -3.473794 -0.007309 -0.019350 0
M  V30 22 C -2.391268 0.065387 0.850898 0
M  V30 23 C -3.155582 -2.805101 1.850342 0
M  V30 24 O -4.281289 -2.240829 2.088223 0
M  V30 25 N -3.158006 -4.242834 1.866002 0
M  V30 26 C -1.808461 -4.605528 1.580143 0
M  V30 27 O -1.419609 -5.794440 1.509065 0
M  V30 28 C 1.083802 -2.815117 0.077529 0
M  V30 29 C 0.578290 -1.924273 -0.880415 0
M  V30 30 C 1.519412 -1.439761 -1.800426 0
M  V30 31 C 2.850182 -1.758828 -1.834112 0
M  V30 32 C 3.286797 -2.632233 -0.876360 0
M  V30 33 C 2.425983 -3.155455 0.064926 0
M  V30 34 H 4.128939 -5.244376 0.546270 0
M  V30 35 H 3.782632 -5.152710 2.352369 0
M  V30 36 H 4.575656 -3.767602 1.460521 0
M  V30 37 H 1.206216 -4.856110 2.561541 0
M  V30 38 H -0.410983 3.066576 2.775494 0
M  V30 39 H 0.322726 1.680549 3.612457 0
M  V30 40 H 2.036823 2.934278 2.373425 0
M  V30 41 H 1.777864 1.297152 1.679783 0
M  V30 42 H 1.041964 4.985888 0.899452 0
M  V30 43 H 0.467323 5.151064 -1.743192 0
M  V30 44 H 0.797457 1.096475 -0.625593 0
M  V30 45 H -3.911394 3.284820 -0.699066 0
M  V30 46 H -4.799411 1.046919 -1.224069 0
M  V30 47 H -3.887854 -0.969416 -0.266186 0
M  V30 48 H -3.932375 -4.925331 2.039415 0
M  V30 49 H -0.446913 -1.594080 -0.968339 0
M  V30 50 H 1.127526 -0.740526 -2.554511 0
M  V30 51 H 3.459539 -1.303232 -2.609804 0
M  V30 52 H 4.341611 -2.908924 -0.875491 0
M  V30 END ATOM
M  V30 BEGIN BOND
M  V30 1 1 1 2
M  V30 2 1 2 3
M  V30 3 2 3 4
M  V30 4 1 4 5
M  V30 5 2 5 6
M  V30 6 1 6 7
M  V30 7 2 7 8
M  V30 8 1 8 9
M  V30 9 1 9 10
M  V30 10 1 10 11
M  V30 11 1 11 12
M  V30 12 1 12 13
M  V30 13 2 13 14
M  V30 14 1 14 15
M  V30 15 2 15 16
M  V30 16 1 9 17
M  V30 17 2 17 18
M  V30 18 1 18 19
M  V30 19 2 19 20
M  V30 20 1 20 21
M  V30 21 2 21 22
M  V30 22 1 6 23
M  V30 23 2 23 24
M  V30 24 1 23 25
M  V30 25 1 25 26
M  V30 26 2 26 27
M  V30 27 1 4 28
M  V30 28 2 28 29
M  V30 29 1 29 30
M  V30 30 2 30 31
M  V30 31 1 31 32
M  V30 32 2 32 33
M  V30 33 1 33 2
M  V30 34 1 26 5
M  V30 35 1 33 28
M  V30 36 1 22 7
M  V30 37 1 16 12
M  V30 38 1 22 17
M  V30 39 1 1 34
M  V30 40 1 1 35
M  V30 41 1 1 36
M  V30 42 1 3 37
M  V30 43 1 10 38
M  V30 44 1 10 39
M  V30 45 1 11 40
M  V30 46 1 11 41
M  V30 47 1 13 42
M  V30 48 1 14 43
M  V30 49 1 16 44
M  V30 50 1 19 45
M  V30 51 1 20 46
M  V30 52 1 21 47
M  V30 53 1 25 48
M  V30 54 1 29 49
M  V30 55 1 30 50
M  V30 56 1 31 51
M  V30 57 1 32 52
M  V30 END BOND
M  V30 END CTAB
M  END
>  <Dataset>  (950) 
ChEMBL_Kinases

>  <Ligand_Instance>  (950) 
nan

>  <PDB_ID>  (950) 
nan

>  <Standardized_SMILES>  (950) 
Cn1cc(C2=C(c3nn(CCn4ccnc4)c4ncccc34)C(=O)NC2=O)c2ccccc21

>  <Name>  (950) 
nan

>  <Pocket>  (950) 
nan

>  <ATP_Site>  (950) 
nan

>  <Peripheral>  (950) 
nan

>  <Num_H_Atoms_ProtBoundConf>  (950) 
nan

>  <Num_Resolved_Atoms>  (950) 
nan

>  <Num_Not_Resolved_Atoms>  (950) 
nan

$$$$
CHEMBL563097
     RDKit          3D

  0  0  0  0  0  0  0  0  0  0999 V3000
M  V30 BEGIN CTAB
M  V30 COUNTS 51 54 0 0 0
M  V30 BEGIN ATOM
M  V30 1 C 5.357282 -2.640701 2.143970 0
M  V30 2 O 4.144869 -2.971141 2.768495 0
M  V30 3 N 3.285759 -1.962162 2.481078 0
M  V30 4 C 3.310451 -0.913856 3.433991 0
M  V30 5 O 4.102913 -1.044534 4.400592 0
M  V30 6 C 2.494094 0.292329 3.377939 0
M  V30 7 C 2.657642 1.204704 4.398702 0
M  V30 8 C 1.918128 2.392697 4.431217 0
M  V30 9 C 1.001855 2.670457 3.426950 0
M  V30 10 C 0.182266 3.925250 3.409189 0
M  V30 11 C 0.872353 1.730811 2.428707 0
M  V30 12 N -0.062863 2.022254 1.413211 0
M  V30 13 C -0.460007 1.310196 0.261881 0
M  V30 14 C -0.313680 1.819918 -1.033002 0
M  V30 15 C -0.711263 1.106543 -2.146023 0
M  V30 16 O -0.560227 1.603278 -3.279873 0
M  V30 17 N -1.266055 -0.133575 -2.011761 0
M  V30 18 C -1.693812 -0.907893 -3.163045 0
M  V30 19 C -1.388865 -0.583446 -0.772129 0
M  V30 20 C -1.028377 0.039078 0.404752 0
M  V30 21 C -1.332961 -0.786277 1.490767 0
M  V30 22 N -1.872063 -1.890622 0.934599 0
M  V30 23 N -1.903644 -1.770671 -0.381132 0
M  V30 24 C -2.457182 -2.888304 -1.065578 0
M  V30 25 C -3.851047 -3.002551 -1.060536 0
M  V30 26 C -4.513101 -4.028749 -1.680173 0
M  V30 27 C -3.789343 -4.988517 -2.335022 0
M  V30 28 F -4.481935 -5.985501 -2.934365 0
M  V30 29 C -2.432317 -4.901104 -2.355178 0
M  V30 30 C -1.746743 -3.869899 -1.733648 0
M  V30 31 F -0.397672 -3.746402 -1.730243 0
M  V30 32 C 1.586412 0.559068 2.375639 0
M  V30 33 H 5.892843 -3.541593 1.783121 0
M  V30 34 H 5.951766 -2.077534 2.893687 0
M  V30 35 H 5.163335 -2.001289 1.252135 0
M  V30 36 H 2.634608 -1.872402 1.671309 0
M  V30 37 H 3.335345 1.076809 5.209331 0
M  V30 38 H 2.049006 3.112139 5.238676 0
M  V30 39 H 0.535919 4.509828 2.528568 0
M  V30 40 H 0.332956 4.528900 4.300896 0
M  V30 41 H -0.889027 3.661818 3.239526 0
M  V30 42 H -0.644895 2.886263 1.369501 0
M  V30 43 H 0.128207 2.807852 -1.141770 0
M  V30 44 H -1.689465 -0.203993 -4.027645 0
M  V30 45 H -0.924150 -1.675868 -3.441231 0
M  V30 46 H -2.714183 -1.288878 -3.104242 0
M  V30 47 H -1.147952 -0.529098 2.528123 0
M  V30 48 H -4.454905 -2.258086 -0.550153 0
M  V30 49 H -5.591646 -4.082519 -1.654133 0
M  V30 50 H -1.866101 -5.653789 -2.868707 0
M  V30 51 H 1.495176 -0.185948 1.597697 0
M  V30 END ATOM
M  V30 BEGIN BOND
M  V30 1 1 1 2
M  V30 2 1 2 3
M  V30 3 1 3 4
M  V30 4 2 4 5
M  V30 5 1 4 6
M  V30 6 2 6 7
M  V30 7 1 7 8
M  V30 8 2 8 9
M  V30 9 1 9 10
M  V30 10 1 9 11
M  V30 11 1 11 12
M  V30 12 1 12 13
M  V30 13 2 13 14
M  V30 14 1 14 15
M  V30 15 2 15 16
M  V30 16 1 15 17
M  V30 17 1 17 18
M  V30 18 1 17 19
M  V30 19 2 19 20
M  V30 20 1 20 21
M  V30 21 2 21 22
M  V30 22 1 22 23
M  V30 23 1 23 24
M  V30 24 2 24 25
M  V30 25 1 25 26
M  V30 26 2 26 27
M  V30 27 1 27 28
M  V30 28 1 27 29
M  V30 29 2 29 30
M  V30 30 1 30 31
M  V30 31 2 11 32
M  V30 32 1 32 6
M  V30 33 1 20 13
M  V30 34 1 30 24
M  V30 35 1 23 19
M  V30 36 1 1 33
M  V30 37 1 1 34
M  V30 38 1 1 35
M  V30 39 1 3 36
M  V30 40 1 7 37
M  V30 41 1 8 38
M  V30 42 1 10 39
M  V30 43 1 10 40
M  V30 44 1 10 41
M  V30 45 1 12 42
M  V30 46 1 14 43
M  V30 47 1 18 44
M  V30 48 1 18 45
M  V30 49 1 18 46
M  V30 50 1 21 47
M  V30 51 1 25 48
M  V30 52 1 26 49
M  V30 53 1 29 50
M  V30 54 1 32 51
M  V30 END BOND
M  V30 END CTAB
M  END
>  <Dataset>  (951) 
ChEMBL_Kinases

>  <Ligand_Instance>  (951) 
nan

>  <PDB_ID>  (951) 
nan

>  <Standardized_SMILES>  (951) 
CONC(=O)c1ccc(C)c(Nc2cc(=O)n(C)c3c2cnn3-c2ccc(F)cc2F)c1

>  <Name>  (951) 
nan

>  <Pocket>  (951) 
nan

>  <ATP_Site>  (951) 
nan

>  <Peripheral>  (951) 
nan

>  <Num_H_Atoms_ProtBoundConf>  (951) 
nan

>  <Num_Resolved_Atoms>  (951) 
nan

>  <Num_Not_Resolved_Atoms>  (951) 
nan

$$$$
CHEMBL3727554
     RDKit          3D

  0  0  0  0  0  0  0  0  0  0999 V3000
M  V30 BEGIN CTAB
M  V30 COUNTS 53 57 0 0 0
M  V30 BEGIN ATOM
M  V30 1 N 0.647963 -3.242046 -1.429399 0
M  V30 2 C -0.245660 -3.344087 -0.266259 0 CFG=2
M  V30 3 C 0.600351 -3.352634 0.999400 0
M  V30 4 N 1.400353 -2.168188 1.174581 0
M  V30 5 C 0.610319 -1.187842 1.585489 0
M  V30 6 N 1.715283 -0.295336 1.411975 0
M  V30 7 C 1.645549 0.999071 1.661246 0
M  V30 8 C 2.770642 1.987763 1.471946 0
M  V30 9 C 2.725340 3.331222 1.715912 0
M  V30 10 C 3.858892 4.062847 1.465526 0
M  V30 11 N 5.009703 3.500547 0.989183 0 CHG=1 VAL=4
M  V30 12 O 6.097080 4.313395 0.767106 0 CHG=-1 VAL=1
M  V30 13 C 5.119045 2.161257 0.725258 0
M  V30 14 C 3.951030 1.501323 0.998779 0
M  V30 15 N 0.567212 1.673661 2.105699 0
M  V30 16 C -0.586590 1.067428 2.346950 0
M  V30 17 C -1.845919 1.167229 2.758742 0
M  V30 18 C -2.195341 2.530569 3.124487 0
M  V30 19 C -1.582970 3.763185 3.153780 0
M  V30 20 C -2.373598 4.789853 3.608287 0
M  V30 21 N -3.521411 4.124212 3.862611 0
M  V30 22 N -3.394061 2.846434 3.580104 0
M  V30 23 C -2.773733 0.081219 2.860183 0
M  V30 24 S -1.637371 -1.259986 2.270898 0
M  V30 25 C -0.198741 -0.163971 2.011581 0
M  V30 26 C -0.969145 -4.670777 -0.418371 0
M  V30 27 C -1.743269 -4.705996 -1.673740 0
M  V30 28 C -1.107681 -5.186424 -2.815446 0
M  V30 29 C -1.793251 -5.259293 -4.036913 0
M  V30 30 C -3.081650 -4.827055 -3.975426 0
M  V30 31 C -3.785466 -4.335483 -2.885339 0
M  V30 32 C -3.047170 -4.291527 -1.710385 0
M  V30 33 H 1.143234 -2.329508 -1.447569 0
M  V30 34 H 1.304348 -4.052754 -1.320668 0
M  V30 35 H -0.976537 -2.548280 -0.242030 0
M  V30 36 H -0.080056 -3.556299 1.887947 0
M  V30 37 H 1.205491 -4.274223 0.933542 0
M  V30 38 H 2.330720 -2.457637 0.929586 0
M  V30 39 H 1.794385 3.716292 2.093576 0
M  V30 40 H 3.795018 5.121695 1.667199 0
M  V30 41 H 6.015177 1.699306 0.350193 0
M  V30 42 H 4.022506 0.421393 0.793574 0
M  V30 43 H -0.534649 3.841550 2.818689 0
M  V30 44 H -2.041850 5.811602 3.691193 0
M  V30 45 H -4.255269 2.249841 3.756620 0
M  V30 46 H -3.756914 0.094922 3.170425 0
M  V30 47 H -1.589396 -4.882542 0.473742 0
M  V30 48 H -0.224929 -5.515422 -0.455688 0
M  V30 49 H -0.064297 -5.508313 -2.757620 0
M  V30 50 H -1.344412 -5.623824 -4.940165 0
M  V30 51 H -3.627068 -4.879032 -4.921025 0
M  V30 52 H -4.807262 -4.038763 -3.014911 0
M  V30 53 H -3.557908 -3.914552 -0.837449 0
M  V30 END ATOM
M  V30 BEGIN BOND
M  V30 1 1 1 2
M  V30 2 1 2 3
M  V30 3 1 3 4
M  V30 4 1 4 5
M  V30 5 2 5 6
M  V30 6 1 6 7
M  V30 7 1 7 8
M  V30 8 2 8 9
M  V30 9 1 9 10
M  V30 10 2 10 11
M  V30 11 1 11 12
M  V30 12 1 11 13
M  V30 13 2 13 14
M  V30 14 2 7 15
M  V30 15 1 15 16
M  V30 16 1 16 17
M  V30 17 1 17 18
M  V30 18 2 18 19
M  V30 19 1 19 20
M  V30 20 2 20 21
M  V30 21 1 21 22
M  V30 22 2 17 23
M  V30 23 1 23 24
M  V30 24 1 24 25
M  V30 25 1 2 26
M  V30 26 1 26 27
M  V30 27 2 27 28
M  V30 28 1 28 29
M  V30 29 2 29 30
M  V30 30 1 30 31
M  V30 31 2 31 32
M  V30 32 1 25 5
M  V30 33 1 32 27
M  V30 34 1 14 8
M  V30 35 2 25 16
M  V30 36 1 22 18
M  V30 37 1 1 33
M  V30 38 1 1 34
M  V30 39 1 2 35 CFG=1
M  V30 40 1 3 36
M  V30 41 1 3 37
M  V30 42 1 4 38
M  V30 43 1 9 39
M  V30 44 1 10 40
M  V30 45 1 13 41
M  V30 46 1 14 42
M  V30 47 1 19 43
M  V30 48 1 20 44
M  V30 49 1 22 45
M  V30 50 1 23 46
M  V30 51 1 26 47
M  V30 52 1 26 48
M  V30 53 1 28 49
M  V30 54 1 29 50
M  V30 55 1 30 51
M  V30 56 1 31 52
M  V30 57 1 32 53
M  V30 END BOND
M  V30 END CTAB
M  END
>  <Dataset>  (952) 
ChEMBL_Kinases

>  <Ligand_Instance>  (952) 
nan

>  <PDB_ID>  (952) 
nan

>  <Standardized_SMILES>  (952) 
N[C@H](CNc1nc(-c2cc[n+]([O-])cc2)nc2c(-c3ccn[nH]3)csc12)Cc1ccccc1

>  <Name>  (952) 
nan

>  <Pocket>  (952) 
nan

>  <ATP_Site>  (952) 
nan

>  <Peripheral>  (952) 
nan

>  <Num_H_Atoms_ProtBoundConf>  (952) 
nan

>  <Num_Resolved_Atoms>  (952) 
nan

>  <Num_Not_Resolved_Atoms>  (952) 
nan

$$$$
CHEMBL3727537
     RDKit          3D

  0  0  0  0  0  0  0  0  0  0999 V3000
M  V30 BEGIN CTAB
M  V30 COUNTS 42 45 0 0 0
M  V30 BEGIN ATOM
M  V30 1 N -3.213205 -2.111876 4.017348 0
M  V30 2 C -2.564869 -1.817313 2.773658 0
M  V30 3 C -1.381570 -0.927057 2.966395 0
M  V30 4 N -0.655263 -0.571436 1.762896 0
M  V30 5 C 0.046515 -0.227694 0.599776 0
M  V30 6 N -0.483097 0.504392 -0.382739 0
M  V30 7 C 0.042328 0.944956 -1.501859 0
M  V30 8 C -0.749346 1.733347 -2.421210 0
M  V30 9 C -2.054173 2.008309 -2.115599 0
M  V30 10 C -2.726004 2.772800 -3.064149 0
M  V30 11 N -2.177692 3.226111 -4.202493 0
M  V30 12 C -0.893089 2.944493 -4.483978 0
M  V30 13 C -0.153852 2.192871 -3.599135 0
M  V30 14 F 1.159042 1.860111 -3.805703 0
M  V30 15 N 1.303891 0.577883 -1.631888 0
M  V30 16 C 1.924923 -0.164686 -0.689592 0
M  V30 17 S 3.596889 -0.693526 -0.770882 0
M  V30 18 C 3.549683 -1.562277 0.816724 0
M  V30 19 C 2.276676 -1.363117 1.241821 0
M  V30 20 C 1.391428 -0.624315 0.466603 0
M  V30 21 C 1.870484 -2.003908 2.545911 0
M  V30 22 C 2.907903 -2.961956 2.972653 0
M  V30 23 C 4.300492 -2.441170 2.900256 0
M  V30 24 C 4.673579 -2.265653 1.424785 0
M  V30 25 H -3.217150 -1.306876 4.698221 0
M  V30 26 H -2.746830 -2.946334 4.474023 0
M  V30 27 H -3.253819 -1.406208 2.008001 0
M  V30 28 H -2.205630 -2.783601 2.342950 0
M  V30 29 H -1.673035 -0.013236 3.550102 0
M  V30 30 H -0.695052 -1.454020 3.696137 0
M  V30 31 H -1.624901 -0.167580 1.546461 0
M  V30 32 H -2.546370 1.672692 -1.220118 0
M  V30 33 H -3.778981 3.009929 -2.844796 0
M  V30 34 H -0.359809 3.258720 -5.366284 0
M  V30 35 H 1.691154 -1.257397 3.335063 0
M  V30 36 H 0.897173 -2.547628 2.391928 0
M  V30 37 H 2.719816 -3.221215 4.055727 0
M  V30 38 H 2.875676 -3.941307 2.452627 0
M  V30 39 H 4.982119 -3.229842 3.282981 0
M  V30 40 H 4.456780 -1.500074 3.436261 0
M  V30 41 H 5.617342 -1.701552 1.372488 0
M  V30 42 H 4.734736 -3.286309 1.000343 0
M  V30 END ATOM
M  V30 BEGIN BOND
M  V30 1 1 1 2
M  V30 2 1 2 3
M  V30 3 1 3 4
M  V30 4 1 4 5
M  V30 5 2 5 6
M  V30 6 1 6 7
M  V30 7 1 7 8
M  V30 8 2 8 9
M  V30 9 1 9 10
M  V30 10 2 10 11
M  V30 11 1 11 12
M  V30 12 2 12 13
M  V30 13 1 13 14
M  V30 14 2 7 15
M  V30 15 1 15 16
M  V30 16 1 16 17
M  V30 17 1 17 18
M  V30 18 2 18 19
M  V30 19 1 19 20
M  V30 20 1 19 21
M  V30 21 1 21 22
M  V30 22 1 22 23
M  V30 23 1 23 24
M  V30 24 1 20 5
M  V30 25 1 13 8
M  V30 26 2 20 16
M  V30 27 1 24 18
M  V30 28 1 1 25
M  V30 29 1 1 26
M  V30 30 1 2 27
M  V30 31 1 2 28
M  V30 32 1 3 29
M  V30 33 1 3 30
M  V30 34 1 4 31
M  V30 35 1 9 32
M  V30 36 1 10 33
M  V30 37 1 12 34
M  V30 38 1 21 35
M  V30 39 1 21 36
M  V30 40 1 22 37
M  V30 41 1 22 38
M  V30 42 1 23 39
M  V30 43 1 23 40
M  V30 44 1 24 41
M  V30 45 1 24 42
M  V30 END BOND
M  V30 END CTAB
M  END
>  <Dataset>  (953) 
ChEMBL_Kinases

>  <Ligand_Instance>  (953) 
nan

>  <PDB_ID>  (953) 
nan

>  <Standardized_SMILES>  (953) 
NCCNc1nc(-c2ccncc2F)nc2sc3c(c12)CCCC3

>  <Name>  (953) 
nan

>  <Pocket>  (953) 
nan

>  <ATP_Site>  (953) 
nan

>  <Peripheral>  (953) 
nan

>  <Num_H_Atoms_ProtBoundConf>  (953) 
nan

>  <Num_Resolved_Atoms>  (953) 
nan

>  <Num_Not_Resolved_Atoms>  (953) 
nan

$$$$
CHEMBL3727522
     RDKit          3D

  0  0  0  0  0  0  0  0  0  0999 V3000
M  V30 BEGIN CTAB
M  V30 COUNTS 54 57 0 0 0
M  V30 BEGIN ATOM
M  V30 1 N 1.201036 -2.329151 -0.895338 0
M  V30 2 C 0.426511 -3.504545 -0.592881 0 CFG=2
M  V30 3 C -0.057658 -3.416536 0.830474 0
M  V30 4 N -0.878660 -2.262465 1.015517 0
M  V30 5 C -0.533428 -0.904184 1.017331 0
M  V30 6 N 0.715982 -0.434442 0.858137 0
M  V30 7 C 0.878256 0.895675 0.902561 0
M  V30 8 C 2.237228 1.442632 0.731390 0
M  V30 9 C 3.243713 0.524632 0.536715 0
M  V30 10 C 4.527831 1.053082 0.375658 0
M  V30 11 N 4.783955 2.361377 0.405333 0
M  V30 12 C 3.790243 3.261595 0.597223 0
M  V30 13 C 2.485487 2.797761 0.764622 0
M  V30 14 F 1.449097 3.656803 0.960638 0
M  V30 15 N -0.109689 1.751707 1.091397 0
M  V30 16 C -1.384605 1.362090 1.258430 0
M  V30 17 C -2.454177 2.182883 1.457384 0
M  V30 18 C -2.447861 3.617694 1.530051 0
M  V30 19 C -2.421123 4.845737 1.589460 0
M  V30 20 C -2.378312 6.307012 1.670764 0
M  V30 21 C -3.787529 6.877691 1.474096 0
M  V30 22 O -4.183110 6.448555 0.206068 0
M  V30 23 C -3.709191 1.572754 1.610122 0
M  V30 24 S -3.298571 -0.271480 1.455304 0
M  V30 25 C -1.551224 0.011376 1.213590 0
M  V30 26 C 1.324456 -4.681487 -0.819662 0
M  V30 27 C 0.760851 -5.999073 -0.577376 0
M  V30 28 C 0.135696 -6.652024 -1.638228 0
M  V30 29 C -0.435055 -7.903044 -1.529751 0
M  V30 30 C -0.380008 -8.534589 -0.303165 0
M  V30 31 C 0.233840 -7.906183 0.759431 0
M  V30 32 C 0.808640 -6.652152 0.659827 0
M  V30 33 H 1.275974 -2.143831 -1.936263 0
M  V30 34 H 2.212854 -2.482694 -0.611458 0
M  V30 35 H -0.487858 -3.519366 -1.216590 0
M  V30 36 H -0.528174 -4.383199 1.114054 0
M  V30 37 H 0.868918 -3.238823 1.443000 0
M  V30 38 H -1.878688 -2.567562 1.165213 0
M  V30 39 H 3.111752 -0.547258 0.500979 0
M  V30 40 H 5.341697 0.356413 0.220607 0
M  V30 41 H 3.917601 4.343848 0.634168 0
M  V30 42 H -1.771114 6.718883 0.832582 0
M  V30 43 H -1.945547 6.575936 2.640263 0
M  V30 44 H -4.434531 6.351419 2.210334 0
M  V30 45 H -3.762212 7.962068 1.593698 0
M  V30 46 H -4.215571 5.450625 0.270443 0
M  V30 47 H -4.705375 1.963584 1.776240 0
M  V30 48 H 2.183228 -4.544755 -0.100135 0
M  V30 49 H 1.808862 -4.666916 -1.815812 0
M  V30 50 H 0.083989 -6.166675 -2.613006 0
M  V30 51 H -0.917476 -8.415770 -2.333833 0
M  V30 52 H -0.817238 -9.513617 -0.186102 0
M  V30 53 H 0.262707 -8.428055 1.716260 0
M  V30 54 H 1.294538 -6.147409 1.488936 0
M  V30 END ATOM
M  V30 BEGIN BOND
M  V30 1 1 1 2
M  V30 2 1 2 3
M  V30 3 1 3 4
M  V30 4 1 4 5
M  V30 5 2 5 6
M  V30 6 1 6 7
M  V30 7 1 7 8
M  V30 8 2 8 9
M  V30 9 1 9 10
M  V30 10 2 10 11
M  V30 11 1 11 12
M  V30 12 2 12 13
M  V30 13 1 13 14
M  V30 14 2 7 15
M  V30 15 1 15 16
M  V30 16 1 16 17
M  V30 17 1 17 18
M  V30 18 3 18 19
M  V30 19 1 19 20
M  V30 20 1 20 21
M  V30 21 1 21 22
M  V30 22 2 17 23
M  V30 23 1 23 24
M  V30 24 1 24 25
M  V30 25 1 2 26
M  V30 26 1 26 27
M  V30 27 2 27 28
M  V30 28 1 28 29
M  V30 29 2 29 30
M  V30 30 1 30 31
M  V30 31 2 31 32
M  V30 32 1 25 5
M  V30 33 1 32 27
M  V30 34 1 13 8
M  V30 35 2 25 16
M  V30 36 1 1 33
M  V30 37 1 1 34
M  V30 38 1 2 35 CFG=3
M  V30 39 1 3 36
M  V30 40 1 3 37
M  V30 41 1 4 38
M  V30 42 1 9 39
M  V30 43 1 10 40
M  V30 44 1 12 41
M  V30 45 1 20 42
M  V30 46 1 20 43
M  V30 47 1 21 44
M  V30 48 1 21 45
M  V30 49 1 22 46
M  V30 50 1 23 47
M  V30 51 1 26 48
M  V30 52 1 26 49
M  V30 53 1 28 50
M  V30 54 1 29 51
M  V30 55 1 30 52
M  V30 56 1 31 53
M  V30 57 1 32 54
M  V30 END BOND
M  V30 END CTAB
M  END
>  <Dataset>  (954) 
ChEMBL_Kinases

>  <Ligand_Instance>  (954) 
nan

>  <PDB_ID>  (954) 
nan

>  <Standardized_SMILES>  (954) 
N[C@H](CNc1nc(-c2ccncc2F)nc2c(C#CCCO)csc12)Cc1ccccc1

>  <Name>  (954) 
nan

>  <Pocket>  (954) 
nan

>  <ATP_Site>  (954) 
nan

>  <Peripheral>  (954) 
nan

>  <Num_H_Atoms_ProtBoundConf>  (954) 
nan

>  <Num_Resolved_Atoms>  (954) 
nan

>  <Num_Not_Resolved_Atoms>  (954) 
nan

$$$$
CHEMBL571137
     RDKit          3D

  0  0  0  0  0  0  0  0  0  0999 V3000
M  V30 BEGIN CTAB
M  V30 COUNTS 68 71 0 0 0
M  V30 BEGIN ATOM
M  V30 1 C 3.593566 -3.590808 0.810497 0
M  V30 2 O 3.299797 -2.413779 0.086549 0
M  V30 3 C 3.426594 -1.183947 0.712378 0
M  V30 4 C 3.836089 -1.148104 2.024486 0
M  V30 5 C 3.968614 0.071960 2.666830 0
M  V30 6 C 3.682176 1.216444 1.959534 0
M  V30 7 C 3.268762 1.259171 0.649442 0
M  V30 8 C 2.943301 2.416542 -0.170036 0
M  V30 9 N 1.558505 2.832437 -0.153475 0
M  V30 10 C 0.683455 2.258881 -1.152500 0
M  V30 11 C -0.007973 1.065243 -0.627523 0
M  V30 12 O -0.730277 0.618493 -1.567864 0
M  V30 13 N -0.084734 0.315094 0.583945 0
M  V30 14 C -0.985297 -0.765872 0.368573 0
M  V30 15 C -2.307106 -0.505036 0.660419 0
M  V30 16 C -3.237920 -1.508525 0.475084 0
M  V30 17 C -2.777256 -2.721555 0.003898 0
M  V30 18 C -1.453814 -2.980225 -0.287487 0
M  V30 19 C -0.514097 -1.974277 -0.102678 0
M  V30 20 C -1.350641 -4.386848 -0.766479 0
M  V30 21 C -2.568319 -5.017667 -0.198156 0
M  V30 22 C -3.593667 -3.934887 -0.268602 0
M  V30 23 C -2.439033 -5.444389 1.208163 0
M  V30 24 O -1.808721 -4.937062 2.172460 0
M  V30 25 N -3.195987 -6.653210 1.415519 0
M  V30 26 C -3.522832 -7.142894 0.118564 0
M  V30 27 O -4.170352 -8.164356 -0.244525 0
M  V30 28 N -2.967406 -6.236826 -0.855531 0
M  V30 29 C -2.822149 -6.492295 -2.286010 0
M  V30 30 C 1.168443 3.787705 0.806108 0
M  V30 31 O 2.157500 4.122826 1.506816 0
M  V30 32 C -0.163016 4.394742 1.065422 0
M  V30 33 C -1.220624 3.377713 1.422505 0
M  V30 34 C -0.655151 5.227171 -0.072369 0
M  V30 35 C -0.049739 5.304646 2.296293 0
M  V30 36 C 3.154871 -0.003152 0.058782 0
M  V30 37 H 3.232818 -4.482736 0.263138 0
M  V30 38 H 4.681471 -3.603261 0.990865 0
M  V30 39 H 3.030127 -3.584738 1.775739 0
M  V30 40 H 4.066062 -2.031647 2.599054 0
M  V30 41 H 4.288238 0.137379 3.697823 0
M  V30 42 H 3.788305 2.159206 2.459830 0
M  V30 43 H 3.553123 3.324934 0.098674 0
M  V30 44 H 3.284502 2.189571 -1.218252 0
M  V30 45 H -0.049034 3.007705 -1.539392 0
M  V30 46 H 1.292062 1.927771 -2.043962 0
M  V30 47 H 0.548382 0.792032 1.281747 0
M  V30 48 H -2.648840 0.459768 1.031075 0
M  V30 49 H -4.285258 -1.332427 0.696191 0
M  V30 50 H 0.532834 -2.143705 -0.321487 0
M  V30 51 H -0.390136 -4.862994 -0.506844 0
M  V30 52 H -1.462583 -4.369841 -1.872093 0
M  V30 53 H -4.353872 -4.113101 0.517441 0
M  V30 54 H -4.026735 -3.851573 -1.280316 0
M  V30 55 H -3.524663 -7.195905 2.264189 0
M  V30 56 H -3.548100 -5.918464 -2.880219 0
M  V30 57 H -2.949364 -7.582163 -2.505224 0
M  V30 58 H -1.810427 -6.232575 -2.662567 0
M  V30 59 H -0.870545 2.561756 2.058734 0
M  V30 60 H -1.771257 3.061558 0.506706 0
M  V30 61 H -2.004506 3.915495 2.030200 0
M  V30 62 H 0.135893 5.446097 -0.824209 0
M  V30 63 H -1.477010 4.670536 -0.585826 0
M  V30 64 H -1.082079 6.163348 0.319334 0
M  V30 65 H 0.355142 4.614188 3.091558 0
M  V30 66 H 0.716283 6.055850 2.112059 0
M  V30 67 H -1.023195 5.669532 2.625249 0
M  V30 68 H 2.839575 -0.095814 -0.963480 0
M  V30 END ATOM
M  V30 BEGIN BOND
M  V30 1 1 1 2
M  V30 2 1 2 3
M  V30 3 2 3 4
M  V30 4 1 4 5
M  V30 5 2 5 6
M  V30 6 1 6 7
M  V30 7 1 7 8
M  V30 8 1 8 9
M  V30 9 1 9 10
M  V30 10 1 10 11
M  V30 11 2 11 12
M  V30 12 1 11 13
M  V30 13 1 13 14
M  V30 14 2 14 15
M  V30 15 1 15 16
M  V30 16 2 16 17
M  V30 17 1 17 18
M  V30 18 2 18 19
M  V30 19 1 18 20
M  V30 20 1 20 21
M  V30 21 1 21 22
M  V30 22 1 21 23
M  V30 23 2 23 24
M  V30 24 1 23 25
M  V30 25 1 25 26
M  V30 26 2 26 27
M  V30 27 1 26 28
M  V30 28 1 28 29
M  V30 29 1 9 30
M  V30 30 2 30 31
M  V30 31 1 30 32
M  V30 32 1 32 33
M  V30 33 1 32 34
M  V30 34 1 32 35
M  V30 35 2 7 36
M  V30 36 1 36 3
M  V30 37 1 19 14
M  V30 38 1 28 21
M  V30 39 1 22 17
M  V30 40 1 1 37
M  V30 41 1 1 38
M  V30 42 1 1 39
M  V30 43 1 4 40
M  V30 44 1 5 41
M  V30 45 1 6 42
M  V30 46 1 8 43
M  V30 47 1 8 44
M  V30 48 1 10 45
M  V30 49 1 10 46
M  V30 50 1 13 47
M  V30 51 1 15 48
M  V30 52 1 16 49
M  V30 53 1 19 50
M  V30 54 1 20 51
M  V30 55 1 20 52
M  V30 56 1 22 53
M  V30 57 1 22 54
M  V30 58 1 25 55
M  V30 59 1 29 56
M  V30 60 1 29 57
M  V30 61 1 29 58
M  V30 62 1 33 59
M  V30 63 1 33 60
M  V30 64 1 33 61
M  V30 65 1 34 62
M  V30 66 1 34 63
M  V30 67 1 34 64
M  V30 68 1 35 65
M  V30 69 1 35 66
M  V30 70 1 35 67
M  V30 71 1 36 68
M  V30 END BOND
M  V30 END CTAB
M  END
>  <Dataset>  (955) 
ChEMBL_Kinases

>  <Ligand_Instance>  (955) 
nan

>  <PDB_ID>  (955) 
nan

>  <Standardized_SMILES>  (955) 
COc1cccc(CN(CC(=O)Nc2ccc3c(c2)CC2(C3)C(=O)NC(=O)N2C)C(=O)C(C)(C)C)c1

>  <Name>  (955) 
nan

>  <Pocket>  (955) 
nan

>  <ATP_Site>  (955) 
nan

>  <Peripheral>  (955) 
nan

>  <Num_H_Atoms_ProtBoundConf>  (955) 
nan

>  <Num_Resolved_Atoms>  (955) 
nan

>  <Num_Not_Resolved_Atoms>  (955) 
nan

$$$$
CHEMBL3727488
     RDKit          3D

  0  0  0  0  0  0  0  0  0  0999 V3000
M  V30 BEGIN CTAB
M  V30 COUNTS 51 55 0 0 0
M  V30 BEGIN ATOM
M  V30 1 N -2.374172 -0.224170 3.592138 0
M  V30 2 C -2.163795 -1.580375 3.186352 0 CFG=2
M  V30 3 C -0.663923 -1.940254 3.090937 0
M  V30 4 N 0.066505 -1.143569 2.196901 0
M  V30 5 C 0.843621 -0.367450 1.309036 0
M  V30 6 N 2.150661 -0.469883 1.026636 0
M  V30 7 C 2.738607 0.341201 0.150596 0
M  V30 8 C 4.173382 0.178034 -0.118465 0
M  V30 9 C 4.740814 1.073855 -0.997913 0
M  V30 10 C 6.103808 0.978632 -1.291353 0
M  V30 11 N 6.832289 -0.020120 -0.682594 0
M  V30 12 C 6.161830 -0.847656 0.169199 0
M  V30 13 C 4.844548 -0.831223 0.515634 0
M  V30 14 N 1.994850 1.256637 -0.439865 0
M  V30 15 C 0.700840 1.491475 -0.277489 0
M  V30 16 C 0.125042 0.632789 0.638968 0
M  V30 17 S -1.606958 1.200226 0.643819 0
M  V30 18 C -1.357259 2.540279 -0.596083 0
M  V30 19 C -2.310442 3.363129 -1.038364 0
M  V30 20 C -1.961154 4.305268 -1.961791 0
M  V30 21 C -0.607555 4.298754 -2.347010 0
M  V30 22 C 0.282799 3.410394 -1.829038 0
M  V30 23 Cl 1.945022 3.576643 -2.438422 0
M  V30 24 C 0.000303 2.451097 -0.910472 0
M  V30 25 C -2.963766 -2.023358 2.022004 0
M  V30 26 C -2.714782 -3.451848 1.644464 0
M  V30 27 C -3.427250 -4.491134 2.233264 0
M  V30 28 C -3.142924 -5.795693 1.797977 0
M  V30 29 C -2.202565 -6.082319 0.826933 0
M  V30 30 C -1.493478 -5.069632 0.240477 0
M  V30 31 C -1.797794 -3.813490 0.688790 0
M  V30 32 H -3.140537 0.276050 3.100375 0
M  V30 33 H -1.518775 0.355967 3.510817 0
M  V30 34 H -2.565369 -2.202744 4.068925 0
M  V30 35 H -0.311796 -1.761837 4.156245 0
M  V30 36 H -0.612777 -3.050327 2.933539 0
M  V30 37 H 0.897701 -1.751671 2.505903 0
M  V30 38 H 4.166828 1.839974 -1.462020 0
M  V30 39 H 6.538416 1.686660 -1.979290 0
M  V30 40 H 6.868414 -1.578504 0.562391 0
M  V30 41 H 4.417957 -1.536720 1.204390 0
M  V30 42 H -3.320413 3.283138 -0.678301 0
M  V30 43 H -2.637495 5.006082 -2.380299 0
M  V30 44 H -0.301014 5.032325 -3.077968 0
M  V30 45 H -2.778198 -1.419105 1.122706 0
M  V30 46 H -4.073293 -1.960570 2.252687 0
M  V30 47 H -4.132963 -4.156336 2.976391 0
M  V30 48 H -3.815145 -6.445496 2.394657 0
M  V30 49 H -2.333317 -7.185492 0.762431 0
M  V30 50 H -0.819810 -5.462434 -0.477343 0
M  V30 51 H -1.197817 -3.041906 0.183160 0
M  V30 END ATOM
M  V30 BEGIN BOND
M  V30 1 1 1 2
M  V30 2 1 2 3
M  V30 3 1 3 4
M  V30 4 1 4 5
M  V30 5 2 5 6
M  V30 6 1 6 7
M  V30 7 1 7 8
M  V30 8 2 8 9
M  V30 9 1 9 10
M  V30 10 2 10 11
M  V30 11 1 11 12
M  V30 12 2 12 13
M  V30 13 2 7 14
M  V30 14 1 14 15
M  V30 15 2 15 16
M  V30 16 1 16 17
M  V30 17 1 17 18
M  V30 18 2 18 19
M  V30 19 1 19 20
M  V30 20 2 20 21
M  V30 21 1 21 22
M  V30 22 1 22 23
M  V30 23 2 22 24
M  V30 24 1 2 25
M  V30 25 1 25 26
M  V30 26 2 26 27
M  V30 27 1 27 28
M  V30 28 2 28 29
M  V30 29 1 29 30
M  V30 30 2 30 31
M  V30 31 1 16 5
M  V30 32 1 24 18
M  V30 33 1 31 26
M  V30 34 1 13 8
M  V30 35 1 24 15
M  V30 36 1 1 32
M  V30 37 1 1 33
M  V30 38 1 2 34 CFG=1
M  V30 39 1 3 35
M  V30 40 1 3 36
M  V30 41 1 4 37
M  V30 42 1 9 38
M  V30 43 1 10 39
M  V30 44 1 12 40
M  V30 45 1 13 41
M  V30 46 1 19 42
M  V30 47 1 20 43
M  V30 48 1 21 44
M  V30 49 1 25 45
M  V30 50 1 25 46
M  V30 51 1 27 47
M  V30 52 1 28 48
M  V30 53 1 29 49
M  V30 54 1 30 50
M  V30 55 1 31 51
M  V30 END BOND
M  V30 END CTAB
M  END
>  <Dataset>  (956) 
ChEMBL_Kinases

>  <Ligand_Instance>  (956) 
nan

>  <PDB_ID>  (956) 
nan

>  <Standardized_SMILES>  (956) 
N[C@H](CNc1nc(-c2ccncc2)nc2c1sc1cccc(Cl)c12)Cc1ccccc1

>  <Name>  (956) 
nan

>  <Pocket>  (956) 
nan

>  <ATP_Site>  (956) 
nan

>  <Peripheral>  (956) 
nan

>  <Num_H_Atoms_ProtBoundConf>  (956) 
nan

>  <Num_Resolved_Atoms>  (956) 
nan

>  <Num_Not_Resolved_Atoms>  (956) 
nan

$$$$
CHEMBL571
     RDKit          3D

  0  0  0  0  0  0  0  0  0  0999 V3000
M  V30 BEGIN CTAB
M  V30 COUNTS 33 34 0 0 0
M  V30 BEGIN ATOM
M  V30 1 C -1.766757 -2.827480 2.116677 0
M  V30 2 C -0.399842 -3.316163 1.758131 0
M  V30 3 C 0.666524 -2.845868 2.675952 0
M  V30 4 O 1.385760 -3.662851 3.350650 0
M  V30 5 O 1.064980 -1.547418 2.963685 0
M  V30 6 C -0.037850 -2.813478 0.398261 0
M  V30 7 C 0.431387 -3.633248 -0.619542 0
M  V30 8 C 0.728309 -3.080590 -1.847057 0
M  V30 9 C 0.556882 -1.726070 -2.050206 0
M  V30 10 C 0.098666 -0.868541 -1.087800 0
M  V30 11 C -0.082327 0.548846 -1.366777 0
M  V30 12 O -0.340156 0.780264 -2.558594 0
M  V30 13 C 0.000749 1.670020 -0.439518 0
M  V30 14 C 0.725891 1.573882 0.735953 0
M  V30 15 C 0.775765 2.655705 1.625567 0
M  V30 16 C 0.083467 3.795265 1.282495 0
M  V30 17 C -0.640835 3.923414 0.131972 0
M  V30 18 C -0.676365 2.832512 -0.740442 0
M  V30 19 C -0.194377 -1.452353 0.144255 0
M  V30 20 H -1.796083 -1.763298 2.431319 0
M  V30 21 H -2.404877 -2.902274 1.202915 0
M  V30 22 H -2.229095 -3.515570 2.857650 0
M  V30 23 H -0.383882 -4.403194 1.771847 0
M  V30 24 H 2.056020 -1.288681 2.919266 0
M  V30 25 H 0.553336 -4.696896 -0.417416 0
M  V30 26 H 1.089556 -3.741845 -2.608333 0
M  V30 27 H 0.815875 -1.396723 -3.031688 0
M  V30 28 H 1.274933 0.653723 0.983628 0
M  V30 29 H 1.363696 2.492241 2.516326 0
M  V30 30 H 0.205023 4.555523 2.055841 0
M  V30 31 H -1.145370 4.879015 -0.024234 0
M  V30 32 H -1.268529 2.969949 -1.655042 0
M  V30 33 H -0.569497 -0.829890 0.959366 0
M  V30 END ATOM
M  V30 BEGIN BOND
M  V30 1 1 1 2
M  V30 2 1 2 3
M  V30 3 2 3 4
M  V30 4 1 3 5
M  V30 5 1 2 6
M  V30 6 2 6 7
M  V30 7 1 7 8
M  V30 8 2 8 9
M  V30 9 1 9 10
M  V30 10 1 10 11
M  V30 11 2 11 12
M  V30 12 1 11 13
M  V30 13 2 13 14
M  V30 14 1 14 15
M  V30 15 2 15 16
M  V30 16 1 16 17
M  V30 17 2 17 18
M  V30 18 2 10 19
M  V30 19 1 19 6
M  V30 20 1 18 13
M  V30 21 1 1 20
M  V30 22 1 1 21
M  V30 23 1 1 22
M  V30 24 1 2 23
M  V30 25 1 5 24
M  V30 26 1 7 25
M  V30 27 1 8 26
M  V30 28 1 9 27
M  V30 29 1 14 28
M  V30 30 1 15 29
M  V30 31 1 16 30
M  V30 32 1 17 31
M  V30 33 1 18 32
M  V30 34 1 19 33
M  V30 END BOND
M  V30 END CTAB
M  END
>  <Dataset>  (957) 
ChEMBL_Kinases

>  <Ligand_Instance>  (957) 
nan

>  <PDB_ID>  (957) 
nan

>  <Standardized_SMILES>  (957) 
CC(C(=O)O)c1cccc(C(=O)c2ccccc2)c1

>  <Name>  (957) 
KETOPROFEN

>  <Pocket>  (957) 
nan

>  <ATP_Site>  (957) 
nan

>  <Peripheral>  (957) 
nan

>  <Num_H_Atoms_ProtBoundConf>  (957) 
nan

>  <Num_Resolved_Atoms>  (957) 
nan

>  <Num_Not_Resolved_Atoms>  (957) 
nan

$$$$
CHEMBL3727448
     RDKit          3D

  0  0  0  0  0  0  0  0  0  0999 V3000
M  V30 BEGIN CTAB
M  V30 COUNTS 38 40 0 0 0
M  V30 BEGIN ATOM
M  V30 1 C 0.427878 -3.622132 5.077325 0
M  V30 2 C 0.395617 -2.848045 3.887647 0
M  V30 3 S -0.089239 -3.510248 2.242471 0
M  V30 4 C 0.128572 -1.978979 1.337390 0
M  V30 5 C -0.055324 -1.665704 -0.038876 0
M  V30 6 N -0.477102 -2.716643 -0.857154 0
M  V30 7 C -0.661343 -2.384446 -2.247088 0
M  V30 8 C -1.706878 -1.351814 -2.514897 0
M  V30 9 N -1.816447 -1.087567 -3.958715 0
M  V30 10 N 0.191749 -0.410519 -0.423470 0
M  V30 11 C 0.594048 0.450380 0.526674 0
M  V30 12 C 0.889770 1.862849 0.186380 0
M  V30 13 C 0.730290 2.226783 -1.129566 0
M  V30 14 C 0.983613 3.512564 -1.521907 0
M  V30 15 N 1.392645 4.442579 -0.628832 0
M  V30 16 C 1.557947 4.108569 0.677589 0
M  V30 17 C 1.306905 2.818050 1.088130 0
M  V30 18 N 0.763617 0.155759 1.803373 0
M  V30 19 C 0.550037 -1.061291 2.311788 0
M  V30 20 C 0.685640 -1.490210 3.590468 0
M  V30 21 C 1.117266 -0.662769 4.743383 0
M  V30 22 H 0.724497 -4.677759 4.888538 0
M  V30 23 H -0.529492 -3.580336 5.631151 0
M  V30 24 H 1.214525 -3.226620 5.759484 0
M  V30 25 H -0.647093 -3.667609 -0.498832 0
M  V30 26 H 0.313252 -2.062915 -2.677963 0
M  V30 27 H -1.001256 -3.321346 -2.765807 0
M  V30 28 H -2.727616 -1.700348 -2.230039 0
M  V30 29 H -1.495600 -0.362609 -2.069493 0
M  V30 30 H -2.463336 -0.298713 -4.126439 0
M  V30 31 H -0.874778 -0.946798 -4.361048 0
M  V30 32 H 0.403778 1.497914 -1.860468 0
M  V30 33 H 0.845156 3.751371 -2.561595 0
M  V30 34 H 1.877646 4.777788 1.452429 0
M  V30 35 H 1.416705 2.476744 2.114996 0
M  V30 36 H 0.385610 -0.797550 5.593049 0
M  V30 37 H 2.108397 -0.906625 5.135887 0
M  V30 38 H 1.015063 0.437110 4.506217 0
M  V30 END ATOM
M  V30 BEGIN BOND
M  V30 1 1 1 2
M  V30 2 1 2 3
M  V30 3 1 3 4
M  V30 4 2 4 5
M  V30 5 1 5 6
M  V30 6 1 6 7
M  V30 7 1 7 8
M  V30 8 1 8 9
M  V30 9 1 5 10
M  V30 10 2 10 11
M  V30 11 1 11 12
M  V30 12 2 12 13
M  V30 13 1 13 14
M  V30 14 2 14 15
M  V30 15 1 15 16
M  V30 16 2 16 17
M  V30 17 1 11 18
M  V30 18 2 18 19
M  V30 19 1 19 20
M  V30 20 1 20 21
M  V30 21 2 20 2
M  V30 22 1 19 4
M  V30 23 1 17 12
M  V30 24 1 1 22
M  V30 25 1 1 23
M  V30 26 1 1 24
M  V30 27 1 6 25
M  V30 28 1 7 26
M  V30 29 1 7 27
M  V30 30 1 8 28
M  V30 31 1 8 29
M  V30 32 1 9 30
M  V30 33 1 9 31
M  V30 34 1 13 32
M  V30 35 1 14 33
M  V30 36 1 16 34
M  V30 37 1 17 35
M  V30 38 1 21 36
M  V30 39 1 21 37
M  V30 40 1 21 38
M  V30 END BOND
M  V30 END CTAB
M  END
>  <Dataset>  (958) 
ChEMBL_Kinases

>  <Ligand_Instance>  (958) 
nan

>  <PDB_ID>  (958) 
nan

>  <Standardized_SMILES>  (958) 
Cc1sc2c(NCCN)nc(-c3ccncc3)nc2c1C

>  <Name>  (958) 
nan

>  <Pocket>  (958) 
nan

>  <ATP_Site>  (958) 
nan

>  <Peripheral>  (958) 
nan

>  <Num_H_Atoms_ProtBoundConf>  (958) 
nan

>  <Num_Resolved_Atoms>  (958) 
nan

>  <Num_Not_Resolved_Atoms>  (958) 
nan

$$$$
CHEMBL3727444
     RDKit          3D

  0  0  0  0  0  0  0  0  0  0999 V3000
M  V30 BEGIN CTAB
M  V30 COUNTS 51 55 0 0 0
M  V30 BEGIN ATOM
M  V30 1 C 3.330911 -4.689710 2.752453 0
M  V30 2 C 2.399795 -3.737447 2.388813 0
M  V30 3 C 1.210885 -4.234715 1.854471 0
M  V30 4 C 0.214381 -3.246171 1.463991 0
M  V30 5 N 0.316750 -1.920027 1.562711 0
M  V30 6 C -0.589400 -1.011001 1.207998 0
M  V30 7 O -0.339162 0.337543 1.371923 0
M  V30 8 C 0.845324 0.888412 1.905837 0
M  V30 9 C 2.083831 0.535045 1.108585 0 CFG=1
M  V30 10 C 1.935916 0.792431 -0.347617 0
M  V30 11 C 2.655073 2.014337 -0.835267 0
M  V30 12 C 2.744504 3.053373 0.256815 0
M  V30 13 C 3.466361 2.513089 1.434980 0
M  V30 14 N 3.246602 1.128408 1.704128 0
M  V30 15 C -1.775643 -1.451496 0.676720 0
M  V30 16 C -2.836940 -0.699794 0.248447 0
M  V30 17 C -3.969592 -1.321238 -0.267170 0
M  V30 18 S -3.564645 -3.106157 -0.165293 0
M  V30 19 C -1.917290 -2.849685 0.558048 0
M  V30 20 N -0.948941 -3.676221 0.943056 0
M  V30 21 C -5.104046 -0.578727 -0.727065 0
M  V30 22 C -4.741881 0.564745 -1.628370 0
M  V30 23 C -3.368262 1.103237 -1.257735 0
M  V30 24 C -3.106450 0.758031 0.193851 0
M  V30 25 C 0.987026 -5.588733 1.702347 0
M  V30 26 C 1.997380 -6.460898 2.103518 0
M  V30 27 N 3.160162 -6.020627 2.624232 0
M  V30 28 H 4.269207 -4.315156 3.173408 0
M  V30 29 H 2.586598 -2.678314 2.512863 0
M  V30 30 H 0.802921 1.977264 1.995712 0
M  V30 31 H 0.981294 0.389152 2.908975 0
M  V30 32 H 2.220194 -0.562067 1.220504 0
M  V30 33 H 0.845378 0.949036 -0.579859 0
M  V30 34 H 2.252937 -0.052163 -0.996806 0
M  V30 35 H 2.169012 2.475603 -1.705305 0
M  V30 36 H 3.679045 1.763603 -1.130413 0
M  V30 37 H 1.776833 3.556150 0.474591 0
M  V30 38 H 3.374721 3.879324 -0.187651 0
M  V30 39 H 3.177030 3.149355 2.321956 0
M  V30 40 H 4.557036 2.670458 1.302927 0
M  V30 41 H 3.439800 0.828883 2.659984 0
M  V30 42 H -5.792248 -1.309899 -1.244561 0
M  V30 43 H -5.675880 -0.175303 0.134136 0
M  V30 44 H -4.740283 0.192049 -2.670372 0
M  V30 45 H -5.479499 1.407789 -1.559844 0
M  V30 46 H -3.323422 2.181136 -1.459577 0
M  V30 47 H -2.637560 0.509322 -1.867321 0
M  V30 48 H -2.286342 1.360259 0.611174 0
M  V30 49 H -4.059665 1.005296 0.747654 0
M  V30 50 H 0.044422 -5.917642 1.281386 0
M  V30 51 H 1.733523 -7.506845 1.946693 0
M  V30 END ATOM
M  V30 BEGIN BOND
M  V30 1 2 1 2
M  V30 2 1 2 3
M  V30 3 1 3 4
M  V30 4 2 4 5
M  V30 5 1 5 6
M  V30 6 1 6 7
M  V30 7 1 7 8
M  V30 8 1 8 9
M  V30 9 1 9 10
M  V30 10 1 10 11
M  V30 11 1 11 12
M  V30 12 1 12 13
M  V30 13 1 13 14
M  V30 14 2 6 15
M  V30 15 1 15 16
M  V30 16 2 16 17
M  V30 17 1 17 18
M  V30 18 1 18 19
M  V30 19 2 19 20
M  V30 20 1 17 21
M  V30 21 1 21 22
M  V30 22 1 22 23
M  V30 23 1 23 24
M  V30 24 2 3 25
M  V30 25 1 25 26
M  V30 26 2 26 27
M  V30 27 1 27 1
M  V30 28 1 20 4
M  V30 29 1 14 9
M  V30 30 1 19 15
M  V30 31 1 24 16
M  V30 32 1 1 28
M  V30 33 1 2 29
M  V30 34 1 8 30
M  V30 35 1 8 31
M  V30 36 1 9 32 CFG=3
M  V30 37 1 10 33
M  V30 38 1 10 34
M  V30 39 1 11 35
M  V30 40 1 11 36
M  V30 41 1 12 37
M  V30 42 1 12 38
M  V30 43 1 13 39
M  V30 44 1 13 40
M  V30 45 1 14 41
M  V30 46 1 21 42
M  V30 47 1 21 43
M  V30 48 1 22 44
M  V30 49 1 22 45
M  V30 50 1 23 46
M  V30 51 1 23 47
M  V30 52 1 24 48
M  V30 53 1 24 49
M  V30 54 1 25 50
M  V30 55 1 26 51
M  V30 END BOND
M  V30 END CTAB
M  END
>  <Dataset>  (959) 
ChEMBL_Kinases

>  <Ligand_Instance>  (959) 
nan

>  <PDB_ID>  (959) 
nan

>  <Standardized_SMILES>  (959) 
c1cc(-c2nc(OC[C@H]3CCCCN3)c3c4c(sc3n2)CCCC4)ccn1

>  <Name>  (959) 
nan

>  <Pocket>  (959) 
nan

>  <ATP_Site>  (959) 
nan

>  <Peripheral>  (959) 
nan

>  <Num_H_Atoms_ProtBoundConf>  (959) 
nan

>  <Num_Resolved_Atoms>  (959) 
nan

>  <Num_Not_Resolved_Atoms>  (959) 
nan

$$$$
CHEMBL371095
     RDKit          3D

  0  0  0  0  0  0  0  0  0  0999 V3000
M  V30 BEGIN CTAB
M  V30 COUNTS 61 65 0 0 0
M  V30 BEGIN ATOM
M  V30 1 N -1.193185 -6.522879 4.221354 0
M  V30 2 C -0.403987 -5.698392 4.039351 0
M  V30 3 C 0.578787 -4.663077 3.830488 0
M  V30 4 C 1.937292 -4.850459 3.972205 0
M  V30 5 N 2.822473 -3.839743 3.761984 0
M  V30 6 C 2.387368 -2.618995 3.406702 0
M  V30 7 C 3.218706 -1.568703 3.184918 0
M  V30 8 N 2.784309 -0.325344 2.825736 0
M  V30 9 C 1.454566 -0.058632 2.664448 0
M  V30 10 N 0.973848 1.252428 2.289707 0
M  V30 11 C 2.082443 2.157506 2.157258 0
M  V30 12 C 1.675061 3.520324 1.769017 0
M  V30 13 N 1.027110 3.759216 0.551791 0
M  V30 14 C -0.280856 3.344737 0.300567 0
M  V30 15 C -0.432293 2.209721 -0.666271 0
M  V30 16 O 0.198329 2.597127 -1.868293 0
M  V30 17 C 1.539592 2.710195 -1.604966 0
M  V30 18 C 1.894792 3.778933 -0.602503 0
M  V30 19 C 0.640957 -1.165879 2.902651 0
M  V30 20 C 1.030446 -2.424298 3.262860 0
M  V30 21 C 0.084595 -3.427635 3.466724 0
M  V30 22 N -1.289314 -3.076678 3.273764 0
M  V30 23 C -1.745570 -3.240777 1.935358 0
M  V30 24 C -0.959612 -3.807051 0.955224 0
M  V30 25 C -1.290801 -4.006808 -0.367719 0
M  V30 26 C -2.572544 -3.579392 -0.734416 0
M  V30 27 O -2.911032 -3.783203 -2.086639 0
M  V30 28 C -2.616607 -2.833183 -3.062799 0
M  V30 29 C -3.320989 -1.748921 -3.534589 0
M  V30 30 C -2.791703 -0.961579 -4.519761 0
M  V30 31 C -1.561341 -1.182414 -5.094982 0
M  V30 32 C -0.843330 -2.275321 -4.624598 0
M  V30 33 C -1.359904 -3.085593 -3.628140 0
M  V30 34 C -3.425271 -3.000764 0.188823 0
M  V30 35 C -2.998871 -2.842741 1.499588 0
M  V30 36 H 2.283041 -5.815357 4.253361 0
M  V30 37 H 4.289691 -1.668324 3.283904 0
M  V30 38 H -0.060033 1.215885 2.210422 0
M  V30 39 H 2.640595 2.263795 3.141694 0
M  V30 40 H 2.881177 1.726801 1.488672 0
M  V30 41 H 0.982474 3.888233 2.598359 0
M  V30 42 H 2.562739 4.222832 1.909286 0
M  V30 43 H -0.836932 3.121365 1.218344 0
M  V30 44 H -0.868915 4.227613 -0.140723 0
M  V30 45 H -1.523863 2.121974 -0.906048 0
M  V30 46 H 0.007155 1.287742 -0.295562 0
M  V30 47 H 1.873973 1.719395 -1.187123 0
M  V30 48 H 2.161929 2.862834 -2.508810 0
M  V30 49 H 2.966531 3.667034 -0.359477 0
M  V30 50 H 1.769469 4.760136 -1.095953 0
M  V30 51 H -0.422875 -0.998350 2.785281 0
M  V30 52 H -1.999757 -2.720261 3.970274 0
M  V30 53 H 0.047879 -4.150077 1.214570 0
M  V30 54 H -0.603879 -4.462898 -1.064119 0
M  V30 55 H -4.266444 -1.650571 -3.032786 0
M  V30 56 H -3.395766 -0.126194 -4.844982 0
M  V30 57 H -1.213658 -0.507058 -5.873624 0
M  V30 58 H 0.131540 -2.433569 -5.094113 0
M  V30 59 H -0.695219 -3.878240 -3.377677 0
M  V30 60 H -4.399194 -2.687199 -0.133923 0
M  V30 61 H -3.672940 -2.389886 2.211341 0
M  V30 END ATOM
M  V30 BEGIN BOND
M  V30 1 3 1 2
M  V30 2 1 2 3
M  V30 3 2 3 4
M  V30 4 1 4 5
M  V30 5 2 5 6
M  V30 6 1 6 7
M  V30 7 2 7 8
M  V30 8 1 8 9
M  V30 9 1 9 10
M  V30 10 1 10 11
M  V30 11 1 11 12
M  V30 12 1 12 13
M  V30 13 1 13 14
M  V30 14 1 14 15
M  V30 15 1 15 16
M  V30 16 1 16 17
M  V30 17 1 17 18
M  V30 18 2 9 19
M  V30 19 1 19 20
M  V30 20 2 20 21
M  V30 21 1 21 22
M  V30 22 1 22 23
M  V30 23 2 23 24
M  V30 24 1 24 25
M  V30 25 2 25 26
M  V30 26 1 26 27
M  V30 27 1 27 28
M  V30 28 2 28 29
M  V30 29 1 29 30
M  V30 30 2 30 31
M  V30 31 1 31 32
M  V30 32 2 32 33
M  V30 33 1 26 34
M  V30 34 2 34 35
M  V30 35 1 21 3
M  V30 36 1 35 23
M  V30 37 1 20 6
M  V30 38 1 33 28
M  V30 39 1 18 13
M  V30 40 1 4 36
M  V30 41 1 7 37
M  V30 42 1 10 38
M  V30 43 1 11 39
M  V30 44 1 11 40
M  V30 45 1 12 41
M  V30 46 1 12 42
M  V30 47 1 14 43
M  V30 48 1 14 44
M  V30 49 1 15 45
M  V30 50 1 15 46
M  V30 51 1 17 47
M  V30 52 1 17 48
M  V30 53 1 18 49
M  V30 54 1 18 50
M  V30 55 1 19 51
M  V30 56 1 22 52
M  V30 57 1 24 53
M  V30 58 1 25 54
M  V30 59 1 29 55
M  V30 60 1 30 56
M  V30 61 1 31 57
M  V30 62 1 32 58
M  V30 63 1 33 59
M  V30 64 1 34 60
M  V30 65 1 35 61
M  V30 END BOND
M  V30 END CTAB
M  END
>  <Dataset>  (960) 
ChEMBL_Kinases

>  <Ligand_Instance>  (960) 
nan

>  <PDB_ID>  (960) 
nan

>  <Standardized_SMILES>  (960) 
N#Cc1cnc2cnc(NCCN3CCOCC3)cc2c1Nc1ccc(Oc2ccccc2)cc1

>  <Name>  (960) 
nan

>  <Pocket>  (960) 
nan

>  <ATP_Site>  (960) 
nan

>  <Peripheral>  (960) 
nan

>  <Num_H_Atoms_ProtBoundConf>  (960) 
nan

>  <Num_Resolved_Atoms>  (960) 
nan

>  <Num_Not_Resolved_Atoms>  (960) 
nan

$$$$
CHEMBL3727437
     RDKit          3D

  0  0  0  0  0  0  0  0  0  0999 V3000
M  V30 BEGIN CTAB
M  V30 COUNTS 67 71 0 0 0
M  V30 BEGIN ATOM
M  V30 1 C 2.701619 -1.222269 5.608033 0
M  V30 2 C 3.242673 -1.854771 4.380309 0
M  V30 3 O 2.671551 -2.979674 4.198624 0
M  V30 4 N 4.240782 -1.274547 3.555520 0
M  V30 5 C 4.905042 -0.001178 3.737997 0
M  V30 6 C 4.489394 0.925250 2.625164 0
M  V30 7 C 3.797711 0.113188 1.522468 0
M  V30 8 O 3.527059 0.897894 0.401887 0
M  V30 9 C 2.276660 1.190164 -0.113944 0
M  V30 10 C 2.351365 1.995763 -1.233496 0
M  V30 11 C 1.213591 2.404210 -1.901979 0
M  V30 12 C -0.037258 2.015374 -1.465866 0
M  V30 13 C -1.365337 2.321323 -2.007919 0 CFG=1
M  V30 14 C -1.967471 1.203040 -2.846957 0
M  V30 15 N -2.522043 0.201552 -1.997113 0
M  V30 16 C -2.289729 -1.158513 -1.633436 0
M  V30 17 N -3.107881 -1.750161 -0.746310 0
M  V30 18 C -3.060414 -2.977867 -0.290553 0
M  V30 19 C -4.079604 -3.353060 0.669451 0
M  V30 20 C -5.028758 -2.433991 1.057252 0
M  V30 21 C -6.017927 -2.750595 1.969717 0
M  V30 22 N -6.111028 -3.967156 2.528934 0
M  V30 23 C -5.203125 -4.920212 2.187452 0
M  V30 24 C -4.232756 -4.570403 1.276678 0
M  V30 25 F -3.357245 -5.533717 0.964520 0
M  V30 26 C -2.046192 -3.727979 -0.793999 0
M  V30 27 C -1.156522 -3.226701 -1.701587 0
M  V30 28 O -0.227750 -3.944797 -2.150210 0
M  V30 29 N -1.310594 -1.954765 -2.090418 0
M  V30 30 C -0.371602 -1.445439 -3.038609 0
M  V30 31 C -3.678898 0.810625 -1.316251 0
M  V30 32 C -3.538302 2.297704 -1.262368 0
M  V30 33 O -2.227375 2.667778 -0.967804 0
M  V30 34 C -0.107176 1.198302 -0.329888 0
M  V30 35 C 1.033380 0.792379 0.335311 0
M  V30 36 C 4.655010 -1.095265 1.197705 0
M  V30 37 C 4.657764 -2.027517 2.390046 0
M  V30 38 H 2.613335 -1.930860 6.455455 0
M  V30 39 H 3.309413 -0.378893 5.954414 0
M  V30 40 H 1.654612 -0.835225 5.442749 0
M  V30 41 H 6.005584 -0.221399 3.723346 0
M  V30 42 H 4.725440 0.445909 4.737040 0
M  V30 43 H 3.753513 1.639373 3.078862 0
M  V30 44 H 5.328040 1.513622 2.229374 0
M  V30 45 H 2.889718 -0.288222 2.000188 0
M  V30 46 H 3.251361 2.393201 -1.711620 0
M  V30 47 H 1.168700 3.032420 -2.783721 0
M  V30 48 H -1.280389 3.204141 -2.673545 0
M  V30 49 H -1.194800 0.919858 -3.553559 0
M  V30 50 H -2.811277 1.704482 -3.400330 0
M  V30 51 H -5.023881 -1.421032 0.649353 0
M  V30 52 H -6.733682 -1.984473 2.233203 0
M  V30 53 H -5.252825 -5.908017 2.621009 0
M  V30 54 H -1.931412 -4.744337 -0.476530 0
M  V30 55 H 0.178954 -0.634910 -2.572885 0
M  V30 56 H -0.810888 -1.290752 -4.024824 0
M  V30 57 H 0.434482 -2.227321 -3.235312 0
M  V30 58 H -3.783764 0.409247 -0.290906 0
M  V30 59 H -4.634625 0.565995 -1.822542 0
M  V30 60 H -3.946118 2.822169 -2.143136 0
M  V30 61 H -4.166662 2.645165 -0.390955 0
M  V30 62 H -1.022803 0.815372 0.126753 0
M  V30 63 H 1.066772 0.168286 1.210138 0
M  V30 64 H 5.681903 -0.800948 0.899264 0
M  V30 65 H 4.161194 -1.613418 0.349901 0
M  V30 66 H 5.669295 -2.466540 2.563379 0
M  V30 67 H 3.992960 -2.897076 2.191847 0
M  V30 END ATOM
M  V30 BEGIN BOND
M  V30 1 1 1 2
M  V30 2 2 2 3
M  V30 3 1 2 4
M  V30 4 1 4 5
M  V30 5 1 5 6
M  V30 6 1 6 7
M  V30 7 1 7 8
M  V30 8 1 8 9
M  V30 9 2 9 10
M  V30 10 1 10 11
M  V30 11 2 11 12
M  V30 12 1 12 13
M  V30 13 1 13 14
M  V30 14 1 14 15
M  V30 15 1 15 16
M  V30 16 2 16 17
M  V30 17 1 17 18
M  V30 18 1 18 19
M  V30 19 2 19 20
M  V30 20 1 20 21
M  V30 21 2 21 22
M  V30 22 1 22 23
M  V30 23 2 23 24
M  V30 24 1 24 25
M  V30 25 2 18 26
M  V30 26 1 26 27
M  V30 27 2 27 28
M  V30 28 1 27 29
M  V30 29 1 29 30
M  V30 30 1 15 31
M  V30 31 1 31 32
M  V30 32 1 32 33
M  V30 33 1 12 34
M  V30 34 2 34 35
M  V30 35 1 7 36
M  V30 36 1 36 37
M  V30 37 1 37 4
M  V30 38 1 35 9
M  V30 39 1 33 13
M  V30 40 1 29 16
M  V30 41 1 24 19
M  V30 42 1 1 38
M  V30 43 1 1 39
M  V30 44 1 1 40
M  V30 45 1 5 41
M  V30 46 1 5 42
M  V30 47 1 6 43
M  V30 48 1 6 44
M  V30 49 1 7 45
M  V30 50 1 10 46
M  V30 51 1 11 47
M  V30 52 1 13 48 CFG=3
M  V30 53 1 14 49
M  V30 54 1 14 50
M  V30 55 1 20 51
M  V30 56 1 21 52
M  V30 57 1 23 53
M  V30 58 1 26 54
M  V30 59 1 30 55
M  V30 60 1 30 56
M  V30 61 1 30 57
M  V30 62 1 31 58
M  V30 63 1 31 59
M  V30 64 1 32 60
M  V30 65 1 32 61
M  V30 66 1 34 62
M  V30 67 1 35 63
M  V30 68 1 36 64
M  V30 69 1 36 65
M  V30 70 1 37 66
M  V30 71 1 37 67
M  V30 END BOND
M  V30 END CTAB
M  END
>  <Dataset>  (961) 
ChEMBL_Kinases

>  <Ligand_Instance>  (961) 
nan

>  <PDB_ID>  (961) 
nan

>  <Standardized_SMILES>  (961) 
CC(=O)N1CCC(Oc2ccc([C@H]3CN(c4nc(-c5ccncc5F)cc(=O)n4C)CCO3)cc2)CC1

>  <Name>  (961) 
nan

>  <Pocket>  (961) 
nan

>  <ATP_Site>  (961) 
nan

>  <Peripheral>  (961) 
nan

>  <Num_H_Atoms_ProtBoundConf>  (961) 
nan

>  <Num_Resolved_Atoms>  (961) 
nan

>  <Num_Not_Resolved_Atoms>  (961) 
nan

$$$$
CHEMBL571281
     RDKit          3D

  0  0  0  0  0  0  0  0  0  0999 V3000
M  V30 BEGIN CTAB
M  V30 COUNTS 70 76 0 0 0
M  V30 BEGIN ATOM
M  V30 1 C 1.753303 -1.302002 -4.406226 0
M  V30 2 C 2.339712 -1.818777 -3.145638 0
M  V30 3 C 2.922205 -1.045929 -2.132238 0
M  V30 4 N 2.954903 0.361897 -2.267606 0
M  V30 5 C 2.291225 1.545115 -2.518564 0
M  V30 6 C 2.649311 2.046287 -3.789363 0
M  V30 7 C 3.654751 1.418713 -4.642091 0
M  V30 8 N 4.458962 0.896743 -5.317604 0
M  V30 9 C 2.129301 3.181324 -4.370239 0
M  V30 10 N 1.219305 3.836222 -3.649115 0
M  V30 11 C 0.844752 3.414658 -2.448447 0
M  V30 12 C 1.351275 2.283462 -1.848936 0
M  V30 13 C 0.966036 1.872865 -0.518032 0
M  V30 14 C 1.339782 0.975831 0.439776 0
M  V30 15 C 0.562978 1.044854 1.572764 0
M  V30 16 C 0.518080 0.392047 2.778449 0
M  V30 17 C -0.458338 0.775922 3.685348 0
M  V30 18 C -0.498639 0.064885 4.968037 0
M  V30 19 N -1.341261 -1.050926 5.075231 0
M  V30 20 C -1.165276 -2.157287 4.222238 0
M  V30 21 C -2.457260 -2.693715 3.640296 0
M  V30 22 N -3.396739 -1.578035 3.444167 0
M  V30 23 C -3.938864 -1.278320 2.164690 0
M  V30 24 C -4.838685 -0.252239 1.929894 0
M  V30 25 C -5.319597 -0.023431 0.646254 0
M  V30 26 C -4.889496 -0.830251 -0.389432 0
M  V30 27 C -3.988168 -1.850108 -0.125199 0
M  V30 28 N -3.544666 -2.042234 1.126897 0
M  V30 29 C -3.735202 -0.803959 4.625469 0
M  V30 30 C -2.617519 -0.901957 5.662167 0
M  V30 31 C -1.343729 1.786761 3.357380 0
M  V30 32 C -1.291083 2.447925 2.123605 0
M  V30 33 C -0.303625 2.035282 1.249864 0
M  V30 34 O -0.025813 2.466357 0.052186 0
M  V30 35 C 3.385388 -1.747133 -1.046241 0
M  V30 36 C 3.346156 -3.090290 -0.837294 0
M  V30 37 C 2.764358 -3.798007 -1.863296 0
M  V30 38 N 2.549671 -5.129098 -2.010379 0
M  V30 39 C 1.941678 -5.443538 -3.173742 0
M  V30 40 C 1.769372 -4.223219 -3.785191 0
M  V30 41 C 2.273119 -3.189848 -2.988328 0
M  V30 42 H 1.207974 -0.342320 -4.269884 0
M  V30 43 H 1.048311 -2.072715 -4.837174 0
M  V30 44 H 2.527882 -1.173738 -5.196991 0
M  V30 45 H 3.982979 0.581049 -2.081320 0
M  V30 46 H 2.394639 3.571970 -5.338108 0
M  V30 47 H 0.103517 4.015267 -1.941441 0
M  V30 48 H 2.169151 0.321415 0.278950 0
M  V30 49 H 1.275642 -0.375097 2.900000 0
M  V30 50 H 0.533595 -0.269248 5.293314 0
M  V30 51 H -0.784454 0.790409 5.772622 0
M  V30 52 H -0.718177 -3.000034 4.828446 0
M  V30 53 H -0.424671 -1.932565 3.444404 0
M  V30 54 H -2.882564 -3.432106 4.340682 0
M  V30 55 H -2.204302 -3.164496 2.671816 0
M  V30 56 H -5.126202 0.337874 2.806130 0
M  V30 57 H -6.018161 0.797552 0.560534 0
M  V30 58 H -5.285638 -0.618383 -1.358969 0
M  V30 59 H -3.671021 -2.467441 -0.977447 0
M  V30 60 H -3.842373 0.272458 4.382331 0
M  V30 61 H -4.679416 -1.233228 5.017934 0
M  V30 62 H -2.829738 -1.862859 6.216088 0
M  V30 63 H -2.662321 -0.125190 6.425216 0
M  V30 64 H -2.108154 2.088009 4.063870 0
M  V30 65 H -1.966061 3.242800 1.834811 0
M  V30 66 H 3.865327 -1.193475 -0.222776 0
M  V30 67 H 3.726177 -3.577981 0.033939 0
M  V30 68 H 2.828966 -5.843395 -1.289150 0
M  V30 69 H 1.688699 -6.451087 -3.471306 0
M  V30 70 H 1.300503 -4.114625 -4.759530 0
M  V30 END ATOM
M  V30 BEGIN BOND
M  V30 1 1 1 2
M  V30 2 2 2 3
M  V30 3 1 3 4
M  V30 4 1 4 5
M  V30 5 2 5 6
M  V30 6 1 6 7
M  V30 7 3 7 8
M  V30 8 1 6 9
M  V30 9 2 9 10
M  V30 10 1 10 11
M  V30 11 2 11 12
M  V30 12 1 12 13
M  V30 13 2 13 14
M  V30 14 1 14 15
M  V30 15 2 15 16
M  V30 16 1 16 17
M  V30 17 1 17 18
M  V30 18 1 18 19
M  V30 19 1 19 20
M  V30 20 1 20 21
M  V30 21 1 21 22
M  V30 22 1 22 23
M  V30 23 2 23 24
M  V30 24 1 24 25
M  V30 25 2 25 26
M  V30 26 1 26 27
M  V30 27 2 27 28
M  V30 28 1 22 29
M  V30 29 1 29 30
M  V30 30 2 17 31
M  V30 31 1 31 32
M  V30 32 2 32 33
M  V30 33 1 33 34
M  V30 34 1 3 35
M  V30 35 2 35 36
M  V30 36 1 36 37
M  V30 37 1 37 38
M  V30 38 1 38 39
M  V30 39 2 39 40
M  V30 40 1 40 41
M  V30 41 1 41 2
M  V30 42 1 12 5
M  V30 43 1 34 13
M  V30 44 2 41 37
M  V30 45 1 33 15
M  V30 46 1 30 19
M  V30 47 1 28 23
M  V30 48 1 1 42
M  V30 49 1 1 43
M  V30 50 1 1 44
M  V30 51 1 4 45
M  V30 52 1 9 46
M  V30 53 1 11 47
M  V30 54 1 14 48
M  V30 55 1 16 49
M  V30 56 1 18 50
M  V30 57 1 18 51
M  V30 58 1 20 52
M  V30 59 1 20 53
M  V30 60 1 21 54
M  V30 61 1 21 55
M  V30 62 1 24 56
M  V30 63 1 25 57
M  V30 64 1 26 58
M  V30 65 1 27 59
M  V30 66 1 29 60
M  V30 67 1 29 61
M  V30 68 1 30 62
M  V30 69 1 30 63
M  V30 70 1 31 64
M  V30 71 1 32 65
M  V30 72 1 35 66
M  V30 73 1 36 67
M  V30 74 1 38 68
M  V30 75 1 39 69
M  V30 76 1 40 70
M  V30 END BOND
M  V30 END CTAB
M  END
>  <Dataset>  (962) 
ChEMBL_Kinases

>  <Ligand_Instance>  (962) 
nan

>  <PDB_ID>  (962) 
nan

>  <Standardized_SMILES>  (962) 
Cc1c(Nc2c(C#N)cncc2-c2cc3cc(CN4CCN(c5ccccn5)CC4)ccc3o2)ccc2[nH]ccc12

>  <Name>  (962) 
nan

>  <Pocket>  (962) 
nan

>  <ATP_Site>  (962) 
nan

>  <Peripheral>  (962) 
nan

>  <Num_H_Atoms_ProtBoundConf>  (962) 
nan

>  <Num_Resolved_Atoms>  (962) 
nan

>  <Num_Not_Resolved_Atoms>  (962) 
nan

$$$$
CHEMBL3727430
     RDKit          3D

  0  0  0  0  0  0  0  0  0  0999 V3000
M  V30 BEGIN CTAB
M  V30 COUNTS 57 60 0 0 0
M  V30 BEGIN ATOM
M  V30 1 C 0.588791 -0.211039 6.172815 0
M  V30 2 C 1.263956 -1.005235 5.075317 0
M  V30 3 C 2.768803 -1.030074 5.200412 0
M  V30 4 C 0.701916 -2.409246 5.074301 0
M  V30 5 C 0.985762 -0.377537 3.754939 0
M  V30 6 C 1.600803 0.556924 3.042492 0
M  V30 7 C 1.051843 0.888436 1.842287 0
M  V30 8 N 1.516044 1.795315 0.980242 0
M  V30 9 C 0.972413 2.108522 -0.191293 0
M  V30 10 C 1.508084 3.106510 -1.102521 0
M  V30 11 C 2.650166 3.746201 -0.669757 0
M  V30 12 C 3.156713 4.706904 -1.551884 0
M  V30 13 N 2.583924 4.992667 -2.731098 0
M  V30 14 C 1.471504 4.360932 -3.138574 0
M  V30 15 C 0.923079 3.401838 -2.312194 0
M  V30 16 N -0.144880 1.501860 -0.616324 0
M  V30 17 C -0.714250 0.572239 0.151975 0
M  V30 18 N -1.846845 -0.240259 0.049108 0
M  V30 19 C -2.989690 -1.060046 -0.054792 0
M  V30 20 C -2.998397 -2.026381 -1.231387 0 CFG=1
M  V30 21 N -2.917097 -1.390387 -2.502410 0
M  V30 22 C -1.837584 -2.998709 -1.038973 0
M  V30 23 C -1.754358 -3.986223 -2.144317 0
M  V30 24 C -2.388378 -5.212713 -2.167415 0
M  V30 25 C -2.204779 -6.020786 -3.274579 0
M  V30 26 C -1.421040 -5.647433 -4.340345 0
M  V30 27 C -0.773462 -4.430155 -4.350893 0
M  V30 28 C -0.962893 -3.631074 -3.241989 0
M  V30 29 C -0.110941 0.266944 1.385248 0
M  V30 30 S -0.416848 -0.859588 2.783015 0
M  V30 31 H -0.433326 -0.551833 6.354166 0
M  V30 32 H 0.529776 0.854893 5.808312 0
M  V30 33 H 1.209233 -0.179379 7.095054 0
M  V30 34 H 3.125013 0.015852 5.281194 0
M  V30 35 H 3.145273 -1.560665 6.073464 0
M  V30 36 H 3.149370 -1.444388 4.253028 0
M  V30 37 H -0.107871 -2.527926 4.341918 0
M  V30 38 H 0.303566 -2.611763 6.112011 0
M  V30 39 H 1.521533 -3.156686 4.932079 0
M  V30 40 H 2.490230 0.975323 3.481899 0
M  V30 41 H 3.113442 3.511836 0.287775 0
M  V30 42 H 4.055436 5.230548 -1.244585 0
M  V30 43 H 0.985329 4.560306 -4.073228 0
M  V30 44 H 0.035010 2.892915 -2.631701 0
M  V30 45 H -2.104340 0.134437 -0.927801 0
M  V30 46 H -3.141791 -1.678497 0.890659 0
M  V30 47 H -3.924442 -0.471265 -0.101771 0
M  V30 48 H -3.909579 -2.654142 -1.225103 0
M  V30 49 H -2.041596 -0.901789 -2.729399 0
M  V30 50 H -3.790268 -0.999727 -2.864926 0
M  V30 51 H -0.900414 -2.415873 -1.002784 0
M  V30 52 H -1.937654 -3.518466 -0.054630 0
M  V30 53 H -2.997855 -5.473931 -1.310437 0
M  V30 54 H -2.710498 -6.993570 -3.287392 0
M  V30 55 H -1.273480 -6.281023 -5.215103 0
M  V30 56 H -0.138579 -4.072582 -5.159940 0
M  V30 57 H -0.451862 -2.664765 -3.243072 0
M  V30 END ATOM
M  V30 BEGIN BOND
M  V30 1 1 1 2
M  V30 2 1 2 3
M  V30 3 1 2 4
M  V30 4 1 2 5
M  V30 5 2 5 6
M  V30 6 1 6 7
M  V30 7 2 7 8
M  V30 8 1 8 9
M  V30 9 1 9 10
M  V30 10 2 10 11
M  V30 11 1 11 12
M  V30 12 2 12 13
M  V30 13 1 13 14
M  V30 14 2 14 15
M  V30 15 2 9 16
M  V30 16 1 16 17
M  V30 17 1 17 18
M  V30 18 1 18 19
M  V30 19 1 19 20
M  V30 20 1 20 21
M  V30 21 1 20 22
M  V30 22 1 22 23
M  V30 23 2 23 24
M  V30 24 1 24 25
M  V30 25 2 25 26
M  V30 26 1 26 27
M  V30 27 2 27 28
M  V30 28 2 17 29
M  V30 29 1 29 30
M  V30 30 1 30 5
M  V30 31 1 29 7
M  V30 32 1 15 10
M  V30 33 1 28 23
M  V30 34 1 1 31
M  V30 35 1 1 32
M  V30 36 1 1 33
M  V30 37 1 3 34
M  V30 38 1 3 35
M  V30 39 1 3 36
M  V30 40 1 4 37
M  V30 41 1 4 38
M  V30 42 1 4 39
M  V30 43 1 6 40
M  V30 44 1 11 41
M  V30 45 1 12 42
M  V30 46 1 14 43
M  V30 47 1 15 44
M  V30 48 1 18 45
M  V30 49 1 19 46
M  V30 50 1 19 47
M  V30 51 1 20 48 CFG=3
M  V30 52 1 21 49
M  V30 53 1 21 50
M  V30 54 1 22 51
M  V30 55 1 22 52
M  V30 56 1 24 53
M  V30 57 1 25 54
M  V30 58 1 26 55
M  V30 59 1 27 56
M  V30 60 1 28 57
M  V30 END BOND
M  V30 END CTAB
M  END
>  <Dataset>  (963) 
ChEMBL_Kinases

>  <Ligand_Instance>  (963) 
nan

>  <PDB_ID>  (963) 
nan

>  <Standardized_SMILES>  (963) 
CC(C)(C)c1cc2nc(-c3ccncc3)nc(NC[C@@H](N)Cc3ccccc3)c2s1

>  <Name>  (963) 
nan

>  <Pocket>  (963) 
nan

>  <ATP_Site>  (963) 
nan

>  <Peripheral>  (963) 
nan

>  <Num_H_Atoms_ProtBoundConf>  (963) 
nan

>  <Num_Resolved_Atoms>  (963) 
nan

>  <Num_Not_Resolved_Atoms>  (963) 
nan

$$$$
CHEMBL3727425
     RDKit          3D

  0  0  0  0  0  0  0  0  0  0999 V3000
M  V30 BEGIN CTAB
M  V30 COUNTS 57 61 0 0 0
M  V30 BEGIN ATOM
M  V30 1 N 5.373335 -3.450561 4.799910 0
M  V30 2 C 4.998957 -4.089562 3.555767 0
M  V30 3 C 4.976627 -3.079401 2.465166 0
M  V30 4 C 6.017095 -2.712754 1.636615 0
M  V30 5 O 5.609005 -1.773345 0.782354 0
M  V30 6 C 4.353142 -1.475089 0.975934 0
M  V30 7 C 3.527836 -0.507812 0.263541 0
M  V30 8 C 4.170079 0.174219 -0.741620 0
M  V30 9 S 2.811916 1.312837 -1.420953 0
M  V30 10 C 1.617624 0.719249 -0.285077 0
M  V30 11 C 0.303764 1.117366 -0.177742 0
M  V30 12 N -0.202819 2.110631 -1.036185 0
M  V30 13 C -1.559227 2.535419 -0.951531 0
M  V30 14 C -2.552070 1.442120 -1.263902 0 CFG=1
M  V30 15 N -3.888642 1.979637 -1.145678 0
M  V30 16 C -2.364159 0.944678 -2.696218 0
M  V30 17 C -3.351466 -0.123526 -2.966925 0
M  V30 18 C -3.130907 -1.477527 -2.740840 0
M  V30 19 C -4.115122 -2.402834 -3.025403 0
M  V30 20 C -5.335784 -2.049202 -3.534374 0
M  V30 21 C -5.571207 -0.701404 -3.765550 0
M  V30 22 C -4.589781 0.233378 -3.483060 0
M  V30 23 N -0.488972 0.542262 0.773511 0
M  V30 24 C 0.141367 -0.401618 1.540703 0
M  V30 25 C -0.667742 -1.040022 2.583764 0
M  V30 26 C -0.239929 -2.031521 3.437175 0
M  V30 27 C -1.022560 -2.608889 4.412264 0
M  V30 28 N -2.293105 -2.193929 4.560875 0
M  V30 29 C -2.753151 -1.230337 3.752091 0
M  V30 30 C -1.975985 -0.660700 2.787851 0
M  V30 31 F -2.576615 0.303000 2.050205 0
M  V30 32 N 1.412188 -0.763844 1.411670 0
M  V30 33 C 2.232170 -0.226602 0.490333 0
M  V30 34 C 3.945704 -2.278056 2.018249 0
M  V30 35 H 5.222659 -2.422818 4.692874 0
M  V30 36 H 6.408698 -3.584623 4.914155 0
M  V30 37 H 5.622289 -4.971204 3.304106 0
M  V30 38 H 3.950967 -4.470149 3.726790 0
M  V30 39 H 7.030490 -3.094348 1.633818 0
M  V30 40 H 5.170107 0.193619 -1.173532 0
M  V30 41 H 0.388147 2.567620 -1.757731 0
M  V30 42 H -1.793231 3.396244 -1.575655 0
M  V30 43 H -1.738060 2.811329 0.124123 0
M  V30 44 H -2.422556 0.586715 -0.608374 0
M  V30 45 H -3.955484 2.824760 -0.549228 0
M  V30 46 H -4.571164 1.277917 -0.783663 0
M  V30 47 H -1.340859 0.576907 -2.858031 0
M  V30 48 H -2.556113 1.772122 -3.395333 0
M  V30 49 H -2.162179 -1.751810 -2.337564 0
M  V30 50 H -3.941306 -3.457235 -2.848615 0
M  V30 51 H -6.087781 -2.796762 -3.747538 0
M  V30 52 H -6.537997 -0.392855 -4.171639 0
M  V30 53 H -4.807944 1.269694 -3.675134 0
M  V30 54 H 0.772971 -2.381692 3.338514 0
M  V30 55 H -0.585341 -3.391878 5.040095 0
M  V30 56 H -3.765134 -0.943278 3.916697 0
M  V30 57 H 2.949270 -2.268287 2.419038 0
M  V30 END ATOM
M  V30 BEGIN BOND
M  V30 1 1 1 2
M  V30 2 1 2 3
M  V30 3 2 3 4
M  V30 4 1 4 5
M  V30 5 1 5 6
M  V30 6 1 6 7
M  V30 7 2 7 8
M  V30 8 1 8 9
M  V30 9 1 9 10
M  V30 10 2 10 11
M  V30 11 1 11 12
M  V30 12 1 12 13
M  V30 13 1 13 14
M  V30 14 1 14 15
M  V30 15 1 14 16
M  V30 16 1 16 17
M  V30 17 2 17 18
M  V30 18 1 18 19
M  V30 19 2 19 20
M  V30 20 1 20 21
M  V30 21 2 21 22
M  V30 22 1 11 23
M  V30 23 2 23 24
M  V30 24 1 24 25
M  V30 25 2 25 26
M  V30 26 1 26 27
M  V30 27 2 27 28
M  V30 28 1 28 29
M  V30 29 2 29 30
M  V30 30 1 30 31
M  V30 31 1 24 32
M  V30 32 2 32 33
M  V30 33 2 6 34
M  V30 34 1 34 3
M  V30 35 1 33 7
M  V30 36 1 33 10
M  V30 37 1 22 17
M  V30 38 1 30 25
M  V30 39 1 1 35
M  V30 40 1 1 36
M  V30 41 1 2 37
M  V30 42 1 2 38
M  V30 43 1 4 39
M  V30 44 1 8 40
M  V30 45 1 12 41
M  V30 46 1 13 42
M  V30 47 1 13 43
M  V30 48 1 14 44 CFG=1
M  V30 49 1 15 45
M  V30 50 1 15 46
M  V30 51 1 16 47
M  V30 52 1 16 48
M  V30 53 1 18 49
M  V30 54 1 19 50
M  V30 55 1 20 51
M  V30 56 1 21 52
M  V30 57 1 22 53
M  V30 58 1 26 54
M  V30 59 1 27 55
M  V30 60 1 29 56
M  V30 61 1 34 57
M  V30 END BOND
M  V30 END CTAB
M  END
>  <Dataset>  (964) 
ChEMBL_Kinases

>  <Ligand_Instance>  (964) 
nan

>  <PDB_ID>  (964) 
nan

>  <Standardized_SMILES>  (964) 
NCc1coc(-c2csc3c(NC[C@@H](N)Cc4ccccc4)nc(-c4ccncc4F)nc23)c1

>  <Name>  (964) 
nan

>  <Pocket>  (964) 
nan

>  <ATP_Site>  (964) 
nan

>  <Peripheral>  (964) 
nan

>  <Num_H_Atoms_ProtBoundConf>  (964) 
nan

>  <Num_Resolved_Atoms>  (964) 
nan

>  <Num_Not_Resolved_Atoms>  (964) 
nan

$$$$
CHEMBL3727409
     RDKit          3D

  0  0  0  0  0  0  0  0  0  0999 V3000
M  V30 BEGIN CTAB
M  V30 COUNTS 55 58 0 0 0
M  V30 BEGIN ATOM
M  V30 1 C 3.656919 -1.982414 4.375894 0
M  V30 2 N 4.330102 -2.790055 3.392685 0
M  V30 3 C 4.940346 -4.042725 3.796841 0
M  V30 4 C 4.408057 -2.386769 2.042455 0
M  V30 5 O 4.979319 -3.055689 1.167181 0
M  V30 6 C 3.813159 -1.138559 1.581186 0
M  V30 7 C 4.647080 0.026376 1.624125 0
M  V30 8 S 3.507577 1.390019 0.953337 0
M  V30 9 C 2.185014 0.359509 0.716017 0
M  V30 10 C 0.850419 0.583498 0.214772 0
M  V30 11 N 0.592415 1.905922 -0.152388 0
M  V30 12 C -0.712092 2.235681 -0.662290 0
M  V30 13 C -1.837688 2.017681 0.310238 0 CFG=1
M  V30 14 N -1.676645 2.815839 1.509701 0
M  V30 15 C -3.181208 2.372101 -0.283153 0
M  V30 16 C -3.542157 1.598349 -1.474028 0
M  V30 17 C -4.235671 0.426166 -1.217513 0
M  V30 18 C -4.644493 -0.409090 -2.233362 0
M  V30 19 C -4.334945 -0.032977 -3.537763 0
M  V30 20 C -3.639720 1.141267 -3.801621 0
M  V30 21 C -3.233627 1.974231 -2.766002 0
M  V30 22 N -0.043040 -0.409941 0.116019 0
M  V30 23 C 0.396608 -1.617990 0.516063 0
M  V30 24 C -0.522613 -2.778643 0.443158 0
M  V30 25 C -1.788878 -2.575081 -0.030668 0
M  V30 26 C -2.682931 -3.616103 -0.119786 0
M  V30 27 N -2.356167 -4.864884 0.250300 0
M  V30 28 C -1.121256 -5.078101 0.715439 0
M  V30 29 C -0.194698 -4.061041 0.820600 0
M  V30 30 N 1.603443 -1.878672 0.981363 0
M  V30 31 C 2.572197 -0.957303 1.120704 0
M  V30 32 H 2.711967 -2.493455 4.701949 0
M  V30 33 H 4.301810 -1.960688 5.285560 0
M  V30 34 H 3.502804 -0.939851 4.072758 0
M  V30 35 H 4.367609 -4.500402 4.638479 0
M  V30 36 H 4.987676 -4.699356 2.915074 0
M  V30 37 H 5.976310 -3.808742 4.114736 0
M  V30 38 H 5.724096 0.056868 1.984875 0
M  V30 39 H 1.291614 2.677411 -0.079851 0
M  V30 40 H -0.760390 3.297846 -0.959891 0
M  V30 41 H -0.843727 1.659331 -1.599532 0
M  V30 42 H -1.883623 0.970728 0.594572 0
M  V30 43 H -2.096834 3.769295 1.351070 0
M  V30 44 H -0.689442 2.910905 1.812554 0
M  V30 45 H -3.965226 2.336018 0.500319 0
M  V30 46 H -3.175417 3.456233 -0.600793 0
M  V30 47 H -4.503242 0.086779 -0.205470 0
M  V30 48 H -5.183376 -1.322176 -2.052374 0
M  V30 49 H -4.649020 -0.678169 -4.346666 0
M  V30 50 H -3.394215 1.440653 -4.827351 0
M  V30 51 H -2.692357 2.894245 -2.924441 0
M  V30 52 H -2.086730 -1.582174 -0.337895 0
M  V30 53 H -3.678839 -3.373959 -0.509445 0
M  V30 54 H -0.864877 -6.088293 1.012105 0
M  V30 55 H 0.813684 -4.220585 1.197400 0
M  V30 END ATOM
M  V30 BEGIN BOND
M  V30 1 1 1 2
M  V30 2 1 2 3
M  V30 3 1 2 4
M  V30 4 2 4 5
M  V30 5 1 4 6
M  V30 6 2 6 7
M  V30 7 1 7 8
M  V30 8 1 8 9
M  V30 9 2 9 10
M  V30 10 1 10 11
M  V30 11 1 11 12
M  V30 12 1 12 13
M  V30 13 1 13 14
M  V30 14 1 13 15
M  V30 15 1 15 16
M  V30 16 2 16 17
M  V30 17 1 17 18
M  V30 18 2 18 19
M  V30 19 1 19 20
M  V30 20 2 20 21
M  V30 21 1 10 22
M  V30 22 2 22 23
M  V30 23 1 23 24
M  V30 24 2 24 25
M  V30 25 1 25 26
M  V30 26 2 26 27
M  V30 27 1 27 28
M  V30 28 2 28 29
M  V30 29 1 23 30
M  V30 30 2 30 31
M  V30 31 1 31 6
M  V30 32 1 31 9
M  V30 33 1 21 16
M  V30 34 1 29 24
M  V30 35 1 1 32
M  V30 36 1 1 33
M  V30 37 1 1 34
M  V30 38 1 3 35
M  V30 39 1 3 36
M  V30 40 1 3 37
M  V30 41 1 7 38
M  V30 42 1 11 39
M  V30 43 1 12 40
M  V30 44 1 12 41
M  V30 45 1 13 42 CFG=1
M  V30 46 1 14 43
M  V30 47 1 14 44
M  V30 48 1 15 45
M  V30 49 1 15 46
M  V30 50 1 17 47
M  V30 51 1 18 48
M  V30 52 1 19 49
M  V30 53 1 20 50
M  V30 54 1 21 51
M  V30 55 1 25 52
M  V30 56 1 26 53
M  V30 57 1 28 54
M  V30 58 1 29 55
M  V30 END BOND
M  V30 END CTAB
M  END
>  <Dataset>  (965) 
ChEMBL_Kinases

>  <Ligand_Instance>  (965) 
nan

>  <PDB_ID>  (965) 
nan

>  <Standardized_SMILES>  (965) 
CN(C)C(=O)c1csc2c(NC[C@@H](N)Cc3ccccc3)nc(-c3ccncc3)nc12

>  <Name>  (965) 
nan

>  <Pocket>  (965) 
nan

>  <ATP_Site>  (965) 
nan

>  <Peripheral>  (965) 
nan

>  <Num_H_Atoms_ProtBoundConf>  (965) 
nan

>  <Num_Resolved_Atoms>  (965) 
nan

>  <Num_Not_Resolved_Atoms>  (965) 
nan

$$$$
CHEMBL3727406
     RDKit          3D

  0  0  0  0  0  0  0  0  0  0999 V3000
M  V30 BEGIN CTAB
M  V30 COUNTS 54 57 0 0 0
M  V30 BEGIN ATOM
M  V30 1 C -0.239905 -1.401001 4.126764 0
M  V30 2 C -0.075215 -0.265610 3.141255 0
M  V30 3 C -0.725724 0.935193 3.869874 0
M  V30 4 C 1.328523 0.122242 2.894038 0
M  V30 5 C 2.278227 -0.844173 2.362324 0 CFG=1
M  V30 6 N 2.324491 -1.978843 3.305193 0
M  V30 7 C 2.406543 -1.194745 0.952928 0
M  V30 8 N 1.288773 -1.741571 0.232205 0
M  V30 9 C 0.255085 -0.959337 -0.351267 0
M  V30 10 N 0.447327 0.359275 -0.211520 0
M  V30 11 C -0.329429 1.338120 -0.674450 0
M  V30 12 C -0.102464 2.766903 -0.517950 0
M  V30 13 C 0.985746 3.297981 0.143787 0
M  V30 14 C 1.176973 4.659413 0.276204 0
M  V30 15 N 0.278605 5.510213 -0.253717 0
M  V30 16 C -0.799900 5.046545 -0.908626 0
M  V30 17 C -0.988418 3.685875 -1.039309 0
M  V30 18 N -1.414224 0.927070 -1.349371 0
M  V30 19 C -1.635039 -0.398834 -1.506653 0
M  V30 20 S -2.959526 -1.182518 -2.336028 0
M  V30 21 C -2.380682 -2.894455 -2.005788 0
M  V30 22 C -1.209338 -2.695215 -1.280318 0
M  V30 23 C -0.853907 -1.391404 -1.041082 0
M  V30 24 C -0.765574 -4.059496 -1.028540 0
M  V30 25 C -0.549575 -4.693787 -2.405183 0
M  V30 26 C -1.914350 -5.106670 -2.895730 0
M  V30 27 C -2.937362 -4.177018 -2.362221 0
M  V30 28 H -0.001645 -2.382806 3.712791 0
M  V30 29 H 0.238856 -1.127650 5.068311 0
M  V30 30 H -1.337439 -1.432324 4.356717 0
M  V30 31 H -0.640128 -0.363916 2.231831 0
M  V30 32 H -1.745776 0.675468 4.199285 0
M  V30 33 H -0.681539 1.811094 3.198030 0
M  V30 34 H -0.052710 1.113324 4.744636 0
M  V30 35 H 1.300535 1.107947 2.342972 0
M  V30 36 H 1.738883 0.452241 3.904998 0
M  V30 37 H 3.322924 -0.369201 2.613736 0
M  V30 38 H 3.183757 -2.525386 3.083222 0
M  V30 39 H 2.482332 -1.535313 4.237182 0
M  V30 40 H 3.361228 -1.800530 0.867948 0
M  V30 41 H 2.742366 -0.257245 0.364357 0
M  V30 42 H 1.501616 -2.750383 0.300553 0
M  V30 43 H 1.713892 2.658601 0.571970 0
M  V30 44 H 2.055948 5.032975 0.809991 0
M  V30 45 H -1.526567 5.748271 -1.335940 0
M  V30 46 H -1.862862 3.278851 -1.570712 0
M  V30 47 H -1.615563 -4.674303 -0.575441 0
M  V30 48 H 0.050142 -4.243599 -0.356361 0
M  V30 49 H 0.055847 -5.626073 -2.281343 0
M  V30 50 H -0.029860 -3.982688 -3.075495 0
M  V30 51 H -1.949634 -5.187800 -4.007701 0
M  V30 52 H -2.132272 -6.132182 -2.484373 0
M  V30 53 H -3.453476 -4.613196 -1.485026 0
M  V30 54 H -3.717559 -4.061786 -3.164263 0
M  V30 END ATOM
M  V30 BEGIN BOND
M  V30 1 1 1 2
M  V30 2 1 2 3
M  V30 3 1 2 4
M  V30 4 1 4 5
M  V30 5 1 5 6
M  V30 6 1 5 7
M  V30 7 1 7 8
M  V30 8 1 8 9
M  V30 9 2 9 10
M  V30 10 1 10 11
M  V30 11 1 11 12
M  V30 12 2 12 13
M  V30 13 1 13 14
M  V30 14 2 14 15
M  V30 15 1 15 16
M  V30 16 2 16 17
M  V30 17 2 11 18
M  V30 18 1 18 19
M  V30 19 1 19 20
M  V30 20 1 20 21
M  V30 21 2 21 22
M  V30 22 1 22 23
M  V30 23 1 22 24
M  V30 24 1 24 25
M  V30 25 1 25 26
M  V30 26 1 26 27
M  V30 27 1 23 9
M  V30 28 1 17 12
M  V30 29 2 23 19
M  V30 30 1 27 21
M  V30 31 1 1 28
M  V30 32 1 1 29
M  V30 33 1 1 30
M  V30 34 1 2 31
M  V30 35 1 3 32
M  V30 36 1 3 33
M  V30 37 1 3 34
M  V30 38 1 4 35
M  V30 39 1 4 36
M  V30 40 1 5 37 CFG=1
M  V30 41 1 6 38
M  V30 42 1 6 39
M  V30 43 1 7 40
M  V30 44 1 7 41
M  V30 45 1 8 42
M  V30 46 1 13 43
M  V30 47 1 14 44
M  V30 48 1 16 45
M  V30 49 1 17 46
M  V30 50 1 24 47
M  V30 51 1 24 48
M  V30 52 1 25 49
M  V30 53 1 25 50
M  V30 54 1 26 51
M  V30 55 1 26 52
M  V30 56 1 27 53
M  V30 57 1 27 54
M  V30 END BOND
M  V30 END CTAB
M  END
>  <Dataset>  (966) 
ChEMBL_Kinases

>  <Ligand_Instance>  (966) 
nan

>  <PDB_ID>  (966) 
nan

>  <Standardized_SMILES>  (966) 
CC(C)C[C@@H](N)CNc1nc(-c2ccncc2)nc2sc3c(c12)CCCC3

>  <Name>  (966) 
nan

>  <Pocket>  (966) 
nan

>  <ATP_Site>  (966) 
nan

>  <Peripheral>  (966) 
nan

>  <Num_H_Atoms_ProtBoundConf>  (966) 
nan

>  <Num_Resolved_Atoms>  (966) 
nan

>  <Num_Not_Resolved_Atoms>  (966) 
nan

$$$$
CHEMBL371113
     RDKit          3D

  0  0  0  0  0  0  0  0  0  0999 V3000
M  V30 BEGIN CTAB
M  V30 COUNTS 44 47 0 0 0
M  V30 BEGIN ATOM
M  V30 1 C 1.404347 -2.682161 3.279489 0
M  V30 2 N 2.225133 -3.226018 2.207074 0
M  V30 3 C 2.332344 -4.571846 2.043739 0
M  V30 4 N 3.146246 -4.808568 0.990266 0
M  V30 5 C 3.555063 -3.623448 0.484002 0
M  V30 6 C 2.971855 -2.639164 1.253334 0
M  V30 7 C 2.994205 -1.152481 1.240221 0
M  V30 8 C 3.865270 -0.615015 0.136831 0
M  V30 9 N 3.846687 0.821671 0.180500 0
M  V30 10 C 2.760351 1.701328 -0.070388 0
M  V30 11 N 3.060488 3.023977 0.046320 0
M  V30 12 C 2.167813 3.972202 -0.188496 0
M  V30 13 C 0.909931 3.521473 -0.561300 0
M  V30 14 C 0.595124 2.159717 -0.682867 0
M  V30 15 C -0.783181 1.978853 -1.123154 0
M  V30 16 C -1.183574 2.776783 -2.283849 0
M  V30 17 N -1.518989 3.417711 -3.217161 0
M  V30 18 C -1.676844 1.175164 -0.602000 0
M  V30 19 N -1.549166 0.283390 0.506128 0
M  V30 20 C -2.698279 -0.416214 0.823460 0
M  V30 21 C -2.846028 -1.344022 1.866703 0
M  V30 22 C -4.063029 -1.946276 2.049746 0
M  V30 23 C -5.145527 -1.673600 1.248329 0
M  V30 24 C -5.051707 -0.770874 0.210006 0
M  V30 25 C -3.805609 -0.195032 0.070440 0
M  V30 26 S -3.361263 1.006126 -1.195530 0
M  V30 27 N 1.553122 1.233386 -0.427652 0
M  V30 28 H 2.041137 -2.708639 4.195365 0
M  V30 29 H 1.192986 -1.610235 3.083906 0
M  V30 30 H 0.446088 -3.212999 3.375376 0
M  V30 31 H 1.853499 -5.358401 2.646797 0
M  V30 32 H 4.193051 -3.354617 -0.334372 0
M  V30 33 H 1.940185 -0.811077 1.143582 0
M  V30 34 H 3.354465 -0.726999 2.190196 0
M  V30 35 H 4.857524 -1.066057 0.210787 0
M  V30 36 H 3.434978 -0.992910 -0.840238 0
M  V30 37 H 4.800303 1.204893 0.439308 0
M  V30 38 H 2.378189 5.029854 -0.108064 0
M  V30 39 H 0.187313 4.326622 -0.749679 0
M  V30 40 H -0.610499 0.237134 0.974040 0
M  V30 41 H -2.092630 -1.661129 2.575848 0
M  V30 42 H -4.270257 -2.677908 2.835292 0
M  V30 43 H -6.127084 -2.153682 1.388983 0
M  V30 44 H -5.886145 -0.541731 -0.433732 0
M  V30 END ATOM
M  V30 BEGIN BOND
M  V30 1 1 1 2
M  V30 2 1 2 3
M  V30 3 2 3 4
M  V30 4 1 4 5
M  V30 5 2 5 6
M  V30 6 1 6 7
M  V30 7 1 7 8
M  V30 8 1 8 9
M  V30 9 1 9 10
M  V30 10 2 10 11
M  V30 11 1 11 12
M  V30 12 2 12 13
M  V30 13 1 13 14
M  V30 14 1 14 15
M  V30 15 1 15 16
M  V30 16 3 16 17
M  V30 17 2 15 18
M  V30 18 1 18 19
M  V30 19 1 19 20
M  V30 20 2 20 21
M  V30 21 1 21 22
M  V30 22 2 22 23
M  V30 23 1 23 24
M  V30 24 2 24 25
M  V30 25 1 25 26
M  V30 26 2 14 27
M  V30 27 1 6 2
M  V30 28 1 27 10
M  V30 29 1 26 18
M  V30 30 1 25 20
M  V30 31 1 1 28
M  V30 32 1 1 29
M  V30 33 1 1 30
M  V30 34 1 3 31
M  V30 35 1 5 32
M  V30 36 1 7 33
M  V30 37 1 7 34
M  V30 38 1 8 35
M  V30 39 1 8 36
M  V30 40 1 9 37
M  V30 41 1 12 38
M  V30 42 1 13 39
M  V30 43 1 19 40
M  V30 44 1 21 41
M  V30 45 1 22 42
M  V30 46 1 23 43
M  V30 47 1 24 44
M  V30 END BOND
M  V30 END CTAB
M  END
>  <Dataset>  (967) 
ChEMBL_Kinases

>  <Ligand_Instance>  (967) 
nan

>  <PDB_ID>  (967) 
nan

>  <Standardized_SMILES>  (967) 
Cn1cncc1CCNc1nccc(/C(C#N)=C2\Nc3ccccc3S2)n1

>  <Name>  (967) 
nan

>  <Pocket>  (967) 
nan

>  <ATP_Site>  (967) 
nan

>  <Peripheral>  (967) 
nan

>  <Num_H_Atoms_ProtBoundConf>  (967) 
nan

>  <Num_Resolved_Atoms>  (967) 
nan

>  <Num_Not_Resolved_Atoms>  (967) 
nan

$$$$
CHEMBL371145
     RDKit          3D

  0  0  0  0  0  0  0  0  0  0999 V3000
M  V30 BEGIN CTAB
M  V30 COUNTS 73 77 0 0 0
M  V30 BEGIN ATOM
M  V30 1 C 2.876753 -4.560489 2.277576 0
M  V30 2 C 4.385231 -4.603380 2.425370 0
M  V30 3 C 4.769394 -3.807042 3.634006 0
M  V30 4 C 5.111627 -4.251384 1.157744 0
M  V30 5 N 4.804722 -2.989165 0.681735 0
M  V30 6 C 5.191902 -1.807487 1.320298 0
M  V30 7 C 3.988567 -0.843219 1.403472 0
M  V30 8 C 3.125046 -1.146254 0.238083 0
M  V30 9 C 2.105482 -0.127665 -0.078335 0
M  V30 10 N 0.846421 -0.471494 -0.443465 0
M  V30 11 C 0.100840 0.626711 -0.667426 0
M  V30 12 C -1.300874 0.687711 -1.079102 0
M  V30 13 C -1.447676 1.412535 -2.270326 0
M  V30 14 C -2.664468 1.618189 -2.883535 0
M  V30 15 C -3.760189 1.067348 -2.259885 0
M  V30 16 N -5.076441 1.043339 -2.531865 0
M  V30 17 C -5.707149 0.348546 -1.574259 0
M  V30 18 N -7.095099 0.215808 -1.658629 0
M  V30 19 N -4.873893 -0.114116 -0.640306 0
M  V30 20 S -5.186780 -1.066590 0.755905 0
M  V30 21 O -6.247576 -0.393526 1.629189 0
M  V30 22 O -3.981771 -1.178760 1.638271 0
M  V30 23 C -5.846764 -2.643915 0.337095 0
M  V30 24 C -5.889538 -3.547395 1.587733 0
M  V30 25 C -7.248074 -2.602915 -0.183119 0
M  V30 26 C -3.663927 0.344021 -1.082967 0
M  V30 27 C -2.433250 0.151450 -0.487562 0
M  V30 28 C 0.947357 1.716574 -0.426601 0
M  V30 29 C 0.529840 3.131424 -0.550066 0
M  V30 30 C 1.028639 4.052566 -1.442023 0
M  V30 31 C 0.496704 5.314055 -1.382336 0
M  V30 32 C -0.489213 5.620924 -0.465638 0
M  V30 33 C -0.995101 4.712252 0.427468 0
M  V30 34 C -0.462690 3.422778 0.378724 0
M  V30 35 N 2.138215 1.201621 -0.076586 0
M  V30 36 C 4.030802 -1.426500 -0.958682 0
M  V30 37 C 4.619567 -2.811663 -0.738794 0
M  V30 38 H 2.520718 -4.850193 1.287834 0
M  V30 39 H 2.374459 -5.205409 3.021256 0
M  V30 40 H 2.518314 -3.513887 2.475116 0
M  V30 41 H 4.581990 -5.699695 2.689624 0
M  V30 42 H 4.416007 -4.421177 4.518407 0
M  V30 43 H 5.877703 -3.725991 3.675280 0
M  V30 44 H 4.220347 -2.868375 3.701820 0
M  V30 45 H 4.891967 -5.090402 0.440069 0
M  V30 46 H 6.208305 -4.415334 1.393201 0
M  V30 47 H 5.891444 -1.258886 0.602031 0
M  V30 48 H 5.753593 -1.859811 2.246064 0
M  V30 49 H 4.366616 0.198796 1.428016 0
M  V30 50 H 3.459586 -1.096311 2.340990 0
M  V30 51 H 2.624562 -2.133833 0.415888 0
M  V30 52 H -0.621994 1.881178 -2.825512 0
M  V30 53 H -2.805997 2.163503 -3.789122 0
M  V30 54 H -7.994942 0.051451 -1.197148 0
M  V30 55 H -7.716257 0.283084 -2.489949 0
M  V30 56 H -5.123835 -3.136431 -0.340724 0
M  V30 57 H -6.242277 -4.531469 1.226787 0
M  V30 58 H -4.855165 -3.616294 1.990088 0
M  V30 59 H -6.616519 -3.168307 2.321719 0
M  V30 60 H -7.785163 -3.545989 0.125158 0
M  V30 61 H -7.797187 -1.763126 0.297723 0
M  V30 62 H -7.261728 -2.509045 -1.278123 0
M  V30 63 H -2.189909 -0.382746 0.418206 0
M  V30 64 H 1.793957 3.683144 -2.106780 0
M  V30 65 H 0.905432 6.030486 -2.098796 0
M  V30 66 H -0.838545 6.650858 -0.504875 0
M  V30 67 H -1.764906 5.062528 1.096379 0
M  V30 68 H -0.891131 2.741319 1.101386 0
M  V30 69 H 2.980505 1.763740 0.163979 0
M  V30 70 H 4.842812 -0.685823 -1.022639 0
M  V30 71 H 3.406368 -1.397445 -1.884430 0
M  V30 72 H 5.535002 -2.924735 -1.335974 0
M  V30 73 H 3.849966 -3.509890 -1.150984 0
M  V30 END ATOM
M  V30 BEGIN BOND
M  V30 1 1 1 2
M  V30 2 1 2 3
M  V30 3 1 2 4
M  V30 4 1 4 5
M  V30 5 1 5 6
M  V30 6 1 6 7
M  V30 7 1 7 8
M  V30 8 1 8 9
M  V30 9 2 9 10
M  V30 10 1 10 11
M  V30 11 1 11 12
M  V30 12 2 12 13
M  V30 13 1 13 14
M  V30 14 2 14 15
M  V30 15 1 15 16
M  V30 16 2 16 17
M  V30 17 1 17 18
M  V30 18 1 17 19
M  V30 19 1 19 20
M  V30 20 2 20 21
M  V30 21 2 20 22
M  V30 22 1 20 23
M  V30 23 1 23 24
M  V30 24 1 23 25
M  V30 25 1 19 26
M  V30 26 2 26 27
M  V30 27 2 11 28
M  V30 28 1 28 29
M  V30 29 2 29 30
M  V30 30 1 30 31
M  V30 31 2 31 32
M  V30 32 1 32 33
M  V30 33 2 33 34
M  V30 34 1 28 35
M  V30 35 1 8 36
M  V30 36 1 36 37
M  V30 37 1 37 5
M  V30 38 1 35 9
M  V30 39 1 27 12
M  V30 40 1 34 29
M  V30 41 1 26 15
M  V30 42 1 1 38
M  V30 43 1 1 39
M  V30 44 1 1 40
M  V30 45 1 2 41
M  V30 46 1 3 42
M  V30 47 1 3 43
M  V30 48 1 3 44
M  V30 49 1 4 45
M  V30 50 1 4 46
M  V30 51 1 6 47
M  V30 52 1 6 48
M  V30 53 1 7 49
M  V30 54 1 7 50
M  V30 55 1 8 51
M  V30 56 1 13 52
M  V30 57 1 14 53
M  V30 58 1 18 54
M  V30 59 1 18 55
M  V30 60 1 23 56
M  V30 61 1 24 57
M  V30 62 1 24 58
M  V30 63 1 24 59
M  V30 64 1 25 60
M  V30 65 1 25 61
M  V30 66 1 25 62
M  V30 67 1 27 63
M  V30 68 1 30 64
M  V30 69 1 31 65
M  V30 70 1 32 66
M  V30 71 1 33 67
M  V30 72 1 34 68
M  V30 73 1 35 69
M  V30 74 1 36 70
M  V30 75 1 36 71
M  V30 76 1 37 72
M  V30 77 1 37 73
M  V30 END BOND
M  V30 END CTAB
M  END
>  <Dataset>  (968) 
ChEMBL_Kinases

>  <Ligand_Instance>  (968) 
nan

>  <PDB_ID>  (968) 
nan

>  <Standardized_SMILES>  (968) 
CC(C)CN1CCC(c2nc(-c3ccc4nc(N)n(S(=O)(=O)C(C)C)c4c3)c(-c3ccccc3)[nH]2)CC1

>  <Name>  (968) 
nan

>  <Pocket>  (968) 
nan

>  <ATP_Site>  (968) 
nan

>  <Peripheral>  (968) 
nan

>  <Num_H_Atoms_ProtBoundConf>  (968) 
nan

>  <Num_Resolved_Atoms>  (968) 
nan

>  <Num_Not_Resolved_Atoms>  (968) 
nan

$$$$
CHEMBL3727390
     RDKit          3D

  0  0  0  0  0  0  0  0  0  0999 V3000
M  V30 BEGIN CTAB
M  V30 COUNTS 55 60 0 0 0
M  V30 BEGIN ATOM
M  V30 1 C 8.478254 -1.729089 3.750033 0
M  V30 2 C 9.647165 -1.586131 2.884646 0
M  V30 3 S 8.894994 -0.805523 1.367838 0
M  V30 4 C 7.270141 -0.754731 1.980845 0
M  V30 5 C 6.067217 -0.295644 1.327986 0
M  V30 6 C 4.866631 -0.283767 1.979732 0
M  V30 7 C 3.644805 0.097344 1.400169 0
M  V30 8 C 3.714966 0.484938 0.063696 0
M  V30 9 N 2.450249 0.781954 -0.509347 0
M  V30 10 C 1.169922 0.194101 -0.288038 0
M  V30 11 C -0.060018 0.356190 -0.923007 0
M  V30 12 C -1.046732 -0.398473 -0.316689 0
M  V30 13 C -2.407365 -0.213823 -0.953590 0
M  V30 14 N -3.473840 -0.624517 -0.229777 0
M  V30 15 C -4.683340 -0.513612 -0.813242 0
M  V30 16 N -5.961762 -0.802952 -0.341275 0
M  V30 17 C -6.103042 -1.327333 0.951813 0 CFG=2
M  V30 18 C -5.393361 -0.574001 2.059038 0
M  V30 19 C -4.430502 -1.577885 2.689732 0
M  V30 20 N -4.331840 -2.642890 1.675181 0
M  V30 21 C -5.700996 -2.758519 1.180471 0
M  V30 22 C -4.406227 -0.000287 -1.997864 0
M  V30 23 S -5.822710 0.186099 -3.193493 0
M  V30 24 C -4.784808 0.873784 -4.612347 0
M  V30 25 C -3.441286 0.926962 -4.115394 0
M  V30 26 C -3.650319 0.492950 -3.007556 0
M  V30 27 N -2.621003 0.216898 -2.059091 0
M  V30 28 C -0.961263 -1.216753 0.746209 0
M  V30 29 C 0.298063 -1.337275 1.339124 0
M  V30 30 N 1.246208 -0.612973 0.755800 0
M  V30 31 C 4.894587 0.495520 -0.646488 0
M  V30 32 C 6.034444 0.101402 0.022734 0
M  V30 33 C 7.337958 -1.281066 3.196216 0
M  V30 34 H 8.633224 -2.172900 4.737926 0
M  V30 35 H 10.665707 -1.938372 3.254917 0
M  V30 36 H 4.885922 -0.596381 3.032742 0
M  V30 37 H 2.851274 0.015950 2.111626 0
M  V30 38 H 2.601038 1.651905 -1.147468 0
M  V30 39 H -0.040524 1.013080 -1.736430 0
M  V30 40 H -6.823113 -0.654959 -0.906320 0
M  V30 41 H -7.212538 -1.269759 1.250970 0
M  V30 42 H -4.884891 0.330006 1.699541 0
M  V30 43 H -6.085848 -0.251620 2.857830 0
M  V30 44 H -3.449076 -1.137948 2.931538 0
M  V30 45 H -4.832216 -2.060982 3.599618 0
M  V30 46 H -3.976264 -3.516411 2.089354 0
M  V30 47 H -5.787200 -3.320540 0.255500 0
M  V30 48 H -6.332893 -3.150840 2.024574 0
M  V30 49 H -5.276294 1.132199 -5.569720 0
M  V30 50 H -2.690750 1.354735 -4.735700 0
M  V30 51 H -1.761250 -1.786590 1.179975 0
M  V30 52 H 0.413110 -1.984369 2.196103 0
M  V30 53 H 4.908292 0.794332 -1.673865 0
M  V30 54 H 6.935620 0.133867 -0.580588 0
M  V30 55 H 6.468564 -1.396237 3.871059 0
M  V30 END ATOM
M  V30 BEGIN BOND
M  V30 1 2 1 2
M  V30 2 1 2 3
M  V30 3 1 3 4
M  V30 4 1 4 5
M  V30 5 2 5 6
M  V30 6 1 6 7
M  V30 7 2 7 8
M  V30 8 1 8 9
M  V30 9 1 9 10
M  V30 10 2 10 11
M  V30 11 1 11 12
M  V30 12 1 12 13
M  V30 13 2 13 14
M  V30 14 1 14 15
M  V30 15 1 15 16
M  V30 16 1 16 17
M  V30 17 1 17 18
M  V30 18 1 18 19
M  V30 19 1 19 20
M  V30 20 1 20 21
M  V30 21 2 15 22
M  V30 22 1 22 23
M  V30 23 1 23 24
M  V30 24 2 24 25
M  V30 25 1 25 26
M  V30 26 2 26 27
M  V30 27 2 12 28
M  V30 28 1 28 29
M  V30 29 2 29 30
M  V30 30 1 8 31
M  V30 31 2 31 32
M  V30 32 2 4 33
M  V30 33 1 33 1
M  V30 34 1 32 5
M  V30 35 1 30 10
M  V30 36 1 27 13
M  V30 37 1 21 17
M  V30 38 1 26 22
M  V30 39 1 1 34
M  V30 40 1 2 35
M  V30 41 1 6 36
M  V30 42 1 7 37
M  V30 43 1 9 38
M  V30 44 1 11 39
M  V30 45 1 16 40
M  V30 46 1 17 41 CFG=1
M  V30 47 1 18 42
M  V30 48 1 18 43
M  V30 49 1 19 44
M  V30 50 1 19 45
M  V30 51 1 20 46
M  V30 52 1 21 47
M  V30 53 1 21 48
M  V30 54 1 24 49
M  V30 55 1 25 50
M  V30 56 1 28 51
M  V30 57 1 29 52
M  V30 58 1 31 53
M  V30 59 1 32 54
M  V30 60 1 33 55
M  V30 END BOND
M  V30 END CTAB
M  END
>  <Dataset>  (969) 
ChEMBL_Kinases

>  <Ligand_Instance>  (969) 
nan

>  <PDB_ID>  (969) 
nan

>  <Standardized_SMILES>  (969) 
c1csc(-c2ccc(Nc3cc(-c4nc(N[C@@H]5CCNC5)c5sccc5n4)ccn3)cc2)c1

>  <Name>  (969) 
nan

>  <Pocket>  (969) 
nan

>  <ATP_Site>  (969) 
nan

>  <Peripheral>  (969) 
nan

>  <Num_H_Atoms_ProtBoundConf>  (969) 
nan

>  <Num_Resolved_Atoms>  (969) 
nan

>  <Num_Not_Resolved_Atoms>  (969) 
nan

$$$$
CHEMBL371157
     RDKit          3D

  0  0  0  0  0  0  0  0  0  0999 V3000
M  V30 BEGIN CTAB
M  V30 COUNTS 57 60 0 0 0
M  V30 BEGIN ATOM
M  V30 1 C 0.947362 -3.013514 3.259716 0
M  V30 2 C 2.441593 -2.810066 3.313163 0
M  V30 3 O 2.994312 -3.824987 4.101219 0
M  V30 4 C 3.054030 -2.851639 1.908074 0 CFG=2
M  V30 5 C 4.551413 -2.894526 1.998067 0
M  V30 6 N 2.513689 -1.825743 1.068297 0
M  V30 7 C 2.730889 -0.527853 1.597713 0
M  V30 8 C 2.604481 0.601616 0.645844 0
M  V30 9 C 2.057264 0.310841 -0.701772 0
M  V30 10 C 0.547956 0.279984 -0.706409 0
M  V30 11 C -0.113256 1.312341 -1.390326 0
M  V30 12 C -1.492476 1.096930 -1.276503 0
M  V30 13 C -2.673854 1.802432 -1.753707 0
M  V30 14 C -2.764149 3.079393 -1.202001 0
M  V30 15 C -3.810439 3.943128 -1.510072 0
M  V30 16 N -4.758338 3.510834 -2.372306 0
M  V30 17 C -4.675150 2.278680 -2.907173 0
M  V30 18 C -3.650259 1.402329 -2.620767 0
M  V30 19 C -1.624928 -0.052144 -0.531334 0
M  V30 20 C -2.795163 -0.792510 -0.072448 0
M  V30 21 C -3.768497 -0.345930 0.799806 0
M  V30 22 C -4.808079 -1.184119 1.126711 0
M  V30 23 C -4.954349 -2.478178 0.631435 0
M  V30 24 F -6.006244 -3.250112 0.996144 0
M  V30 25 C -3.950381 -2.892746 -0.247753 0
M  V30 26 C -2.894555 -2.075035 -0.594875 0
M  V30 27 N -0.391579 -0.514186 -0.207433 0
M  V30 28 C 2.580284 -0.979453 -1.263685 0
M  V30 29 C 2.899072 -2.042194 -0.280139 0
M  V30 30 H 0.566197 -3.639706 4.095787 0
M  V30 31 H 0.371518 -2.061220 3.245565 0
M  V30 32 H 0.706244 -3.521461 2.303029 0
M  V30 33 H 2.690512 -1.839774 3.830702 0
M  V30 34 H 2.304342 -4.434878 4.461741 0
M  V30 35 H 2.768469 -3.880396 1.534419 0
M  V30 36 H 5.048241 -1.964376 2.256416 0
M  V30 37 H 4.998081 -3.401863 1.109726 0
M  V30 38 H 4.776943 -3.606716 2.847015 0
M  V30 39 H 3.729297 -0.436198 2.092881 0
M  V30 40 H 1.928672 -0.375482 2.384055 0
M  V30 41 H 1.964618 1.439625 1.064502 0
M  V30 42 H 3.597075 1.124697 0.496500 0
M  V30 43 H 2.404503 1.119669 -1.397854 0
M  V30 44 H 0.204706 2.191030 -1.953359 0
M  V30 45 H -2.066478 3.529359 -0.501255 0
M  V30 46 H -3.919473 4.931676 -1.108814 0
M  V30 47 H -5.424747 1.912012 -3.598060 0
M  V30 48 H -3.504299 0.406331 -3.000596 0
M  V30 49 H -3.641227 0.660606 1.174836 0
M  V30 50 H -5.547998 -0.769199 1.825634 0
M  V30 51 H -4.110431 -3.915424 -0.609054 0
M  V30 52 H -2.149787 -2.480056 -1.294798 0
M  V30 53 H -0.121062 -1.356190 0.344515 0
M  V30 54 H 3.432023 -0.787431 -1.960540 0
M  V30 55 H 1.748317 -1.401462 -1.909823 0
M  V30 56 H 2.494329 -3.055255 -0.568662 0
M  V30 57 H 4.022781 -2.165245 -0.280901 0
M  V30 END ATOM
M  V30 BEGIN BOND
M  V30 1 1 1 2
M  V30 2 1 2 3
M  V30 3 1 2 4
M  V30 4 1 4 5
M  V30 5 1 4 6
M  V30 6 1 6 7
M  V30 7 1 7 8
M  V30 8 1 8 9
M  V30 9 1 9 10
M  V30 10 2 10 11
M  V30 11 1 11 12
M  V30 12 1 12 13
M  V30 13 2 13 14
M  V30 14 1 14 15
M  V30 15 2 15 16
M  V30 16 1 16 17
M  V30 17 2 17 18
M  V30 18 2 12 19
M  V30 19 1 19 20
M  V30 20 2 20 21
M  V30 21 1 21 22
M  V30 22 2 22 23
M  V30 23 1 23 24
M  V30 24 1 23 25
M  V30 25 2 25 26
M  V30 26 1 19 27
M  V30 27 1 9 28
M  V30 28 1 28 29
M  V30 29 1 29 6
M  V30 30 1 27 10
M  V30 31 1 18 13
M  V30 32 1 26 20
M  V30 33 1 1 30
M  V30 34 1 1 31
M  V30 35 1 1 32
M  V30 36 1 2 33
M  V30 37 1 3 34
M  V30 38 1 4 35 CFG=3
M  V30 39 1 5 36
M  V30 40 1 5 37
M  V30 41 1 5 38
M  V30 42 1 7 39
M  V30 43 1 7 40
M  V30 44 1 8 41
M  V30 45 1 8 42
M  V30 46 1 9 43
M  V30 47 1 11 44
M  V30 48 1 14 45
M  V30 49 1 15 46
M  V30 50 1 17 47
M  V30 51 1 18 48
M  V30 52 1 21 49
M  V30 53 1 22 50
M  V30 54 1 25 51
M  V30 55 1 26 52
M  V30 56 1 27 53
M  V30 57 1 28 54
M  V30 58 1 28 55
M  V30 59 1 29 56
M  V30 60 1 29 57
M  V30 END BOND
M  V30 END CTAB
M  END
>  <Dataset>  (970) 
ChEMBL_Kinases

>  <Ligand_Instance>  (970) 
nan

>  <PDB_ID>  (970) 
nan

>  <Standardized_SMILES>  (970) 
CC(O)[C@H](C)N1CCC(c2cc(-c3ccncc3)c(-c3ccc(F)cc3)[nH]2)CC1

>  <Name>  (970) 
nan

>  <Pocket>  (970) 
nan

>  <ATP_Site>  (970) 
nan

>  <Peripheral>  (970) 
nan

>  <Num_H_Atoms_ProtBoundConf>  (970) 
nan

>  <Num_Resolved_Atoms>  (970) 
nan

>  <Num_Not_Resolved_Atoms>  (970) 
nan

$$$$
CHEMBL3727387
     RDKit          3D

  0  0  0  0  0  0  0  0  0  0999 V3000
M  V30 BEGIN CTAB
M  V30 COUNTS 40 43 0 0 0
M  V30 BEGIN ATOM
M  V30 1 N 1.584224 -2.699814 4.169768 0
M  V30 2 C 1.912112 -3.305767 2.891340 0
M  V30 3 C 1.874349 -2.260047 1.808310 0
M  V30 4 N 0.563667 -1.655402 1.703586 0
M  V30 5 C 0.305956 -0.627852 0.730900 0
M  V30 6 N 1.319438 -0.333341 -0.064251 0
M  V30 7 C 1.359326 0.535073 -1.063564 0
M  V30 8 C 2.486864 0.838456 -1.919836 0
M  V30 9 C 3.668096 0.156750 -1.687480 0
M  V30 10 C 4.784918 0.389923 -2.459530 0
M  V30 11 N 4.704101 1.297711 -3.448450 0
M  V30 12 C 3.543661 1.954376 -3.661979 0
M  V30 13 C 2.389269 1.771091 -2.929190 0
M  V30 14 N 0.200606 1.172399 -1.255373 0
M  V30 15 C -0.882458 0.926891 -0.482945 0
M  V30 16 S -2.534094 1.617191 -0.521450 0
M  V30 17 C -3.147918 0.664864 0.835694 0
M  V30 18 C -2.099098 -0.094279 1.225550 0
M  V30 19 C -0.902539 0.003365 0.571523 0
M  V30 20 C -2.433698 -0.938860 2.408154 0
M  V30 21 C -3.733940 -0.539552 3.027195 0
M  V30 22 O -4.731458 -0.436358 2.092386 0
M  V30 23 C -4.524289 0.734745 1.351311 0
M  V30 24 H 2.251690 -2.992655 4.914291 0
M  V30 25 H 0.608023 -2.882828 4.452558 0
M  V30 26 H 1.153989 -4.091186 2.681772 0
M  V30 27 H 2.915403 -3.730099 2.952918 0
M  V30 28 H 2.050487 -2.767978 0.828682 0
M  V30 29 H 2.673773 -1.504208 1.950113 0
M  V30 30 H -0.075024 -2.081088 2.388641 0
M  V30 31 H 3.826415 -0.590758 -0.914951 0
M  V30 32 H 5.750132 -0.072959 -2.376065 0
M  V30 33 H 3.496854 2.690471 -4.472384 0
M  V30 34 H 1.481582 2.314026 -3.129320 0
M  V30 35 H -1.665967 -0.750978 3.217410 0
M  V30 36 H -2.433797 -2.012179 2.135285 0
M  V30 37 H -4.006046 -1.319790 3.766849 0
M  V30 38 H -3.552553 0.409702 3.579980 0
M  V30 39 H -5.218073 0.706451 0.488090 0
M  V30 40 H -4.760504 1.656047 1.920289 0
M  V30 END ATOM
M  V30 BEGIN BOND
M  V30 1 1 1 2
M  V30 2 1 2 3
M  V30 3 1 3 4
M  V30 4 1 4 5
M  V30 5 2 5 6
M  V30 6 1 6 7
M  V30 7 1 7 8
M  V30 8 2 8 9
M  V30 9 1 9 10
M  V30 10 2 10 11
M  V30 11 1 11 12
M  V30 12 2 12 13
M  V30 13 2 7 14
M  V30 14 1 14 15
M  V30 15 1 15 16
M  V30 16 1 16 17
M  V30 17 2 17 18
M  V30 18 1 18 19
M  V30 19 1 18 20
M  V30 20 1 20 21
M  V30 21 1 21 22
M  V30 22 1 22 23
M  V30 23 1 19 5
M  V30 24 1 13 8
M  V30 25 2 19 15
M  V30 26 1 23 17
M  V30 27 1 1 24
M  V30 28 1 1 25
M  V30 29 1 2 26
M  V30 30 1 2 27
M  V30 31 1 3 28
M  V30 32 1 3 29
M  V30 33 1 4 30
M  V30 34 1 9 31
M  V30 35 1 10 32
M  V30 36 1 12 33
M  V30 37 1 13 34
M  V30 38 1 20 35
M  V30 39 1 20 36
M  V30 40 1 21 37
M  V30 41 1 21 38
M  V30 42 1 23 39
M  V30 43 1 23 40
M  V30 END BOND
M  V30 END CTAB
M  END
>  <Dataset>  (971) 
ChEMBL_Kinases

>  <Ligand_Instance>  (971) 
nan

>  <PDB_ID>  (971) 
nan

>  <Standardized_SMILES>  (971) 
NCCNc1nc(-c2ccncc2)nc2sc3c(c12)CCOC3

>  <Name>  (971) 
nan

>  <Pocket>  (971) 
nan

>  <ATP_Site>  (971) 
nan

>  <Peripheral>  (971) 
nan

>  <Num_H_Atoms_ProtBoundConf>  (971) 
nan

>  <Num_Resolved_Atoms>  (971) 
nan

>  <Num_Not_Resolved_Atoms>  (971) 
nan

$$$$
CHEMBL371188
     RDKit          3D

  0  0  0  0  0  0  0  0  0  0999 V3000
M  V30 BEGIN CTAB
M  V30 COUNTS 47 50 0 0 0
M  V30 BEGIN ATOM
M  V30 1 C 1.724491 -4.099577 5.455196 0
M  V30 2 C 2.296830 -2.722872 5.780642 0
M  V30 3 C 2.148348 -1.818731 4.579060 0
M  V30 4 N 2.654206 -1.470268 3.636122 0
M  V30 5 C 2.294019 -0.625060 2.701671 0
M  V30 6 C 3.070013 -0.254125 1.497808 0
M  V30 7 C 4.305224 0.334017 1.672585 0
M  V30 8 C 5.105617 0.718707 0.617958 0
M  V30 9 C 4.659459 0.510358 -0.675854 0
M  V30 10 C 3.425549 -0.076890 -0.864952 0
M  V30 11 C 2.634690 -0.457228 0.201203 0
M  V30 12 C 1.089454 -0.054648 2.890010 0
M  V30 13 C 0.351395 0.956085 2.033297 0
M  V30 14 C 0.768406 2.214128 1.758392 0
M  V30 15 C -0.030685 3.002680 0.956838 0
M  V30 16 N -1.184963 2.500884 0.480183 0
M  V30 17 C -1.591256 1.248883 0.758663 0
M  V30 18 N -2.842467 0.770638 0.215161 0
M  V30 19 C -2.578072 0.180113 -1.038117 0
M  V30 20 O -1.346377 0.212415 -1.371166 0
M  V30 21 C -3.529160 -0.434051 -1.947067 0
M  V30 22 C -3.009375 -0.931278 -3.125692 0
M  V30 23 C -3.885811 -1.533188 -4.034600 0
M  V30 24 C -5.248037 -1.639591 -3.779635 0
M  V30 25 C -5.698409 -1.114678 -2.569200 0
M  V30 26 C -4.861091 -0.512590 -1.646740 0
M  V30 27 C -0.818912 0.409496 1.565565 0
M  V30 28 S 0.550124 -0.795809 4.438415 0
M  V30 29 H 2.080741 -4.783784 6.225494 0
M  V30 30 H 0.619260 -3.977684 5.438941 0
M  V30 31 H 2.026369 -4.440539 4.456840 0
M  V30 32 H 1.692874 -2.316063 6.623738 0
M  V30 33 H 3.365100 -2.740181 5.980169 0
M  V30 34 H 4.733479 0.534702 2.633934 0
M  V30 35 H 6.084638 1.185238 0.731501 0
M  V30 36 H 5.253240 0.796139 -1.536945 0
M  V30 37 H 3.070897 -0.241531 -1.890284 0
M  V30 38 H 1.657641 -0.922697 0.068754 0
M  V30 39 H 1.708247 2.509099 2.193445 0
M  V30 40 H 0.320075 4.019720 0.742613 0
M  V30 41 H -3.858130 0.759181 0.518784 0
M  V30 42 H -1.980266 -0.905038 -3.429604 0
M  V30 43 H -3.530515 -1.938923 -4.973712 0
M  V30 44 H -5.910416 -2.108119 -4.494199 0
M  V30 45 H -6.763528 -1.206608 -2.388552 0
M  V30 46 H -5.234959 -0.112653 -0.713251 0
M  V30 47 H -1.197873 -0.572346 1.748186 0
M  V30 END ATOM
M  V30 BEGIN BOND
M  V30 1 1 1 2
M  V30 2 1 2 3
M  V30 3 2 3 4
M  V30 4 1 4 5
M  V30 5 1 5 6
M  V30 6 2 6 7
M  V30 7 1 7 8
M  V30 8 2 8 9
M  V30 9 1 9 10
M  V30 10 2 10 11
M  V30 11 2 5 12
M  V30 12 1 12 13
M  V30 13 2 13 14
M  V30 14 1 14 15
M  V30 15 2 15 16
M  V30 16 1 16 17
M  V30 17 1 17 18
M  V30 18 1 18 19
M  V30 19 2 19 20
M  V30 20 1 19 21
M  V30 21 2 21 22
M  V30 22 1 22 23
M  V30 23 2 23 24
M  V30 24 1 24 25
M  V30 25 2 25 26
M  V30 26 2 17 27
M  V30 27 1 12 28
M  V30 28 1 28 3
M  V30 29 1 11 6
M  V30 30 1 27 13
M  V30 31 1 26 21
M  V30 32 1 1 29
M  V30 33 1 1 30
M  V30 34 1 1 31
M  V30 35 1 2 32
M  V30 36 1 2 33
M  V30 37 1 7 34
M  V30 38 1 8 35
M  V30 39 1 9 36
M  V30 40 1 10 37
M  V30 41 1 11 38
M  V30 42 1 14 39
M  V30 43 1 15 40
M  V30 44 1 18 41
M  V30 45 1 22 42
M  V30 46 1 23 43
M  V30 47 1 24 44
M  V30 48 1 25 45
M  V30 49 1 26 46
M  V30 50 1 27 47
M  V30 END BOND
M  V30 END CTAB
M  END
>  <Dataset>  (972) 
ChEMBL_Kinases

>  <Ligand_Instance>  (972) 
nan

>  <PDB_ID>  (972) 
nan

>  <Standardized_SMILES>  (972) 
CCc1nc(-c2ccccc2)c(-c2ccnc(NC(=O)c3ccccc3)c2)s1

>  <Name>  (972) 
nan

>  <Pocket>  (972) 
nan

>  <ATP_Site>  (972) 
nan

>  <Peripheral>  (972) 
nan

>  <Num_H_Atoms_ProtBoundConf>  (972) 
nan

>  <Num_Resolved_Atoms>  (972) 
nan

>  <Num_Not_Resolved_Atoms>  (972) 
nan

$$$$
CHEMBL372708
     RDKit          3D

  0  0  0  0  0  0  0  0  0  0999 V3000
M  V30 BEGIN CTAB
M  V30 COUNTS 46 49 0 0 0
M  V30 BEGIN ATOM
M  V30 1 N 3.111959 -1.938804 4.044748 0
M  V30 2 C 2.804516 -1.157483 3.229530 0
M  V30 3 C 2.434942 -0.172658 2.233139 0
M  V30 4 C 3.167078 -0.070763 1.157941 0
M  V30 5 N 3.006093 0.805588 0.054005 0
M  V30 6 C 3.963144 0.700246 -0.973280 0
M  V30 7 C 4.027825 1.445078 -2.159628 0
M  V30 8 C 5.069643 1.154504 -3.018905 0
M  V30 9 C 6.042148 0.205355 -2.813691 0
M  V30 10 C 5.987794 -0.541632 -1.635900 0
M  V30 11 C 4.949348 -0.244521 -0.791393 0
M  V30 12 S 4.622901 -1.051685 0.801107 0
M  V30 13 C 1.282072 0.669119 2.506002 0
M  V30 14 C 1.117083 2.031868 2.403789 0
M  V30 15 C -0.083855 2.629707 2.686042 0
M  V30 16 N -1.096017 1.843477 3.066750 0
M  V30 17 C -0.995507 0.490367 3.187472 0
M  V30 18 N -2.106816 -0.298870 3.594564 0
M  V30 19 C -2.046583 -1.734999 3.743939 0
M  V30 20 C -1.664689 -2.463294 2.484419 0
M  V30 21 C -2.577704 -2.251938 1.359853 0
M  V30 22 C -2.374730 -1.212965 0.443168 0
M  V30 23 C -3.297304 -1.095614 -0.597107 0
M  V30 24 C -4.378002 -1.940702 -0.758025 0
M  V30 25 N -5.272112 -1.745170 -1.860433 0
M  V30 26 C -4.538124 -2.952427 0.172079 0
M  V30 27 C -3.660659 -3.129265 1.231524 0
M  V30 28 N 0.201891 -0.049467 2.899519 0
M  V30 29 H 2.201273 1.470847 0.047118 0
M  V30 30 H 3.315001 2.215425 -2.423140 0
M  V30 31 H 5.128935 1.734670 -3.954699 0
M  V30 32 H 6.834805 0.039892 -3.549272 0
M  V30 33 H 6.716046 -1.288128 -1.429874 0
M  V30 34 H 2.007618 2.560172 2.098007 0
M  V30 35 H -0.167423 3.701983 2.592459 0
M  V30 36 H -3.012188 0.226659 3.792296 0
M  V30 37 H -1.376496 -2.017786 4.588809 0
M  V30 38 H -3.091523 -2.092379 3.984281 0
M  V30 39 H -1.663332 -3.560403 2.746391 0
M  V30 40 H -0.626644 -2.226291 2.163072 0
M  V30 41 H -1.552079 -0.539441 0.534962 0
M  V30 42 H -3.090133 -0.263962 -1.288815 0
M  V30 43 H -4.997150 -2.040345 -2.840202 0
M  V30 44 H -6.228064 -1.326161 -1.861396 0
M  V30 45 H -5.372224 -3.634893 0.076724 0
M  V30 46 H -3.834460 -3.929381 1.919951 0
M  V30 END ATOM
M  V30 BEGIN BOND
M  V30 1 3 1 2
M  V30 2 1 2 3
M  V30 3 2 3 4
M  V30 4 1 4 5
M  V30 5 1 5 6
M  V30 6 2 6 7
M  V30 7 1 7 8
M  V30 8 2 8 9
M  V30 9 1 9 10
M  V30 10 2 10 11
M  V30 11 1 11 12
M  V30 12 1 3 13
M  V30 13 2 13 14
M  V30 14 1 14 15
M  V30 15 2 15 16
M  V30 16 1 16 17
M  V30 17 1 17 18
M  V30 18 1 18 19
M  V30 19 1 19 20
M  V30 20 1 20 21
M  V30 21 2 21 22
M  V30 22 1 22 23
M  V30 23 2 23 24
M  V30 24 1 24 25
M  V30 25 1 24 26
M  V30 26 2 26 27
M  V30 27 2 17 28
M  V30 28 1 12 4
M  V30 29 1 28 13
M  V30 30 1 11 6
M  V30 31 1 27 21
M  V30 32 1 5 29
M  V30 33 1 7 30
M  V30 34 1 8 31
M  V30 35 1 9 32
M  V30 36 1 10 33
M  V30 37 1 14 34
M  V30 38 1 15 35
M  V30 39 1 18 36
M  V30 40 1 19 37
M  V30 41 1 19 38
M  V30 42 1 20 39
M  V30 43 1 20 40
M  V30 44 1 22 41
M  V30 45 1 23 42
M  V30 46 1 25 43
M  V30 47 1 25 44
M  V30 48 1 26 45
M  V30 49 1 27 46
M  V30 END BOND
M  V30 END CTAB
M  END
>  <Dataset>  (973) 
ChEMBL_Kinases

>  <Ligand_Instance>  (973) 
nan

>  <PDB_ID>  (973) 
nan

>  <Standardized_SMILES>  (973) 
N#C/C(=C1/Nc2ccccc2S1)c1ccnc(NCCc2ccc(N)cc2)n1

>  <Name>  (973) 
nan

>  <Pocket>  (973) 
nan

>  <ATP_Site>  (973) 
nan

>  <Peripheral>  (973) 
nan

>  <Num_H_Atoms_ProtBoundConf>  (973) 
nan

>  <Num_Resolved_Atoms>  (973) 
nan

>  <Num_Not_Resolved_Atoms>  (973) 
nan

$$$$
CHEMBL3727431
     RDKit          3D

  0  0  0  0  0  0  0  0  0  0999 V3000
M  V30 BEGIN CTAB
M  V30 COUNTS 63 68 0 0 0
M  V30 BEGIN ATOM
M  V30 1 C 1.367807 -2.369955 2.209640 0
M  V30 2 C 1.597081 -1.036420 2.408091 0
M  V30 3 C 0.557722 -0.144072 2.497048 0
M  V30 4 C 0.877382 1.285085 2.710879 0
M  V30 5 N 2.189668 1.662183 2.813212 0
M  V30 6 C 2.401937 2.975511 3.004664 0
M  V30 7 N 3.692161 3.548017 3.135927 0
M  V30 8 C 4.779437 2.623269 3.056712 0 CFG=2
M  V30 9 C 6.125411 3.311541 3.200586 0
M  V30 10 C 7.038315 2.174127 2.724733 0
M  V30 11 N 6.342956 1.618554 1.588262 0
M  V30 12 C 4.940558 1.957725 1.710148 0
M  V30 13 C 1.312056 3.827202 3.082472 0
M  V30 14 S 1.269940 5.594600 3.328148 0
M  V30 15 C -0.629899 5.679091 3.268524 0
M  V30 16 C -0.993726 4.372463 3.071937 0
M  V30 17 C -0.002807 3.440146 2.978745 0
M  V30 18 N -0.171762 2.116420 2.787462 0
M  V30 19 C -0.733126 -0.613700 2.382721 0
M  V30 20 C -0.943519 -1.946077 2.185172 0
M  V30 21 N -2.231816 -2.533145 2.054945 0
M  V30 22 C -2.808642 -2.621669 0.757791 0
M  V30 23 C -2.124767 -2.092166 -0.325484 0
M  V30 24 C -2.634501 -2.150484 -1.607596 0
M  V30 25 C -3.864502 -2.765177 -1.757550 0
M  V30 26 C -4.361879 -2.790239 -3.178681 0
M  V30 27 N -3.915064 -3.958779 -3.869434 0
M  V30 28 C -4.333466 -4.080888 -5.229306 0
M  V30 29 C -3.791998 -5.473985 -5.576209 0
M  V30 30 C -3.620393 -6.191755 -4.250633 0
M  V30 31 C -4.184472 -5.201971 -3.223667 0
M  V30 32 C -4.597342 -3.312805 -0.720467 0
M  V30 33 C -4.034666 -3.224315 0.546038 0
M  V30 34 N 0.086902 -2.822606 2.098153 0
M  V30 35 H 2.228468 -3.051810 2.144357 0
M  V30 36 H 2.600217 -0.677076 2.495902 0
M  V30 37 H 3.834327 4.564004 3.278490 0
M  V30 38 H 4.635380 1.870515 3.861515 0
M  V30 39 H 6.364573 3.607968 4.234051 0
M  V30 40 H 6.207899 4.107115 2.452306 0
M  V30 41 H 6.984112 1.406191 3.541518 0
M  V30 42 H 8.056823 2.519256 2.508390 0
M  V30 43 H 6.444997 0.595012 1.500964 0
M  V30 44 H 4.693304 2.668137 0.911835 0
M  V30 45 H 4.310288 1.043289 1.692219 0
M  V30 46 H -1.240384 6.593369 3.373556 0
M  V30 47 H -2.056067 4.194696 3.007035 0
M  V30 48 H -1.558162 0.069949 2.449458 0
M  V30 49 H -2.757665 -2.896365 2.879323 0
M  V30 50 H -1.154232 -1.612896 -0.170853 0
M  V30 51 H -2.081796 -1.730059 -2.434615 0
M  V30 52 H -4.071433 -1.881482 -3.705873 0
M  V30 53 H -5.492015 -2.821363 -3.207051 0
M  V30 54 H -5.442088 -4.069707 -5.346104 0
M  V30 55 H -3.826220 -3.292046 -5.827477 0
M  V30 56 H -4.529159 -6.005936 -6.231108 0
M  V30 57 H -2.815532 -5.314082 -6.095099 0
M  V30 58 H -2.519351 -6.325141 -4.057282 0
M  V30 59 H -4.118261 -7.169933 -4.205061 0
M  V30 60 H -5.262349 -5.423751 -3.063397 0
M  V30 61 H -3.576043 -5.344836 -2.302153 0
M  V30 62 H -5.558568 -3.779383 -0.918804 0
M  V30 63 H -4.557512 -3.631928 1.391269 0
M  V30 END ATOM
M  V30 BEGIN BOND
M  V30 1 2 1 2
M  V30 2 1 2 3
M  V30 3 1 3 4
M  V30 4 2 4 5
M  V30 5 1 5 6
M  V30 6 1 6 7
M  V30 7 1 7 8
M  V30 8 1 8 9
M  V30 9 1 9 10
M  V30 10 1 10 11
M  V30 11 1 11 12
M  V30 12 2 6 13
M  V30 13 1 13 14
M  V30 14 1 14 15
M  V30 15 2 15 16
M  V30 16 1 16 17
M  V30 17 2 17 18
M  V30 18 2 3 19
M  V30 19 1 19 20
M  V30 20 1 20 21
M  V30 21 1 21 22
M  V30 22 2 22 23
M  V30 23 1 23 24
M  V30 24 2 24 25
M  V30 25 1 25 26
M  V30 26 1 26 27
M  V30 27 1 27 28
M  V30 28 1 28 29
M  V30 29 1 29 30
M  V30 30 1 30 31
M  V30 31 1 25 32
M  V30 32 2 32 33
M  V30 33 2 20 34
M  V30 34 1 34 1
M  V30 35 1 18 4
M  V30 36 1 33 22
M  V30 37 1 12 8
M  V30 38 1 17 13
M  V30 39 1 31 27
M  V30 40 1 1 35
M  V30 41 1 2 36
M  V30 42 1 7 37
M  V30 43 1 8 38 CFG=1
M  V30 44 1 9 39
M  V30 45 1 9 40
M  V30 46 1 10 41
M  V30 47 1 10 42
M  V30 48 1 11 43
M  V30 49 1 12 44
M  V30 50 1 12 45
M  V30 51 1 15 46
M  V30 52 1 16 47
M  V30 53 1 19 48
M  V30 54 1 21 49
M  V30 55 1 23 50
M  V30 56 1 24 51
M  V30 57 1 26 52
M  V30 58 1 26 53
M  V30 59 1 28 54
M  V30 60 1 28 55
M  V30 61 1 29 56
M  V30 62 1 29 57
M  V30 63 1 30 58
M  V30 64 1 30 59
M  V30 65 1 31 60
M  V30 66 1 31 61
M  V30 67 1 32 62
M  V30 68 1 33 63
M  V30 END BOND
M  V30 END CTAB
M  END
>  <Dataset>  (974) 
ChEMBL_Kinases

>  <Ligand_Instance>  (974) 
nan

>  <PDB_ID>  (974) 
nan

>  <Standardized_SMILES>  (974) 
c1cc(-c2nc(N[C@@H]3CCNC3)c3sccc3n2)cc(Nc2ccc(CN3CCCC3)cc2)n1

>  <Name>  (974) 
nan

>  <Pocket>  (974) 
nan

>  <ATP_Site>  (974) 
nan

>  <Peripheral>  (974) 
nan

>  <Num_H_Atoms_ProtBoundConf>  (974) 
nan

>  <Num_Resolved_Atoms>  (974) 
nan

>  <Num_Not_Resolved_Atoms>  (974) 
nan

$$$$
CHEMBL565076
     RDKit          3D

  0  0  0  0  0  0  0  0  0  0999 V3000
M  V30 BEGIN CTAB
M  V30 COUNTS 36 39 0 0 0
M  V30 BEGIN ATOM
M  V30 1 C -1.209003 -4.193722 4.192910 0
M  V30 2 N -1.926139 -3.392952 3.241026 0
M  V30 3 C -1.443772 -2.437678 2.302228 0
M  V30 4 N -0.122658 -2.183971 2.228312 0
M  V30 5 C 0.384018 -1.285411 1.353018 0
M  V30 6 N 1.627225 -0.827867 1.052172 0
M  V30 7 C 1.570443 0.091824 0.071673 0
M  V30 8 C 2.749972 0.786696 -0.489411 0
M  V30 9 C 3.987328 0.467225 0.030242 0
M  V30 10 C 5.098427 1.127122 -0.503977 0
M  V30 11 C 4.918362 2.057474 -1.513946 0
M  V30 12 C 3.674702 2.367412 -2.024442 0
M  V30 13 C 2.560558 1.714121 -1.497657 0
M  V30 14 C 0.255995 0.273406 -0.313532 0
M  V30 15 C -0.450629 -0.591643 0.496961 0
M  V30 16 C -1.823731 -0.859339 0.578017 0
M  V30 17 C -2.329897 -1.778041 1.474681 0
M  V30 18 N -3.664570 -1.807923 1.310012 0
M  V30 19 C -4.027544 -0.938546 0.337687 0
M  V30 20 N -2.873334 -0.362694 -0.101286 0
M  V30 21 C -2.797537 0.634312 -1.144002 0
M  V30 22 H -1.525796 -3.938377 5.224022 0
M  V30 23 H -0.105547 -4.118877 4.091482 0
M  V30 24 H -1.440088 -5.266534 3.961746 0
M  V30 25 H -2.948277 -3.593482 3.302674 0
M  V30 26 H 2.464327 -1.185479 1.553255 0
M  V30 27 H 4.138987 -0.257175 0.818298 0
M  V30 28 H 6.119810 0.941869 -0.157948 0
M  V30 29 H 5.761495 2.584802 -1.947421 0
M  V30 30 H 3.511166 3.092307 -2.814762 0
M  V30 31 H 1.563538 1.936910 -1.879766 0
M  V30 32 H -0.075618 0.941512 -1.068504 0
M  V30 33 H -5.015810 -0.716250 -0.042581 0
M  V30 34 H -2.423707 1.594167 -0.758298 0
M  V30 35 H -2.174786 0.202439 -1.967040 0
M  V30 36 H -3.794244 0.795494 -1.600858 0
M  V30 END ATOM
M  V30 BEGIN BOND
M  V30 1 1 1 2
M  V30 2 1 2 3
M  V30 3 2 3 4
M  V30 4 1 4 5
M  V30 5 1 5 6
M  V30 6 1 6 7
M  V30 7 1 7 8
M  V30 8 2 8 9
M  V30 9 1 9 10
M  V30 10 2 10 11
M  V30 11 1 11 12
M  V30 12 2 12 13
M  V30 13 2 7 14
M  V30 14 1 14 15
M  V30 15 1 15 16
M  V30 16 2 16 17
M  V30 17 1 17 18
M  V30 18 2 18 19
M  V30 19 1 19 20
M  V30 20 1 20 21
M  V30 21 1 17 3
M  V30 22 2 15 5
M  V30 23 1 20 16
M  V30 24 1 13 8
M  V30 25 1 1 22
M  V30 26 1 1 23
M  V30 27 1 1 24
M  V30 28 1 2 25
M  V30 29 1 6 26
M  V30 30 1 9 27
M  V30 31 1 10 28
M  V30 32 1 11 29
M  V30 33 1 12 30
M  V30 34 1 13 31
M  V30 35 1 14 32
M  V30 36 1 19 33
M  V30 37 1 21 34
M  V30 38 1 21 35
M  V30 39 1 21 36
M  V30 END BOND
M  V30 END CTAB
M  END
>  <Dataset>  (975) 
ChEMBL_Kinases

>  <Ligand_Instance>  (975) 
nan

>  <PDB_ID>  (975) 
nan

>  <Standardized_SMILES>  (975) 
CNc1nc2[nH]c(-c3ccccc3)cc2c2c1ncn2C

>  <Name>  (975) 
nan

>  <Pocket>  (975) 
nan

>  <ATP_Site>  (975) 
nan

>  <Peripheral>  (975) 
nan

>  <Num_H_Atoms_ProtBoundConf>  (975) 
nan

>  <Num_Resolved_Atoms>  (975) 
nan

>  <Num_Not_Resolved_Atoms>  (975) 
nan

$$$$
CHEMBL565088
     RDKit          3D

  0  0  0  0  0  0  0  0  0  0999 V3000
M  V30 BEGIN CTAB
M  V30 COUNTS 59 64 0 0 0
M  V30 BEGIN ATOM
M  V30 1 C 1.757221 -3.609623 2.359039 0
M  V30 2 C 1.608300 -2.219657 1.848079 0
M  V30 3 C 2.541069 -1.262624 2.192367 0
M  V30 4 C 2.456460 0.061069 1.744237 0
M  V30 5 O 3.422361 0.955873 2.129198 0
M  V30 6 C 1.389008 0.427364 0.918260 0
M  V30 7 C 1.289081 1.824777 0.437984 0
M  V30 8 C 1.178921 2.834180 1.553240 0
M  V30 9 C 1.155111 4.204656 0.935051 0
M  V30 10 C 2.333971 4.491311 0.041265 0
M  V30 11 C 2.337360 3.492986 -1.087212 0
M  V30 12 C 1.071287 3.680027 -1.880166 0
M  V30 13 C -0.096656 3.342940 -0.965618 0
M  V30 14 C -0.122007 4.366254 0.139169 0
M  V30 15 C 0.033834 1.948143 -0.404034 0
M  V30 16 C 2.457585 2.126939 -0.466376 0
M  V30 17 C 0.447206 -0.528278 0.567486 0
M  V30 18 C 0.554953 -1.826863 1.023751 0
M  V30 19 C -0.387922 -2.897600 0.706258 0
M  V30 20 C -0.051991 -3.611100 -0.448677 0
M  V30 21 C -0.880289 -4.645471 -0.836150 0
M  V30 22 C -1.997136 -4.933167 -0.076626 0
M  V30 23 C -2.795043 -5.976426 -0.504098 0
M  V30 24 C -3.927318 -6.287103 0.243930 0
M  V30 25 C -4.861439 -7.359981 -0.084572 0
M  V30 26 O -5.893553 -7.685285 0.548544 0
M  V30 27 O -4.831129 -8.252427 -1.147739 0
M  V30 28 C -4.270872 -5.591042 1.386125 0
M  V30 29 C -3.473671 -4.548016 1.814017 0
M  V30 30 C -2.351342 -4.242179 1.070117 0
M  V30 31 C -1.512178 -3.210015 1.444404 0
M  V30 32 Cl -1.814821 -2.247689 2.854920 0
M  V30 33 H 1.179103 -4.328292 1.707213 0
M  V30 34 H 1.476087 -3.726233 3.415790 0
M  V30 35 H 2.809515 -3.978128 2.273637 0
M  V30 36 H 3.368084 -1.533520 2.828491 0
M  V30 37 H 4.407969 0.847761 1.914771 0
M  V30 38 H 0.222755 2.702831 2.083254 0
M  V30 39 H 1.992276 2.808754 2.280300 0
M  V30 40 H 1.195018 4.952362 1.755944 0
M  V30 41 H 3.265291 4.463416 0.610679 0
M  V30 42 H 2.140896 5.493670 -0.403186 0
M  V30 43 H 3.197388 3.633323 -1.771114 0
M  V30 44 H 1.024691 3.043364 -2.786413 0
M  V30 45 H 0.981063 4.765734 -2.103910 0
M  V30 46 H -1.077306 3.412835 -1.486260 0
M  V30 47 H -0.985375 4.245892 0.816913 0
M  V30 48 H -0.119958 5.382415 -0.317830 0
M  V30 49 H -0.873152 1.737248 0.183027 0
M  V30 50 H 0.179691 1.267605 -1.272365 0
M  V30 51 H 3.436745 2.114251 0.063800 0
M  V30 52 H 2.482836 1.355561 -1.262717 0
M  V30 53 H -0.391454 -0.281975 -0.069188 0
M  V30 54 H 0.820382 -3.396491 -1.053651 0
M  V30 55 H -0.638446 -5.212030 -1.728876 0
M  V30 56 H -2.627227 -6.588305 -1.376870 0
M  V30 57 H -4.734708 -9.254783 -1.044002 0
M  V30 58 H -5.137572 -5.801906 1.989911 0
M  V30 59 H -3.692082 -3.962265 2.706029 0
M  V30 END ATOM
M  V30 BEGIN BOND
M  V30 1 1 1 2
M  V30 2 2 2 3
M  V30 3 1 3 4
M  V30 4 1 4 5
M  V30 5 2 4 6
M  V30 6 1 6 7
M  V30 7 1 7 8
M  V30 8 1 8 9
M  V30 9 1 9 10
M  V30 10 1 10 11
M  V30 11 1 11 12
M  V30 12 1 12 13
M  V30 13 1 13 14
M  V30 14 1 13 15
M  V30 15 1 11 16
M  V30 16 1 6 17
M  V30 17 2 17 18
M  V30 18 1 18 19
M  V30 19 2 19 20
M  V30 20 1 20 21
M  V30 21 2 21 22
M  V30 22 1 22 23
M  V30 23 2 23 24
M  V30 24 1 24 25
M  V30 25 2 25 26
M  V30 26 1 25 27
M  V30 27 1 24 28
M  V30 28 2 28 29
M  V30 29 1 29 30
M  V30 30 2 30 31
M  V30 31 1 31 32
M  V30 32 1 18 2
M  V30 33 1 31 19
M  V30 34 1 15 7
M  V30 35 1 30 22
M  V30 36 1 16 7
M  V30 37 1 14 9
M  V30 38 1 1 33
M  V30 39 1 1 34
M  V30 40 1 1 35
M  V30 41 1 3 36
M  V30 42 1 5 37
M  V30 43 1 8 38
M  V30 44 1 8 39
M  V30 45 1 9 40
M  V30 46 1 10 41
M  V30 47 1 10 42
M  V30 48 1 11 43
M  V30 49 1 12 44
M  V30 50 1 12 45
M  V30 51 1 13 46
M  V30 52 1 14 47
M  V30 53 1 14 48
M  V30 54 1 15 49
M  V30 55 1 15 50
M  V30 56 1 16 51
M  V30 57 1 16 52
M  V30 58 1 17 53
M  V30 59 1 20 54
M  V30 60 1 21 55
M  V30 61 1 23 56
M  V30 62 1 27 57
M  V30 63 1 28 58
M  V30 64 1 29 59
M  V30 END BOND
M  V30 END CTAB
M  END
>  <Dataset>  (976) 
ChEMBL_Kinases

>  <Ligand_Instance>  (976) 
nan

>  <PDB_ID>  (976) 
nan

>  <Standardized_SMILES>  (976) 
Cc1cc(O)c(C23CC4CC(CC(C4)C2)C3)cc1-c1ccc2cc(C(=O)O)ccc2c1Cl

>  <Name>  (976) 
nan

>  <Pocket>  (976) 
nan

>  <ATP_Site>  (976) 
nan

>  <Peripheral>  (976) 
nan

>  <Num_H_Atoms_ProtBoundConf>  (976) 
nan

>  <Num_Resolved_Atoms>  (976) 
nan

>  <Num_Not_Resolved_Atoms>  (976) 
nan

$$$$
CHEMBL565272
     RDKit          3D

  0  0  0  0  0  0  0  0  0  0999 V3000
M  V30 BEGIN CTAB
M  V30 COUNTS 41 44 0 0 0
M  V30 BEGIN ATOM
M  V30 1 C 2.012390 -4.742418 4.615619 0
M  V30 2 O 0.710581 -4.993345 4.133829 0
M  V30 3 C 0.091531 -4.133579 3.207658 0
M  V30 4 C 0.865113 -3.054960 2.832180 0
M  V30 5 C 0.321471 -2.171965 1.928194 0
M  V30 6 O 0.775649 -1.065727 1.371262 0
M  V30 7 C -0.147229 -0.578909 0.556906 0
M  V30 8 C -0.327100 0.490638 -0.295129 0
M  V30 9 N 0.583947 1.523996 -0.570937 0
M  V30 10 C 0.296982 2.614048 -1.490635 0
M  V30 11 C 1.456730 3.555404 -1.561935 0
M  V30 12 C 1.586575 4.396299 -0.489797 0
M  V30 13 Cl 0.502381 4.398578 0.868425 0
M  V30 14 C 2.629785 5.301001 -0.466332 0
M  V30 15 C 3.514707 5.320239 -1.544909 0
M  V30 16 C 3.391040 4.477778 -2.627243 0
M  V30 17 C 2.334193 3.574417 -2.631636 0
M  V30 18 Cl 2.088224 2.456948 -3.963981 0
M  V30 19 N -1.557658 0.322987 -0.799230 0
M  V30 20 N -2.125966 -0.779958 -0.302599 0
M  V30 21 C -1.273146 -1.372804 0.551116 0
M  V30 22 C -0.968646 -2.393485 1.431799 0
M  V30 23 C -1.720205 -3.482100 1.825543 0
M  V30 24 C -1.179313 -4.388885 2.745211 0
M  V30 25 O -1.897490 -5.497992 3.170197 0
M  V30 26 C -3.199602 -5.676904 2.635935 0
M  V30 27 H 2.755800 -4.733679 3.814831 0
M  V30 28 H 1.990555 -3.689872 5.025581 0
M  V30 29 H 2.223013 -5.383940 5.473039 0
M  V30 30 H 1.854086 -2.836962 3.178304 0
M  V30 31 H 1.529624 1.518991 -0.090544 0
M  V30 32 H 0.175471 2.157155 -2.503679 0
M  V30 33 H -0.617675 3.143155 -1.201231 0
M  V30 34 H 2.768506 5.989109 0.369597 0
M  V30 35 H 4.321440 6.054920 -1.475357 0
M  V30 36 H 4.090027 4.510094 -3.453944 0
M  V30 37 H -3.079339 -1.186691 -0.496328 0
M  V30 38 H -2.714211 -3.628715 1.425917 0
M  V30 39 H -3.778621 -4.739401 2.790808 0
M  V30 40 H -3.039060 -5.787152 1.523389 0
M  V30 41 H -3.691726 -6.582364 3.045188 0
M  V30 END ATOM
M  V30 BEGIN BOND
M  V30 1 1 1 2
M  V30 2 1 2 3
M  V30 3 2 3 4
M  V30 4 1 4 5
M  V30 5 1 5 6
M  V30 6 1 6 7
M  V30 7 1 7 8
M  V30 8 1 8 9
M  V30 9 1 9 10
M  V30 10 1 10 11
M  V30 11 2 11 12
M  V30 12 1 12 13
M  V30 13 1 12 14
M  V30 14 2 14 15
M  V30 15 1 15 16
M  V30 16 2 16 17
M  V30 17 1 17 18
M  V30 18 2 8 19
M  V30 19 1 19 20
M  V30 20 1 20 21
M  V30 21 1 21 22
M  V30 22 1 22 23
M  V30 23 2 23 24
M  V30 24 1 24 25
M  V30 25 1 25 26
M  V30 26 1 24 3
M  V30 27 2 22 5
M  V30 28 2 21 7
M  V30 29 1 17 11
M  V30 30 1 1 27
M  V30 31 1 1 28
M  V30 32 1 1 29
M  V30 33 1 4 30
M  V30 34 1 9 31
M  V30 35 1 10 32
M  V30 36 1 10 33
M  V30 37 1 14 34
M  V30 38 1 15 35
M  V30 39 1 16 36
M  V30 40 1 20 37
M  V30 41 1 23 38
M  V30 42 1 26 39
M  V30 43 1 26 40
M  V30 44 1 26 41
M  V30 END BOND
M  V30 END CTAB
M  END
>  <Dataset>  (977) 
ChEMBL_Kinases

>  <Ligand_Instance>  (977) 
nan

>  <PDB_ID>  (977) 
nan

>  <Standardized_SMILES>  (977) 
COc1cc2oc3c(NCc4c(Cl)cccc4Cl)n[nH]c3c2cc1OC

>  <Name>  (977) 
nan

>  <Pocket>  (977) 
nan

>  <ATP_Site>  (977) 
nan

>  <Peripheral>  (977) 
nan

>  <Num_H_Atoms_ProtBoundConf>  (977) 
nan

>  <Num_Resolved_Atoms>  (977) 
nan

>  <Num_Not_Resolved_Atoms>  (977) 
nan

$$$$
CHEMBL565353
     RDKit          3D

  0  0  0  0  0  0  0  0  0  0999 V3000
M  V30 BEGIN CTAB
M  V30 COUNTS 64 68 0 0 0
M  V30 BEGIN ATOM
M  V30 1 C 2.290099 2.254218 4.810049 0
M  V30 2 C 1.289444 1.227927 4.468831 0
M  V30 3 C 1.518146 0.291059 3.449767 0
M  V30 4 N 2.694063 0.245419 2.656497 0
M  V30 5 C 3.570210 0.934065 1.841689 0
M  V30 6 C 4.755586 1.194321 2.516625 0
M  V30 7 C 5.069057 0.727725 3.865060 0
M  V30 8 N 5.301306 0.346464 4.948868 0
M  V30 9 C 5.826490 1.913073 1.988573 0
M  V30 10 N 5.671574 2.370533 0.740072 0
M  V30 11 C 4.559186 2.155186 0.032839 0
M  V30 12 C 3.509422 1.441293 0.571602 0
M  V30 13 C 2.354720 1.188365 -0.247265 0
M  V30 14 C 1.253381 0.538335 -0.269674 0
M  V30 15 C 0.174022 0.411381 -1.232628 0
M  V30 16 C 0.243288 1.098162 -2.423258 0
M  V30 17 C -0.782193 0.972581 -3.334880 0
M  V30 18 C -1.832220 0.152543 -2.991594 0
M  V30 19 C -1.957851 -0.557840 -1.821383 0
M  V30 20 O -2.919239 -1.394272 -1.356606 0
M  V30 21 C -4.111754 -1.851468 -1.887476 0
M  V30 22 C -3.987987 -2.651024 -3.135634 0
M  V30 23 N -3.258653 -3.802169 -3.139742 0
M  V30 24 C -3.500857 -4.998213 -2.527862 0
M  V30 25 C -3.078035 -6.126909 -3.439772 0
M  V30 26 C -2.301581 -5.407369 -4.516557 0
M  V30 27 C -2.211507 -3.956841 -4.082065 0
M  V30 28 C -0.889256 -0.397407 -0.925334 0
M  V30 29 C 0.466525 -0.605390 3.232545 0
M  V30 30 C -0.722574 -0.643619 3.905769 0
M  V30 31 C -0.854324 0.312852 4.886212 0
M  V30 32 N -1.866307 0.569266 5.732856 0
M  V30 33 C -1.621101 1.600998 6.559802 0
M  V30 34 C -0.356883 2.038172 6.216581 0
M  V30 35 C 0.108195 1.242518 5.188211 0
M  V30 36 H 3.026370 1.888673 5.538098 0
M  V30 37 H 1.747876 3.104547 5.320078 0
M  V30 38 H 2.756193 2.709671 3.897889 0
M  V30 39 H 3.034597 -0.762700 2.732869 0
M  V30 40 H 6.748467 2.132541 2.475914 0
M  V30 41 H 4.530017 2.558414 -0.952768 0
M  V30 42 H 2.342522 1.715492 -1.216344 0
M  V30 43 H 1.218918 -0.012610 0.654780 0
M  V30 44 H 1.044290 1.752359 -2.736675 0
M  V30 45 H -0.812546 1.474182 -4.294086 0
M  V30 46 H -2.644289 0.051226 -3.683110 0
M  V30 47 H -4.731899 -0.928029 -2.091347 0
M  V30 48 H -4.665151 -2.354175 -1.073827 0
M  V30 49 H -5.065588 -2.902237 -3.432262 0
M  V30 50 H -3.670260 -1.994600 -3.965269 0
M  V30 51 H -4.502312 -5.172951 -2.080188 0
M  V30 52 H -2.819010 -5.080662 -1.625359 0
M  V30 53 H -2.371191 -6.831952 -2.957613 0
M  V30 54 H -3.932855 -6.701993 -3.846474 0
M  V30 55 H -2.833107 -5.522703 -5.483912 0
M  V30 56 H -1.258388 -5.762743 -4.634714 0
M  V30 57 H -2.420873 -3.285410 -4.965076 0
M  V30 58 H -1.203283 -3.718400 -3.675512 0
M  V30 59 H -0.872330 -0.905884 0.034333 0
M  V30 60 H 0.549111 -1.387648 2.456290 0
M  V30 61 H -1.499601 -1.362233 3.691032 0
M  V30 62 H -2.758457 0.035830 5.762199 0
M  V30 63 H -2.290882 1.980472 7.317739 0
M  V30 64 H 0.161735 2.864209 6.686314 0
M  V30 END ATOM
M  V30 BEGIN BOND
M  V30 1 1 1 2
M  V30 2 2 2 3
M  V30 3 1 3 4
M  V30 4 1 4 5
M  V30 5 2 5 6
M  V30 6 1 6 7
M  V30 7 3 7 8
M  V30 8 1 6 9
M  V30 9 2 9 10
M  V30 10 1 10 11
M  V30 11 2 11 12
M  V30 12 1 12 13
M  V30 13 2 13 14
M  V30 14 1 14 15
M  V30 15 2 15 16
M  V30 16 1 16 17
M  V30 17 2 17 18
M  V30 18 1 18 19
M  V30 19 1 19 20
M  V30 20 1 20 21
M  V30 21 1 21 22
M  V30 22 1 22 23
M  V30 23 1 23 24
M  V30 24 1 24 25
M  V30 25 1 25 26
M  V30 26 1 26 27
M  V30 27 2 19 28
M  V30 28 1 3 29
M  V30 29 2 29 30
M  V30 30 1 30 31
M  V30 31 1 31 32
M  V30 32 1 32 33
M  V30 33 2 33 34
M  V30 34 1 34 35
M  V30 35 1 35 2
M  V30 36 1 12 5
M  V30 37 1 28 15
M  V30 38 2 35 31
M  V30 39 1 27 23
M  V30 40 1 1 36
M  V30 41 1 1 37
M  V30 42 1 1 38
M  V30 43 1 4 39
M  V30 44 1 9 40
M  V30 45 1 11 41
M  V30 46 1 13 42
M  V30 47 1 14 43
M  V30 48 1 16 44
M  V30 49 1 17 45
M  V30 50 1 18 46
M  V30 51 1 21 47
M  V30 52 1 21 48
M  V30 53 1 22 49
M  V30 54 1 22 50
M  V30 55 1 24 51
M  V30 56 1 24 52
M  V30 57 1 25 53
M  V30 58 1 25 54
M  V30 59 1 26 55
M  V30 60 1 26 56
M  V30 61 1 27 57
M  V30 62 1 27 58
M  V30 63 1 28 59
M  V30 64 1 29 60
M  V30 65 1 30 61
M  V30 66 1 32 62
M  V30 67 1 33 63
M  V30 68 1 34 64
M  V30 END BOND
M  V30 END CTAB
M  END
>  <Dataset>  (978) 
ChEMBL_Kinases

>  <Ligand_Instance>  (978) 
nan

>  <PDB_ID>  (978) 
nan

>  <Standardized_SMILES>  (978) 
Cc1c(Nc2c(C#N)cncc2/C=C/c2cccc(OCCN3CCCC3)c2)ccc2[nH]ccc12

>  <Name>  (978) 
nan

>  <Pocket>  (978) 
nan

>  <ATP_Site>  (978) 
nan

>  <Peripheral>  (978) 
nan

>  <Num_H_Atoms_ProtBoundConf>  (978) 
nan

>  <Num_Resolved_Atoms>  (978) 
nan

>  <Num_Not_Resolved_Atoms>  (978) 
nan

$$$$
CHEMBL565366
     RDKit          3D

  0  0  0  0  0  0  0  0  0  0999 V3000
M  V30 BEGIN CTAB
M  V30 COUNTS 60 64 0 0 0
M  V30 BEGIN ATOM
M  V30 1 C 5.091091 -1.151512 2.370974 0
M  V30 2 N 6.196275 -0.269275 2.047174 0
M  V30 3 C 6.649684 -0.386577 0.679270 0
M  V30 4 C 6.255572 0.842307 -0.124536 0
M  V30 5 N 4.884004 1.209880 0.148441 0
M  V30 6 C 3.961702 1.135899 -0.923623 0
M  V30 7 O 4.720098 0.748894 -1.850218 0
M  V30 8 C 2.559276 1.360699 -1.186562 0
M  V30 9 C 1.624730 1.674889 -0.192592 0
M  V30 10 C 0.284050 1.850825 -0.442775 0
M  V30 11 C -0.135097 1.705691 -1.744827 0
M  V30 12 N -1.477371 1.780984 -2.202955 0
M  V30 13 C -2.344885 1.336084 -1.131046 0
M  V30 14 N -3.038876 1.783495 -0.075101 0
M  V30 15 C -3.732093 0.910202 0.670300 0
M  V30 16 C -3.821321 -0.450250 0.473085 0
M  V30 17 C -4.555435 -1.290951 1.285542 0
M  V30 18 C -4.564318 -2.663214 0.983596 0
M  V30 19 C -5.295522 -3.646901 1.719395 0
M  V30 20 C -4.661829 -4.333108 2.764329 0
M  V30 21 Cl -3.004627 -4.074613 3.229712 0
M  V30 22 C -5.536670 -5.255406 3.385023 0
M  V30 23 C -6.833728 -5.483773 3.047205 0
M  V30 24 C -7.360470 -4.761494 2.011367 0
M  V30 25 C -6.634954 -3.838840 1.323810 0
M  V30 26 Cl -7.297546 -2.906367 -0.003934 0
M  V30 27 C -3.813005 -3.075909 -0.137978 0
M  V30 28 O -3.822117 -4.324269 -0.408192 0
M  V30 29 N -3.123525 -2.217596 -0.887812 0
M  V30 30 C -2.332120 -2.658588 -2.051270 0
M  V30 31 C -3.085597 -0.871171 -0.633558 0
M  V30 32 N -2.377642 -0.002096 -1.399583 0
M  V30 33 C 0.797943 1.393807 -2.737274 0
M  V30 34 C 2.136632 1.218308 -2.486446 0
M  V30 35 C 4.715675 1.582970 1.517232 0
M  V30 36 C 5.863947 1.113083 2.343379 0
M  V30 37 H 5.388733 -2.204125 2.237402 0
M  V30 38 H 4.187446 -0.931062 1.797087 0
M  V30 39 H 4.859467 -0.979422 3.434014 0
M  V30 40 H 6.209739 -1.289450 0.263116 0
M  V30 41 H 7.747263 -0.490081 0.685094 0
M  V30 42 H 6.444365 0.708612 -1.196649 0
M  V30 43 H 6.902385 1.679349 0.197170 0
M  V30 44 H 1.922420 1.803589 0.816798 0
M  V30 45 H -0.450078 2.092747 0.294864 0
M  V30 46 H -1.774730 2.096056 -3.126305 0
M  V30 47 H -4.255716 1.366269 1.492631 0
M  V30 48 H -5.107238 -0.891077 2.139495 0
M  V30 49 H -5.117100 -5.825690 4.197977 0
M  V30 50 H -7.414629 -6.216128 3.586105 0
M  V30 51 H -8.391733 -4.934566 1.740730 0
M  V30 52 H -2.555009 -3.696875 -2.308482 0
M  V30 53 H -2.402741 -1.941742 -2.874486 0
M  V30 54 H -1.273583 -2.581645 -1.680129 0
M  V30 55 H 0.488519 1.271633 -3.785651 0
M  V30 56 H 2.827288 0.970638 -3.283440 0
M  V30 57 H 3.803418 1.087422 1.971949 0
M  V30 58 H 4.649194 2.684432 1.655468 0
M  V30 59 H 5.612826 1.169239 3.426728 0
M  V30 60 H 6.764239 1.720807 2.203829 0
M  V30 END ATOM
M  V30 BEGIN BOND
M  V30 1 1 1 2
M  V30 2 1 2 3
M  V30 3 1 3 4
M  V30 4 1 4 5
M  V30 5 1 5 6
M  V30 6 2 6 7
M  V30 7 1 6 8
M  V30 8 2 8 9
M  V30 9 1 9 10
M  V30 10 2 10 11
M  V30 11 1 11 12
M  V30 12 1 12 13
M  V30 13 2 13 14
M  V30 14 1 14 15
M  V30 15 2 15 16
M  V30 16 1 16 17
M  V30 17 2 17 18
M  V30 18 1 18 19
M  V30 19 2 19 20
M  V30 20 1 20 21
M  V30 21 1 20 22
M  V30 22 2 22 23
M  V30 23 1 23 24
M  V30 24 2 24 25
M  V30 25 1 25 26
M  V30 26 1 18 27
M  V30 27 2 27 28
M  V30 28 1 27 29
M  V30 29 1 29 30
M  V30 30 1 29 31
M  V30 31 2 31 32
M  V30 32 1 11 33
M  V30 33 2 33 34
M  V30 34 1 5 35
M  V30 35 1 35 36
M  V30 36 1 36 2
M  V30 37 1 34 8
M  V30 38 1 32 13
M  V30 39 1 31 16
M  V30 40 1 25 19
M  V30 41 1 1 37
M  V30 42 1 1 38
M  V30 43 1 1 39
M  V30 44 1 3 40
M  V30 45 1 3 41
M  V30 46 1 4 42
M  V30 47 1 4 43
M  V30 48 1 9 44
M  V30 49 1 10 45
M  V30 50 1 12 46
M  V30 51 1 15 47
M  V30 52 1 17 48
M  V30 53 1 22 49
M  V30 54 1 23 50
M  V30 55 1 24 51
M  V30 56 1 30 52
M  V30 57 1 30 53
M  V30 58 1 30 54
M  V30 59 1 33 55
M  V30 60 1 34 56
M  V30 61 1 35 57
M  V30 62 1 35 58
M  V30 63 1 36 59
M  V30 64 1 36 60
M  V30 END BOND
M  V30 END CTAB
M  END
>  <Dataset>  (979) 
ChEMBL_Kinases

>  <Ligand_Instance>  (979) 
nan

>  <PDB_ID>  (979) 
nan

>  <Standardized_SMILES>  (979) 
CN1CCN(C(=O)c2ccc(Nc3ncc4cc(-c5c(Cl)cccc5Cl)c(=O)n(C)c4n3)cc2)CC1

>  <Name>  (979) 
nan

>  <Pocket>  (979) 
nan

>  <ATP_Site>  (979) 
nan

>  <Peripheral>  (979) 
nan

>  <Num_H_Atoms_ProtBoundConf>  (979) 
nan

>  <Num_Resolved_Atoms>  (979) 
nan

>  <Num_Not_Resolved_Atoms>  (979) 
nan

$$$$
CHEMBL565372
     RDKit          3D

  0  0  0  0  0  0  0  0  0  0999 V3000
M  V30 BEGIN CTAB
M  V30 COUNTS 47 50 0 0 0
M  V30 BEGIN ATOM
M  V30 1 C 0.667677 -4.074905 4.232392 0
M  V30 2 C 0.739023 -4.756776 2.907332 0
M  V30 3 C 2.003489 -4.566505 2.195679 0
M  V30 4 C 3.139007 -5.347396 2.217044 0
M  V30 5 C 4.286501 -5.090959 1.501145 0
M  V30 6 C 4.318148 -3.964374 0.691857 0
M  V30 7 C 3.237312 -3.113969 0.595965 0
M  V30 8 N 3.219815 -1.974420 -0.216074 0
M  V30 9 C 2.168462 -1.029726 -0.166401 0
M  V30 10 N 2.546138 -0.000568 0.617431 0
M  V30 11 C 1.754104 1.070274 0.871406 0
M  V30 12 C 0.491644 1.152268 0.322291 0
M  V30 13 C -0.394222 2.197433 0.515983 0
M  V30 14 C -1.652830 2.140370 -0.113685 0
M  V30 15 C -2.418672 3.331364 0.220719 0
M  V30 16 C -3.216074 3.245972 1.366927 0
M  V30 17 Cl -3.269154 1.773160 2.310799 0
M  V30 18 C -3.956058 4.344391 1.732160 0
M  V30 19 C -3.898879 5.498966 0.968723 0
M  V30 20 C -3.107514 5.572084 -0.162255 0
M  V30 21 C -2.349728 4.488712 -0.561192 0
M  V30 22 Cl -1.324167 4.500660 -1.978336 0
M  V30 23 C -1.937894 1.042947 -0.890496 0
M  V30 24 O -3.075058 1.122071 -1.377840 0
M  V30 25 N -1.085045 0.027885 -1.082978 0
M  V30 26 C -1.491835 -1.080708 -1.917633 0
M  V30 27 C 0.115644 0.075222 -0.488291 0
M  V30 28 N 0.930789 -0.981830 -0.724204 0
M  V30 29 C 2.125061 -3.451420 1.352746 0
M  V30 30 H 1.601409 -4.015489 4.798204 0
M  V30 31 H 0.302938 -3.020999 4.088377 0
M  V30 32 H -0.124875 -4.554859 4.871557 0
M  V30 33 H 0.463423 -5.852976 2.989191 0
M  V30 34 H -0.083172 -4.353186 2.244864 0
M  V30 35 H 3.067633 -6.222013 2.869183 0
M  V30 36 H 5.131323 -5.778569 1.591229 0
M  V30 37 H 5.215095 -3.729829 0.106623 0
M  V30 38 H 3.982692 -1.774564 -0.893955 0
M  V30 39 H 2.023172 1.914578 1.492049 0
M  V30 40 H -0.006716 2.972629 1.154081 0
M  V30 41 H -4.581397 4.301951 2.616498 0
M  V30 42 H -4.480820 6.364072 1.254691 0
M  V30 43 H -3.020694 6.454020 -0.803353 0
M  V30 44 H -0.609802 -1.380064 -2.555359 0
M  V30 45 H -2.267917 -0.716977 -2.627836 0
M  V30 46 H -1.862550 -1.920271 -1.294512 0
M  V30 47 H 1.274659 -2.781947 1.278851 0
M  V30 END ATOM
M  V30 BEGIN BOND
M  V30 1 1 1 2
M  V30 2 1 2 3
M  V30 3 2 3 4
M  V30 4 1 4 5
M  V30 5 2 5 6
M  V30 6 1 6 7
M  V30 7 1 7 8
M  V30 8 1 8 9
M  V30 9 2 9 10
M  V30 10 1 10 11
M  V30 11 2 11 12
M  V30 12 1 12 13
M  V30 13 2 13 14
M  V30 14 1 14 15
M  V30 15 2 15 16
M  V30 16 1 16 17
M  V30 17 1 16 18
M  V30 18 2 18 19
M  V30 19 1 19 20
M  V30 20 2 20 21
M  V30 21 1 21 22
M  V30 22 1 14 23
M  V30 23 2 23 24
M  V30 24 1 23 25
M  V30 25 1 25 26
M  V30 26 1 25 27
M  V30 27 2 27 28
M  V30 28 2 7 29
M  V30 29 1 29 3
M  V30 30 1 28 9
M  V30 31 1 27 12
M  V30 32 1 21 15
M  V30 33 1 1 30
M  V30 34 1 1 31
M  V30 35 1 1 32
M  V30 36 1 2 33
M  V30 37 1 2 34
M  V30 38 1 4 35
M  V30 39 1 5 36
M  V30 40 1 6 37
M  V30 41 1 8 38
M  V30 42 1 11 39
M  V30 43 1 13 40
M  V30 44 1 18 41
M  V30 45 1 19 42
M  V30 46 1 20 43
M  V30 47 1 26 44
M  V30 48 1 26 45
M  V30 49 1 26 46
M  V30 50 1 29 47
M  V30 END BOND
M  V30 END CTAB
M  END
>  <Dataset>  (980) 
ChEMBL_Kinases

>  <Ligand_Instance>  (980) 
nan

>  <PDB_ID>  (980) 
nan

>  <Standardized_SMILES>  (980) 
CCc1cccc(Nc2ncc3cc(-c4c(Cl)cccc4Cl)c(=O)n(C)c3n2)c1

>  <Name>  (980) 
nan

>  <Pocket>  (980) 
nan

>  <ATP_Site>  (980) 
nan

>  <Peripheral>  (980) 
nan

>  <Num_H_Atoms_ProtBoundConf>  (980) 
nan

>  <Num_Resolved_Atoms>  (980) 
nan

>  <Num_Not_Resolved_Atoms>  (980) 
nan

$$$$
CHEMBL565587
     RDKit          3D

  0  0  0  0  0  0  0  0  0  0999 V3000
M  V30 BEGIN CTAB
M  V30 COUNTS 48 51 0 0 0
M  V30 BEGIN ATOM
M  V30 1 C 1.561580 -0.352437 3.440267 0
M  V30 2 N 1.925301 0.315436 2.205828 0
M  V30 3 C 3.225710 0.445279 1.854668 0
M  V30 4 O 4.072355 -0.044731 2.661602 0
M  V30 5 C 3.586930 1.081232 0.675796 0
M  V30 6 C 5.020058 1.157727 0.408511 0
M  V30 7 C 5.834564 2.201398 0.824098 0
M  V30 8 Cl 5.086479 3.515663 1.729884 0
M  V30 9 C 7.184827 2.222301 0.544721 0
M  V30 10 C 7.785783 1.188868 -0.170409 0
M  V30 11 C 6.980469 0.136204 -0.593172 0
M  V30 12 C 5.622434 0.127956 -0.304931 0
M  V30 13 Cl 4.666818 -1.250561 -0.879005 0
M  V30 14 C 2.627710 1.606795 -0.185315 0
M  V30 15 C 1.318427 1.445425 0.223460 0
M  V30 16 C 0.304241 1.948883 -0.593916 0
M  V30 17 N -1.004390 1.823116 -0.250721 0
M  V30 18 C -1.334315 1.193177 0.914552 0
M  V30 19 N -2.625529 0.955460 1.454422 0
M  V30 20 C -3.356668 -0.245428 1.175481 0
M  V30 21 C -4.624561 -0.456386 1.723054 0
M  V30 22 C -5.314242 -1.631244 1.440332 0
M  V30 23 C -4.703819 -2.558080 0.613632 0
M  V30 24 N -5.359926 -3.767188 0.300052 0
M  V30 25 C -6.248685 -4.325163 -0.647538 0
M  V30 26 O -6.763254 -3.728324 -1.640148 0
M  V30 27 C -6.685744 -5.719740 -0.571953 0
M  V30 28 Cl -5.926502 -6.506950 0.826139 0
M  V30 29 C -3.438247 -2.379227 0.049416 0
M  V30 30 C -2.796410 -1.204302 0.357097 0
M  V30 31 N -0.345263 0.705747 1.705652 0
M  V30 32 C 0.963702 0.811929 1.397391 0
M  V30 33 H 2.331680 -1.089752 3.730964 0
M  V30 34 H 1.587724 0.450432 4.229376 0
M  V30 35 H 0.543571 -0.759276 3.418518 0
M  V30 36 H 7.827729 3.035686 0.866911 0
M  V30 37 H 8.838651 1.150157 -0.419239 0
M  V30 38 H 7.433851 -0.668363 -1.146584 0
M  V30 39 H 2.937737 2.096382 -1.095875 0
M  V30 40 H 0.529482 2.451456 -1.519546 0
M  V30 41 H -3.040460 1.684329 2.069123 0
M  V30 42 H -5.077136 0.300615 2.374261 0
M  V30 43 H -6.296301 -1.834368 1.842743 0
M  V30 44 H -5.020970 -4.392712 1.068565 0
M  V30 45 H -6.483947 -6.308744 -1.512195 0
M  V30 46 H -7.800903 -5.793236 -0.420757 0
M  V30 47 H -3.006320 -3.138228 -0.592127 0
M  V30 48 H -1.800194 -1.064428 -0.088360 0
M  V30 END ATOM
M  V30 BEGIN BOND
M  V30 1 1 1 2
M  V30 2 1 2 3
M  V30 3 2 3 4
M  V30 4 1 3 5
M  V30 5 1 5 6
M  V30 6 2 6 7
M  V30 7 1 7 8
M  V30 8 1 7 9
M  V30 9 2 9 10
M  V30 10 1 10 11
M  V30 11 2 11 12
M  V30 12 1 12 13
M  V30 13 2 5 14
M  V30 14 1 14 15
M  V30 15 2 15 16
M  V30 16 1 16 17
M  V30 17 2 17 18
M  V30 18 1 18 19
M  V30 19 1 19 20
M  V30 20 2 20 21
M  V30 21 1 21 22
M  V30 22 2 22 23
M  V30 23 1 23 24
M  V30 24 1 24 25
M  V30 25 2 25 26
M  V30 26 1 25 27
M  V30 27 1 27 28
M  V30 28 1 23 29
M  V30 29 2 29 30
M  V30 30 1 18 31
M  V30 31 2 31 32
M  V30 32 1 32 2
M  V30 33 1 12 6
M  V30 34 1 32 15
M  V30 35 1 30 20
M  V30 36 1 1 33
M  V30 37 1 1 34
M  V30 38 1 1 35
M  V30 39 1 9 36
M  V30 40 1 10 37
M  V30 41 1 11 38
M  V30 42 1 14 39
M  V30 43 1 16 40
M  V30 44 1 19 41
M  V30 45 1 21 42
M  V30 46 1 22 43
M  V30 47 1 24 44
M  V30 48 1 27 45
M  V30 49 1 27 46
M  V30 50 1 29 47
M  V30 51 1 30 48
M  V30 END BOND
M  V30 END CTAB
M  END
>  <Dataset>  (981) 
ChEMBL_Kinases

>  <Ligand_Instance>  (981) 
nan

>  <PDB_ID>  (981) 
nan

>  <Standardized_SMILES>  (981) 
Cn1c(=O)c(-c2c(Cl)cccc2Cl)cc2cnc(Nc3ccc(NC(=O)CCl)cc3)nc21

>  <Name>  (981) 
nan

>  <Pocket>  (981) 
nan

>  <ATP_Site>  (981) 
nan

>  <Peripheral>  (981) 
nan

>  <Num_H_Atoms_ProtBoundConf>  (981) 
nan

>  <Num_Resolved_Atoms>  (981) 
nan

>  <Num_Not_Resolved_Atoms>  (981) 
nan

$$$$
CHEMBL565609
     RDKit          3D

  0  0  0  0  0  0  0  0  0  0999 V3000
M  V30 BEGIN CTAB
M  V30 COUNTS 68 71 0 0 0
M  V30 BEGIN ATOM
M  V30 1 C -1.158062 2.362943 0.200830 0
M  V30 2 N -0.573820 2.725212 -1.092983 0
M  V30 3 C 0.632722 3.303634 -1.224935 0
M  V30 4 O 1.227650 3.517672 -0.125401 0
M  V30 5 C 1.157354 3.627353 -2.455382 0
M  V30 6 C 2.476386 4.241844 -2.387124 0
M  V30 7 C 3.559717 3.357505 -2.437926 0
M  V30 8 Cl 3.327265 1.622270 -2.582746 0
M  V30 9 C 4.850940 3.878105 -2.372298 0
M  V30 10 C 5.020223 5.236950 -2.260107 0
M  V30 11 C 3.981308 6.140088 -2.207048 0
M  V30 12 C 2.705698 5.611963 -2.272975 0
M  V30 13 Cl 1.275403 6.649115 -2.212845 0
M  V30 14 C 0.460696 3.369019 -3.628021 0
M  V30 15 C -0.770721 2.774813 -3.431817 0
M  V30 16 C -1.516385 2.485585 -4.550417 0
M  V30 17 N -2.726939 1.904409 -4.468369 0
M  V30 18 C -3.259479 1.581012 -3.275641 0
M  V30 19 N -4.454200 0.967190 -2.785849 0
M  V30 20 C -4.283318 -0.299124 -2.159278 0
M  V30 21 C -5.373010 -0.808822 -1.514791 0
M  V30 22 C -5.303761 -2.017053 -0.859126 0
M  V30 23 C -4.125673 -2.722627 -0.850557 0
M  V30 24 N -3.708579 -3.949753 -0.265949 0
M  V30 25 C -3.103819 -3.821386 1.005983 0
M  V30 26 O -2.939555 -2.701937 1.610580 0
M  V30 27 C -2.528649 -4.798836 1.947785 0
M  V30 28 C -1.899973 -4.099921 3.135175 0
M  V30 29 N -0.855431 -3.194567 2.711685 0
M  V30 30 C 0.301506 -3.546293 1.976660 0
M  V30 31 O 0.462518 -4.735399 1.648526 0
M  V30 32 O 1.239951 -2.578890 1.625012 0
M  V30 33 C 2.393695 -2.885120 0.886842 0
M  V30 34 C 3.309547 -3.883169 1.506471 0
M  V30 35 C 3.186076 -1.570384 0.811895 0
M  V30 36 C 2.100504 -3.273499 -0.530941 0
M  V30 37 C -2.998850 -2.213130 -1.508571 0
M  V30 38 C -3.085711 -0.979574 -2.172193 0
M  V30 39 N -2.513230 1.872027 -2.187947 0
M  V30 40 C -1.301106 2.450143 -2.212476 0
M  V30 41 H -2.260170 2.465872 0.181608 0
M  V30 42 H -0.863370 1.314197 0.463281 0
M  V30 43 H -0.758374 3.060234 0.948182 0
M  V30 44 H 5.720552 3.202315 -2.412865 0
M  V30 45 H 6.033390 5.651393 -2.208304 0
M  V30 46 H 4.121176 7.218093 -2.117350 0
M  V30 47 H 0.901431 3.633278 -4.560285 0
M  V30 48 H -1.181958 2.702817 -5.551880 0
M  V30 49 H -5.378597 1.437168 -2.895815 0
M  V30 50 H -6.311520 -0.306642 -1.487714 0
M  V30 51 H -6.052053 -2.546687 -0.312720 0
M  V30 52 H -3.717855 -4.971420 -0.510298 0
M  V30 53 H -1.762953 -5.370367 1.432666 0
M  V30 54 H -3.357882 -5.451499 2.362279 0
M  V30 55 H -2.704502 -3.570203 3.678362 0
M  V30 56 H -1.517624 -4.898183 3.823672 0
M  V30 57 H -0.953774 -2.178547 2.966497 0
M  V30 58 H 3.080311 -4.935298 1.215315 0
M  V30 59 H 3.396923 -3.738268 2.589067 0
M  V30 60 H 4.338073 -3.712378 1.076070 0
M  V30 61 H 4.211224 -1.760222 0.446137 0
M  V30 62 H 2.641828 -0.809525 0.238549 0
M  V30 63 H 3.244230 -1.210080 1.881943 0
M  V30 64 H 2.965186 -2.953554 -1.160158 0
M  V30 65 H 1.229115 -2.732325 -0.955317 0
M  V30 66 H 2.005676 -4.367550 -0.698149 0
M  V30 67 H -1.993414 -2.603858 -1.621276 0
M  V30 68 H -2.284890 -0.493271 -2.710378 0
M  V30 END ATOM
M  V30 BEGIN BOND
M  V30 1 1 1 2
M  V30 2 1 2 3
M  V30 3 2 3 4
M  V30 4 1 3 5
M  V30 5 1 5 6
M  V30 6 2 6 7
M  V30 7 1 7 8
M  V30 8 1 7 9
M  V30 9 2 9 10
M  V30 10 1 10 11
M  V30 11 2 11 12
M  V30 12 1 12 13
M  V30 13 2 5 14
M  V30 14 1 14 15
M  V30 15 2 15 16
M  V30 16 1 16 17
M  V30 17 2 17 18
M  V30 18 1 18 19
M  V30 19 1 19 20
M  V30 20 2 20 21
M  V30 21 1 21 22
M  V30 22 2 22 23
M  V30 23 1 23 24
M  V30 24 1 24 25
M  V30 25 2 25 26
M  V30 26 1 25 27
M  V30 27 1 27 28
M  V30 28 1 28 29
M  V30 29 1 29 30
M  V30 30 2 30 31
M  V30 31 1 30 32
M  V30 32 1 32 33
M  V30 33 1 33 34
M  V30 34 1 33 35
M  V30 35 1 33 36
M  V30 36 1 23 37
M  V30 37 2 37 38
M  V30 38 1 18 39
M  V30 39 2 39 40
M  V30 40 1 40 2
M  V30 41 1 12 6
M  V30 42 1 40 15
M  V30 43 1 38 20
M  V30 44 1 1 41
M  V30 45 1 1 42
M  V30 46 1 1 43
M  V30 47 1 9 44
M  V30 48 1 10 45
M  V30 49 1 11 46
M  V30 50 1 14 47
M  V30 51 1 16 48
M  V30 52 1 19 49
M  V30 53 1 21 50
M  V30 54 1 22 51
M  V30 55 1 24 52
M  V30 56 1 27 53
M  V30 57 1 27 54
M  V30 58 1 28 55
M  V30 59 1 28 56
M  V30 60 1 29 57
M  V30 61 1 34 58
M  V30 62 1 34 59
M  V30 63 1 34 60
M  V30 64 1 35 61
M  V30 65 1 35 62
M  V30 66 1 35 63
M  V30 67 1 36 64
M  V30 68 1 36 65
M  V30 69 1 36 66
M  V30 70 1 37 67
M  V30 71 1 38 68
M  V30 END BOND
M  V30 END CTAB
M  END
>  <Dataset>  (982) 
ChEMBL_Kinases

>  <Ligand_Instance>  (982) 
nan

>  <PDB_ID>  (982) 
nan

>  <Standardized_SMILES>  (982) 
Cn1c(=O)c(-c2c(Cl)cccc2Cl)cc2cnc(Nc3ccc(NC(=O)CCNC(=O)OC(C)(C)C)cc3)nc21

>  <Name>  (982) 
nan

>  <Pocket>  (982) 
nan

>  <ATP_Site>  (982) 
nan

>  <Peripheral>  (982) 
nan

>  <Num_H_Atoms_ProtBoundConf>  (982) 
nan

>  <Num_Resolved_Atoms>  (982) 
nan

>  <Num_Not_Resolved_Atoms>  (982) 
nan

$$$$
CHEMBL3727682
     RDKit          3D

  0  0  0  0  0  0  0  0  0  0999 V3000
M  V30 BEGIN CTAB
M  V30 COUNTS 53 57 0 0 0
M  V30 BEGIN ATOM
M  V30 1 N 3.723246 -3.905761 2.379061 0
M  V30 2 C 2.384918 -3.317171 2.098439 0 CFG=2
M  V30 3 C 2.086015 -2.491293 3.321715 0
M  V30 4 N 0.830752 -1.825714 3.257361 0
M  V30 5 C 0.663857 -0.945587 2.189572 0
M  V30 6 N 1.477569 -0.611012 1.219587 0
M  V30 7 C 1.069319 0.279561 0.303355 0
M  V30 8 C 1.961965 0.685148 -0.810894 0
M  V30 9 C 3.202841 0.099236 -0.832832 0
M  V30 10 C 4.026092 0.470603 -1.856271 0
M  V30 11 N 3.693479 1.353330 -2.813639 0
M  V30 12 C 2.480817 1.928084 -2.795086 0
M  V30 13 C 1.617449 1.587710 -1.786891 0
M  V30 14 N -0.111639 0.857194 0.301915 0
M  V30 15 C -1.074017 0.647057 1.203178 0
M  V30 16 C -2.302804 1.185607 1.284805 0
M  V30 17 C -2.838654 2.139146 0.366757 0
M  V30 18 C -3.278341 2.953311 -0.428812 0
M  V30 19 C -3.818900 3.905949 -1.357034 0
M  V30 20 C -2.964295 4.908044 -1.872704 0
M  V30 21 S -4.080649 5.879613 -3.001177 0
M  V30 22 C -5.519309 4.725030 -2.553756 0
M  V30 23 N -5.054188 4.001018 -1.831342 0
M  V30 24 C -3.145294 0.776790 2.372135 0
M  V30 25 S -2.057349 -0.460588 3.307920 0
M  V30 26 C -0.595974 -0.291179 2.137385 0
M  V30 27 C 1.477316 -4.483327 1.907943 0
M  V30 28 C 0.080161 -4.182215 1.600975 0
M  V30 29 C -0.167704 -4.023579 0.231661 0
M  V30 30 C -1.403073 -3.749536 -0.299378 0
M  V30 31 C -2.487132 -3.615575 0.531871 0
M  V30 32 C -2.284621 -3.763061 1.868019 0
M  V30 33 C -1.042930 -4.037122 2.385205 0
M  V30 34 H 3.559433 -4.472437 3.257493 0
M  V30 35 H 4.337240 -3.122046 2.668967 0
M  V30 36 H 2.525843 -2.706627 1.199081 0
M  V30 37 H 2.040201 -3.232047 4.177036 0
M  V30 38 H 2.913984 -1.779345 3.547289 0
M  V30 39 H 0.116399 -1.996626 3.975842 0
M  V30 40 H 3.564100 -0.625791 -0.103223 0
M  V30 41 H 5.014669 0.043795 -1.926704 0
M  V30 42 H 2.100548 2.648250 -3.506053 0
M  V30 43 H 0.622644 2.015499 -1.713632 0
M  V30 44 H -1.886561 5.082395 -1.662185 0
M  V30 45 H -6.698429 4.575921 -2.816895 0
M  V30 46 H -4.205447 1.128916 2.593612 0
M  V30 47 H 1.868537 -5.208266 1.161529 0
M  V30 48 H 1.492149 -5.065787 2.878079 0
M  V30 49 H 0.611875 -4.106154 -0.534084 0
M  V30 50 H -1.584181 -3.628888 -1.357567 0
M  V30 51 H -3.473873 -3.402478 0.177583 0
M  V30 52 H -3.094565 -3.669848 2.572218 0
M  V30 53 H -0.787426 -4.172130 3.450173 0
M  V30 END ATOM
M  V30 BEGIN BOND
M  V30 1 1 1 2
M  V30 2 1 2 3
M  V30 3 1 3 4
M  V30 4 1 4 5
M  V30 5 2 5 6
M  V30 6 1 6 7
M  V30 7 1 7 8
M  V30 8 2 8 9
M  V30 9 1 9 10
M  V30 10 2 10 11
M  V30 11 1 11 12
M  V30 12 2 12 13
M  V30 13 2 7 14
M  V30 14 1 14 15
M  V30 15 1 15 16
M  V30 16 1 16 17
M  V30 17 3 17 18
M  V30 18 1 18 19
M  V30 19 2 19 20
M  V30 20 1 20 21
M  V30 21 1 21 22
M  V30 22 2 22 23
M  V30 23 2 16 24
M  V30 24 1 24 25
M  V30 25 1 25 26
M  V30 26 1 2 27
M  V30 27 1 27 28
M  V30 28 2 28 29
M  V30 29 1 29 30
M  V30 30 2 30 31
M  V30 31 1 31 32
M  V30 32 2 32 33
M  V30 33 1 26 5
M  V30 34 1 33 28
M  V30 35 1 13 8
M  V30 36 2 26 15
M  V30 37 1 23 19
M  V30 38 1 1 34
M  V30 39 1 1 35
M  V30 40 1 2 36 CFG=3
M  V30 41 1 3 37
M  V30 42 1 3 38
M  V30 43 1 4 39
M  V30 44 1 9 40
M  V30 45 1 10 41
M  V30 46 1 12 42
M  V30 47 1 13 43
M  V30 48 1 20 44
M  V30 49 1 22 45
M  V30 50 1 24 46
M  V30 51 1 27 47
M  V30 52 1 27 48
M  V30 53 1 29 49
M  V30 54 1 30 50
M  V30 55 1 31 51
M  V30 56 1 32 52
M  V30 57 1 33 53
M  V30 END BOND
M  V30 END CTAB
M  END
>  <Dataset>  (983) 
ChEMBL_Kinases

>  <Ligand_Instance>  (983) 
nan

>  <PDB_ID>  (983) 
nan

>  <Standardized_SMILES>  (983) 
N[C@H](CNc1nc(-c2ccncc2)nc2c(C#Cc3cscn3)csc12)Cc1ccccc1

>  <Name>  (983) 
nan

>  <Pocket>  (983) 
nan

>  <ATP_Site>  (983) 
nan

>  <Peripheral>  (983) 
nan

>  <Num_H_Atoms_ProtBoundConf>  (983) 
nan

>  <Num_Resolved_Atoms>  (983) 
nan

>  <Num_Not_Resolved_Atoms>  (983) 
nan

$$$$
CHEMBL3727641
     RDKit          3D

  0  0  0  0  0  0  0  0  0  0999 V3000
M  V30 BEGIN CTAB
M  V30 COUNTS 58 63 0 0 0
M  V30 BEGIN ATOM
M  V30 1 C 3.653854 -4.832382 2.326536 0
M  V30 2 C 2.759705 -5.839876 2.014103 0
M  V30 3 N 2.079208 -5.763908 0.853218 0
M  V30 4 C 2.269909 -4.723780 0.015852 0
M  V30 5 C 3.146930 -3.680585 0.262140 0
M  V30 6 C 3.331138 -2.541149 -0.695387 0
M  V30 7 N 2.392772 -1.523017 -0.372758 0
M  V30 8 C 2.478979 -0.991517 0.943470 0
M  V30 9 C 1.419377 0.010777 1.234035 0
M  V30 10 N 0.553307 0.331076 0.115665 0
M  V30 11 C -0.801610 0.755939 0.196982 0
M  V30 12 N -0.900588 2.021845 -0.184903 0
M  V30 13 C -2.023443 2.758729 -0.219848 0
M  V30 14 C -2.153289 4.148538 -0.634250 0
M  V30 15 C -1.019977 4.844372 -1.046114 0
M  V30 16 C -1.152057 6.171983 -1.439601 0
M  V30 17 N -2.356023 6.790253 -1.427713 0
M  V30 18 C -3.427757 6.085925 -1.023769 0
M  V30 19 C -3.396185 4.767333 -0.615945 0
M  V30 20 N -3.112963 2.087152 0.183032 0
M  V30 21 C -3.042087 0.762140 0.588248 0
M  V30 22 S -4.271920 -0.327748 1.143226 0
M  V30 23 C -3.146705 -1.714039 1.380024 0
M  V30 24 C -1.973674 -1.216810 1.020295 0
M  V30 25 C -1.924758 0.063201 0.612292 0
M  V30 26 C -0.941256 -2.294504 1.168051 0
M  V30 27 C -1.554542 -3.654565 1.149439 0
M  V30 28 C -2.554492 -3.880124 2.246882 0
M  V30 29 C -3.726039 -3.001100 1.878738 0
M  V30 30 C 1.000649 0.248176 -1.261686 0
M  V30 31 C 2.260414 -0.537807 -1.404225 0
M  V30 32 C 3.845812 -3.771053 1.467652 0
M  V30 33 H 4.270540 -4.771585 3.234241 0
M  V30 34 H 2.676014 -6.640220 2.759250 0
M  V30 35 H 1.682915 -4.727606 -0.907236 0
M  V30 36 H 3.068722 -2.964216 -1.688287 0
M  V30 37 H 4.381320 -2.236607 -0.712101 0
M  V30 38 H 2.327477 -1.843871 1.650678 0
M  V30 39 H 3.514740 -0.609922 1.105561 0
M  V30 40 H 0.835678 -0.190440 2.160375 0
M  V30 41 H 1.964011 0.984284 1.447322 0
M  V30 42 H -0.096954 4.312795 -1.038244 0
M  V30 43 H -0.233886 6.676226 -1.754675 0
M  V30 44 H -4.413563 6.548000 -1.001511 0
M  V30 45 H -4.264898 4.213965 -0.296308 0
M  V30 46 H -0.405960 -2.215759 2.135982 0
M  V30 47 H -0.176307 -2.221788 0.370976 0
M  V30 48 H -0.783052 -4.441849 1.221671 0
M  V30 49 H -2.074665 -3.803607 0.180596 0
M  V30 50 H -2.867708 -4.955230 2.183315 0
M  V30 51 H -2.105226 -3.615411 3.220630 0
M  V30 52 H -4.306084 -3.514923 1.079583 0
M  V30 53 H -4.362711 -2.880701 2.779040 0
M  V30 54 H 1.258227 1.304488 -1.567362 0
M  V30 55 H 0.207776 -0.050475 -1.973249 0
M  V30 56 H 2.215089 -1.078094 -2.379604 0
M  V30 57 H 3.187291 0.073353 -1.447763 0
M  V30 58 H 4.533134 -2.942136 1.650703 0
M  V30 END ATOM
M  V30 BEGIN BOND
M  V30 1 2 1 2
M  V30 2 1 2 3
M  V30 3 2 3 4
M  V30 4 1 4 5
M  V30 5 1 5 6
M  V30 6 1 6 7
M  V30 7 1 7 8
M  V30 8 1 8 9
M  V30 9 1 9 10
M  V30 10 1 10 11
M  V30 11 2 11 12
M  V30 12 1 12 13
M  V30 13 1 13 14
M  V30 14 2 14 15
M  V30 15 1 15 16
M  V30 16 2 16 17
M  V30 17 1 17 18
M  V30 18 2 18 19
M  V30 19 2 13 20
M  V30 20 1 20 21
M  V30 21 1 21 22
M  V30 22 1 22 23
M  V30 23 2 23 24
M  V30 24 1 24 25
M  V30 25 1 24 26
M  V30 26 1 26 27
M  V30 27 1 27 28
M  V30 28 1 28 29
M  V30 29 1 10 30
M  V30 30 1 30 31
M  V30 31 2 5 32
M  V30 32 1 32 1
M  V30 33 1 31 7
M  V30 34 1 25 11
M  V30 35 1 19 14
M  V30 36 2 25 21
M  V30 37 1 29 23
M  V30 38 1 1 33
M  V30 39 1 2 34
M  V30 40 1 4 35
M  V30 41 1 6 36
M  V30 42 1 6 37
M  V30 43 1 8 38
M  V30 44 1 8 39
M  V30 45 1 9 40
M  V30 46 1 9 41
M  V30 47 1 15 42
M  V30 48 1 16 43
M  V30 49 1 18 44
M  V30 50 1 19 45
M  V30 51 1 26 46
M  V30 52 1 26 47
M  V30 53 1 27 48
M  V30 54 1 27 49
M  V30 55 1 28 50
M  V30 56 1 28 51
M  V30 57 1 29 52
M  V30 58 1 29 53
M  V30 59 1 30 54
M  V30 60 1 30 55
M  V30 61 1 31 56
M  V30 62 1 31 57
M  V30 63 1 32 58
M  V30 END BOND
M  V30 END CTAB
M  END
>  <Dataset>  (984) 
ChEMBL_Kinases

>  <Ligand_Instance>  (984) 
nan

>  <PDB_ID>  (984) 
nan

>  <Standardized_SMILES>  (984) 
c1cncc(CN2CCN(c3nc(-c4ccncc4)nc4sc5c(c34)CCCC5)CC2)c1

>  <Name>  (984) 
nan

>  <Pocket>  (984) 
nan

>  <ATP_Site>  (984) 
nan

>  <Peripheral>  (984) 
nan

>  <Num_H_Atoms_ProtBoundConf>  (984) 
nan

>  <Num_Resolved_Atoms>  (984) 
nan

>  <Num_Not_Resolved_Atoms>  (984) 
nan

$$$$
CHEMBL565654
     RDKit          3D

  0  0  0  0  0  0  0  0  0  0999 V3000
M  V30 BEGIN CTAB
M  V30 COUNTS 42 45 0 0 0
M  V30 BEGIN ATOM
M  V30 1 C 0.838353 -7.710720 0.105467 0
M  V30 2 O 0.606157 -6.452418 -0.511598 0
M  V30 3 C 1.082324 -5.310921 0.119977 0
M  V30 4 C 1.774344 -5.351006 1.327655 0
M  V30 5 C 2.213882 -4.159621 1.887345 0
M  V30 6 C 1.966188 -2.959491 1.252965 0
M  V30 7 C 1.276134 -2.926015 0.049808 0
M  V30 8 C 1.097531 -1.581622 -0.488650 0
M  V30 9 C 1.057156 -1.479660 -1.856197 0
M  V30 10 C 0.888769 -0.218887 -2.386793 0
M  V30 11 C 0.767401 0.881681 -1.581046 0
M  V30 12 N 0.602561 2.112720 -2.106559 0
M  V30 13 C 0.483002 3.197891 -1.295648 0
M  V30 14 N 0.531563 3.022807 0.022968 0
M  V30 15 C 0.688812 1.869066 0.652011 0
M  V30 16 N 0.732957 1.761199 2.069510 0
M  V30 17 C 0.594356 2.975473 2.827834 0
M  V30 18 C -0.643673 3.683618 2.642460 0
M  V30 19 C -1.860355 3.513845 3.391450 0
M  V30 20 C -2.915461 4.306515 3.041826 0
M  V30 21 C -2.795084 5.253247 1.979017 0
M  V30 22 S -1.025191 5.000710 1.420342 0
M  V30 23 C 0.806119 0.794285 -0.205556 0
M  V30 24 C 0.975438 -0.478298 0.297728 0
M  V30 25 C 0.837089 -4.091825 -0.513401 0
M  V30 26 H 0.601787 -8.528608 -0.606631 0
M  V30 27 H 0.197966 -7.768024 1.009613 0
M  V30 28 H 1.910316 -7.787685 0.410301 0
M  V30 29 H 1.952457 -6.290598 1.796885 0
M  V30 30 H 2.745873 -4.273438 2.829707 0
M  V30 31 H 2.380543 -2.118179 1.828334 0
M  V30 32 H 1.151931 -2.340747 -2.497227 0
M  V30 33 H 0.851281 -0.095746 -3.478321 0
M  V30 34 H 0.348680 4.204005 -1.707180 0
M  V30 35 H 0.856266 0.881809 2.596573 0
M  V30 36 H 0.723412 2.766754 3.909116 0
M  V30 37 H 1.491857 3.606633 2.546264 0
M  V30 38 H -1.887781 2.785518 4.178290 0
M  V30 39 H -3.869223 4.254551 3.542712 0
M  V30 40 H -3.503089 5.908667 1.612865 0
M  V30 41 H 1.019904 -0.662560 1.359354 0
M  V30 42 H 0.312339 -3.987470 -1.441857 0
M  V30 END ATOM
M  V30 BEGIN BOND
M  V30 1 1 1 2
M  V30 2 1 2 3
M  V30 3 2 3 4
M  V30 4 1 4 5
M  V30 5 2 5 6
M  V30 6 1 6 7
M  V30 7 1 7 8
M  V30 8 2 8 9
M  V30 9 1 9 10
M  V30 10 2 10 11
M  V30 11 1 11 12
M  V30 12 2 12 13
M  V30 13 1 13 14
M  V30 14 2 14 15
M  V30 15 1 15 16
M  V30 16 1 16 17
M  V30 17 1 17 18
M  V30 18 2 18 19
M  V30 19 1 19 20
M  V30 20 2 20 21
M  V30 21 1 21 22
M  V30 22 1 15 23
M  V30 23 2 23 24
M  V30 24 2 7 25
M  V30 25 1 25 3
M  V30 26 1 24 8
M  V30 27 1 23 11
M  V30 28 1 22 18
M  V30 29 1 1 26
M  V30 30 1 1 27
M  V30 31 1 1 28
M  V30 32 1 4 29
M  V30 33 1 5 30
M  V30 34 1 6 31
M  V30 35 1 9 32
M  V30 36 1 10 33
M  V30 37 1 13 34
M  V30 38 1 16 35
M  V30 39 1 17 36
M  V30 40 1 17 37
M  V30 41 1 19 38
M  V30 42 1 20 39
M  V30 43 1 21 40
M  V30 44 1 24 41
M  V30 45 1 25 42
M  V30 END BOND
M  V30 END CTAB
M  END
>  <Dataset>  (985) 
ChEMBL_Kinases

>  <Ligand_Instance>  (985) 
nan

>  <PDB_ID>  (985) 
nan

>  <Standardized_SMILES>  (985) 
COc1cccc(-c2ccc3ncnc(NCc4cccs4)c3c2)c1

>  <Name>  (985) 
nan

>  <Pocket>  (985) 
nan

>  <ATP_Site>  (985) 
nan

>  <Peripheral>  (985) 
nan

>  <Num_H_Atoms_ProtBoundConf>  (985) 
nan

>  <Num_Resolved_Atoms>  (985) 
nan

>  <Num_Not_Resolved_Atoms>  (985) 
nan

$$$$
CHEMBL3727560
     RDKit          3D

  0  0  0  0  0  0  0  0  0  0999 V3000
M  V30 BEGIN CTAB
M  V30 COUNTS 37 40 0 0 0
M  V30 BEGIN ATOM
M  V30 1 C -0.193293 -1.310406 3.389263 0
M  V30 2 C -0.236415 -2.750258 3.022927 0
M  V30 3 N -0.554654 -3.779044 3.850260 0
M  V30 4 N -0.488233 -4.927606 3.174124 0
M  V30 5 C -0.131156 -4.642560 1.924816 0
M  V30 6 C 0.033948 -3.279973 1.801706 0
M  V30 7 C 0.420954 -2.476471 0.630096 0
M  V30 8 N 0.529715 -1.135131 0.716168 0
M  V30 9 C 0.883529 -0.468944 -0.379196 0
M  V30 10 N 1.049192 0.929815 -0.485572 0
M  V30 11 C 0.796111 1.656993 0.739748 0 CFG=2
M  V30 12 C -0.609094 1.453082 1.198534 0
M  V30 13 C -1.307622 2.677178 0.648998 0
M  V30 14 N -0.342993 3.718722 0.496010 0
M  V30 15 C 0.972692 3.141165 0.552760 0
M  V30 16 C 1.117602 -1.208850 -1.543197 0
M  V30 17 S 1.610913 -0.686154 -3.221632 0
M  V30 18 C 1.623601 -2.472378 -3.934420 0
M  V30 19 C 1.264580 -3.193095 -2.839508 0
M  V30 20 C 1.006823 -2.603267 -1.641433 0
M  V30 21 N 0.645840 -3.185505 -0.487515 0
M  V30 22 H 0.724943 -0.792729 3.060221 0
M  V30 23 H -1.127384 -0.784362 3.081411 0
M  V30 24 H -0.186620 -1.246888 4.497085 0
M  V30 25 H -0.815783 -3.708818 4.866830 0
M  V30 26 H 0.022345 -5.328545 1.089130 0
M  V30 27 H 1.323023 1.411755 -1.340523 0
M  V30 28 H 1.480716 1.242423 1.508029 0
M  V30 29 H -0.639906 1.434040 2.315055 0
M  V30 30 H -1.115391 0.577500 0.761665 0
M  V30 31 H -1.825605 2.438512 -0.308350 0
M  V30 32 H -2.047435 2.988733 1.431660 0
M  V30 33 H -0.473388 4.260286 -0.390666 0
M  V30 34 H 1.476180 3.535527 1.482759 0
M  V30 35 H 1.633465 3.412273 -0.293538 0
M  V30 36 H 1.864695 -2.601557 -4.897834 0
M  V30 37 H 1.211753 -4.251887 -3.032900 0
M  V30 END ATOM
M  V30 BEGIN BOND
M  V30 1 1 1 2
M  V30 2 1 2 3
M  V30 3 1 3 4
M  V30 4 2 4 5
M  V30 5 1 5 6
M  V30 6 1 6 7
M  V30 7 2 7 8
M  V30 8 1 8 9
M  V30 9 1 9 10
M  V30 10 1 10 11
M  V30 11 1 11 12
M  V30 12 1 12 13
M  V30 13 1 13 14
M  V30 14 1 14 15
M  V30 15 2 9 16
M  V30 16 1 16 17
M  V30 17 1 17 18
M  V30 18 2 18 19
M  V30 19 1 19 20
M  V30 20 2 20 21
M  V30 21 2 6 2
M  V30 22 1 21 7
M  V30 23 1 15 11
M  V30 24 1 20 16
M  V30 25 1 1 22
M  V30 26 1 1 23
M  V30 27 1 1 24
M  V30 28 1 3 25
M  V30 29 1 5 26
M  V30 30 1 10 27
M  V30 31 1 11 28 CFG=1
M  V30 32 1 12 29
M  V30 33 1 12 30
M  V30 34 1 13 31
M  V30 35 1 13 32
M  V30 36 1 14 33
M  V30 37 1 15 34
M  V30 38 1 15 35
M  V30 39 1 18 36
M  V30 40 1 19 37
M  V30 END BOND
M  V30 END CTAB
M  END
>  <Dataset>  (986) 
ChEMBL_Kinases

>  <Ligand_Instance>  (986) 
nan

>  <PDB_ID>  (986) 
nan

>  <Standardized_SMILES>  (986) 
Cc1[nH]ncc1-c1nc(N[C@@H]2CCNC2)c2sccc2n1

>  <Name>  (986) 
nan

>  <Pocket>  (986) 
nan

>  <ATP_Site>  (986) 
nan

>  <Peripheral>  (986) 
nan

>  <Num_H_Atoms_ProtBoundConf>  (986) 
nan

>  <Num_Resolved_Atoms>  (986) 
nan

>  <Num_Not_Resolved_Atoms>  (986) 
nan

$$$$
CHEMBL565801
     RDKit          3D

  0  0  0  0  0  0  0  0  0  0999 V3000
M  V30 BEGIN CTAB
M  V30 COUNTS 48 51 0 0 0
M  V30 BEGIN ATOM
M  V30 1 C 0.345944 -5.084753 5.271852 0
M  V30 2 C 1.507635 -4.179314 5.093413 0
M  V30 3 O 2.472058 -4.381127 5.865313 0
M  V30 4 N 1.599722 -3.139486 4.145185 0
M  V30 5 C 2.661224 -2.236611 3.909268 0
M  V30 6 C 3.853296 -2.179574 4.567796 0
M  V30 7 C 4.865366 -1.283814 4.309168 0
M  V30 8 C 4.665593 -0.368118 3.305888 0
M  V30 9 C 3.460641 -0.377470 2.593628 0
M  V30 10 N 3.339763 0.600456 1.577492 0
M  V30 11 C 2.304516 0.915512 0.654586 0
M  V30 12 N 2.349302 1.909612 -0.278309 0
M  V30 13 C 1.301774 2.102535 -1.090552 0
M  V30 14 C 0.148236 1.351772 -1.055153 0
M  V30 15 C -0.862796 1.647393 -1.944666 0
M  V30 16 C -1.978534 0.838946 -1.830942 0
M  V30 17 C -3.104573 1.086824 -2.743045 0
M  V30 18 C -4.061821 1.986974 -2.291316 0
M  V30 19 Cl -3.919430 2.763401 -0.738118 0
M  V30 20 C -5.130432 2.235992 -3.132446 0
M  V30 21 C -5.233599 1.616658 -4.358847 0
M  V30 22 C -4.270265 0.714483 -4.806862 0
M  V30 23 C -3.184949 0.451002 -3.971400 0
M  V30 24 Cl -1.937479 -0.673990 -4.474490 0
M  V30 25 C -2.037933 -0.184666 -0.878298 0
M  V30 26 O -3.091298 -0.894375 -0.822629 0
M  V30 27 N -0.991715 -0.411346 -0.034308 0
M  V30 28 C -1.058398 -1.473506 0.951156 0
M  V30 29 C 0.113598 0.351787 -0.110517 0
M  V30 30 N 1.172119 0.202092 0.666562 0
M  V30 31 C 2.508398 -1.299875 2.913786 0
M  V30 32 H 0.428522 -5.974584 4.623012 0
M  V30 33 H 0.212261 -5.333925 6.332285 0
M  V30 34 H -0.591922 -4.561935 4.969160 0
M  V30 35 H 0.725465 -3.094309 3.578380 0
M  V30 36 H 4.061224 -2.874954 5.363333 0
M  V30 37 H 5.791385 -1.286638 4.866224 0
M  V30 38 H 5.461392 0.334931 3.103786 0
M  V30 39 H 4.148881 1.273830 1.411166 0
M  V30 40 H 1.484644 2.936594 -1.786442 0
M  V30 41 H -0.768530 2.447404 -2.660613 0
M  V30 42 H -5.902093 2.934341 -2.816871 0
M  V30 43 H -6.058187 1.789353 -5.042558 0
M  V30 44 H -4.344848 0.224648 -5.768429 0
M  V30 45 H -0.403270 -2.330290 0.698112 0
M  V30 46 H -2.110118 -1.837966 1.049730 0
M  V30 47 H -0.776379 -1.115535 1.947936 0
M  V30 48 H 1.579635 -1.305592 2.363317 0
M  V30 END ATOM
M  V30 BEGIN BOND
M  V30 1 1 1 2
M  V30 2 2 2 3
M  V30 3 1 2 4
M  V30 4 1 4 5
M  V30 5 2 5 6
M  V30 6 1 6 7
M  V30 7 2 7 8
M  V30 8 1 8 9
M  V30 9 1 9 10
M  V30 10 1 10 11
M  V30 11 2 11 12
M  V30 12 1 12 13
M  V30 13 2 13 14
M  V30 14 1 14 15
M  V30 15 2 15 16
M  V30 16 1 16 17
M  V30 17 2 17 18
M  V30 18 1 18 19
M  V30 19 1 18 20
M  V30 20 2 20 21
M  V30 21 1 21 22
M  V30 22 2 22 23
M  V30 23 1 23 24
M  V30 24 1 16 25
M  V30 25 2 25 26
M  V30 26 1 25 27
M  V30 27 1 27 28
M  V30 28 1 27 29
M  V30 29 2 29 30
M  V30 30 2 9 31
M  V30 31 1 31 5
M  V30 32 1 30 11
M  V30 33 1 29 14
M  V30 34 1 23 17
M  V30 35 1 1 32
M  V30 36 1 1 33
M  V30 37 1 1 34
M  V30 38 1 4 35
M  V30 39 1 6 36
M  V30 40 1 7 37
M  V30 41 1 8 38
M  V30 42 1 10 39
M  V30 43 1 13 40
M  V30 44 1 15 41
M  V30 45 1 20 42
M  V30 46 1 21 43
M  V30 47 1 22 44
M  V30 48 1 28 45
M  V30 49 1 28 46
M  V30 50 1 28 47
M  V30 51 1 31 48
M  V30 END BOND
M  V30 END CTAB
M  END
>  <Dataset>  (987) 
ChEMBL_Kinases

>  <Ligand_Instance>  (987) 
nan

>  <PDB_ID>  (987) 
nan

>  <Standardized_SMILES>  (987) 
CC(=O)Nc1cccc(Nc2ncc3cc(-c4c(Cl)cccc4Cl)c(=O)n(C)c3n2)c1

>  <Name>  (987) 
nan

>  <Pocket>  (987) 
nan

>  <ATP_Site>  (987) 
nan

>  <Peripheral>  (987) 
nan

>  <Num_H_Atoms_ProtBoundConf>  (987) 
nan

>  <Num_Resolved_Atoms>  (987) 
nan

>  <Num_Not_Resolved_Atoms>  (987) 
nan

$$$$
CHEMBL3727637
     RDKit          3D

  0  0  0  0  0  0  0  0  0  0999 V3000
M  V30 BEGIN CTAB
M  V30 COUNTS 48 51 0 0 0
M  V30 BEGIN ATOM
M  V30 1 C 2.602174 -5.167100 3.893992 0
M  V30 2 C 1.376227 -5.011252 3.020279 0
M  V30 3 C 0.163835 -5.409155 3.868788 0
M  V30 4 O 1.458363 -5.802439 1.874487 0
M  V30 5 C 1.279646 -3.613337 2.604708 0
M  V30 6 C 1.189294 -2.450755 2.239233 0
M  V30 7 C 1.064999 -1.095533 1.795517 0
M  V30 8 C 1.946042 -0.152975 2.413190 0
M  V30 9 S 1.468677 1.465753 1.568060 0
M  V30 10 C 0.247613 0.771695 0.565186 0
M  V30 11 C -0.576374 1.365914 -0.364073 0
M  V30 12 N -0.542374 2.727889 -0.663588 0
M  V30 13 C 0.100358 3.965012 -0.363820 0 CFG=2
M  V30 14 C 1.585278 3.989183 -0.659000 0
M  V30 15 C 2.169396 4.709834 0.506806 0
M  V30 16 N 1.209370 4.815345 1.551100 0
M  V30 17 C -0.058871 4.442123 1.047476 0
M  V30 18 N -1.466481 0.565639 -1.021953 0
M  V30 19 C -1.483997 -0.740112 -0.725633 0
M  V30 20 C -2.436543 -1.587627 -1.431767 0
M  V30 21 C -3.280648 -1.041670 -2.368241 0
M  V30 22 C -4.178741 -1.852288 -3.031194 0
M  V30 23 N -4.223251 -3.170364 -2.757856 0
M  V30 24 C -3.413097 -3.739876 -1.848151 0
M  V30 25 C -2.495080 -2.936587 -1.164423 0
M  V30 26 N -0.669417 -1.280033 0.181496 0
M  V30 27 C 0.231704 -0.561731 0.869676 0
M  V30 28 H 3.384379 -5.650009 3.257667 0
M  V30 29 H 2.939909 -4.181494 4.235809 0
M  V30 30 H 2.400865 -5.751141 4.822997 0
M  V30 31 H -0.487554 -6.133750 3.338585 0
M  V30 32 H 0.472148 -5.782640 4.865431 0
M  V30 33 H -0.449748 -4.496607 4.031518 0
M  V30 34 H 1.646415 -5.256240 1.071990 0
M  V30 35 H 2.732956 -0.286613 3.198723 0
M  V30 36 H -1.272994 2.984142 -1.405803 0
M  V30 37 H -0.307167 4.816773 -1.007834 0
M  V30 38 H 1.831779 4.614198 -1.566493 0
M  V30 39 H 2.027010 3.013599 -0.866790 0
M  V30 40 H 2.514880 5.747620 0.248900 0
M  V30 41 H 3.109465 4.178526 0.837833 0
M  V30 42 H 1.498034 4.356012 2.429086 0
M  V30 43 H -0.540245 3.637699 1.658468 0
M  V30 44 H -0.732371 5.343122 1.094717 0
M  V30 45 H -3.262498 0.009273 -2.602730 0
M  V30 46 H -4.834486 -1.420446 -3.760533 0
M  V30 47 H -3.383736 -4.784186 -1.569909 0
M  V30 48 H -1.811116 -3.330603 -0.417197 0
M  V30 END ATOM
M  V30 BEGIN BOND
M  V30 1 1 1 2
M  V30 2 1 2 3
M  V30 3 1 2 4
M  V30 4 1 2 5
M  V30 5 3 5 6
M  V30 6 1 6 7
M  V30 7 2 7 8
M  V30 8 1 8 9
M  V30 9 1 9 10
M  V30 10 2 10 11
M  V30 11 1 11 12
M  V30 12 1 12 13
M  V30 13 1 13 14
M  V30 14 1 14 15
M  V30 15 1 15 16
M  V30 16 1 16 17
M  V30 17 1 11 18
M  V30 18 2 18 19
M  V30 19 1 19 20
M  V30 20 2 20 21
M  V30 21 1 21 22
M  V30 22 2 22 23
M  V30 23 1 23 24
M  V30 24 2 24 25
M  V30 25 1 19 26
M  V30 26 2 26 27
M  V30 27 1 27 7
M  V30 28 1 27 10
M  V30 29 1 17 13
M  V30 30 1 25 20
M  V30 31 1 1 28
M  V30 32 1 1 29
M  V30 33 1 1 30
M  V30 34 1 3 31
M  V30 35 1 3 32
M  V30 36 1 3 33
M  V30 37 1 4 34
M  V30 38 1 8 35
M  V30 39 1 12 36
M  V30 40 1 13 37 CFG=3
M  V30 41 1 14 38
M  V30 42 1 14 39
M  V30 43 1 15 40
M  V30 44 1 15 41
M  V30 45 1 16 42
M  V30 46 1 17 43
M  V30 47 1 17 44
M  V30 48 1 21 45
M  V30 49 1 22 46
M  V30 50 1 24 47
M  V30 51 1 25 48
M  V30 END BOND
M  V30 END CTAB
M  END
>  <Dataset>  (988) 
ChEMBL_Kinases

>  <Ligand_Instance>  (988) 
nan

>  <PDB_ID>  (988) 
nan

>  <Standardized_SMILES>  (988) 
CC(C)(O)C#Cc1csc2c(N[C@@H]3CCNC3)nc(-c3ccncc3)nc12

>  <Name>  (988) 
nan

>  <Pocket>  (988) 
nan

>  <ATP_Site>  (988) 
nan

>  <Peripheral>  (988) 
nan

>  <Num_H_Atoms_ProtBoundConf>  (988) 
nan

>  <Num_Resolved_Atoms>  (988) 
nan

>  <Num_Not_Resolved_Atoms>  (988) 
nan

$$$$
CHEMBL3727635
     RDKit          3D

  0  0  0  0  0  0  0  0  0  0999 V3000
M  V30 BEGIN CTAB
M  V30 COUNTS 44 47 0 0 0
M  V30 BEGIN ATOM
M  V30 1 C -1.154337 -4.840825 4.908487 0
M  V30 2 S -2.170568 -5.168284 3.476064 0
M  V30 3 O -3.491186 -4.487413 3.612174 0
M  V30 4 O -2.329116 -6.660656 3.354323 0
M  V30 5 N -1.334086 -4.619355 2.079178 0
M  V30 6 C -1.028948 -3.214598 2.003098 0
M  V30 7 C -0.357945 -2.695514 0.910909 0
M  V30 8 C -0.089839 -1.344531 0.886086 0
M  V30 9 C 0.625853 -0.735336 -0.259547 0
M  V30 10 N 0.863479 0.611056 -0.232480 0
M  V30 11 C 1.516555 1.119454 -1.293188 0
M  V30 12 N 1.857311 2.484544 -1.456165 0
M  V30 13 C 1.447690 3.342813 -0.374934 0 CFG=2
M  V30 14 C 2.037027 2.976208 0.958757 0
M  V30 15 C 0.982147 3.324026 1.954499 0
M  V30 16 N -0.283054 3.315420 1.273172 0
M  V30 17 C -0.022703 3.377292 -0.131669 0
M  V30 18 C 1.869473 0.302169 -2.254746 0
M  V30 19 S 2.769321 0.652677 -3.840667 0
M  V30 20 C 2.748846 -1.141357 -4.439752 0
M  V30 21 C 2.050185 -1.877817 -3.373543 0
M  V30 22 C 1.655551 -1.095296 -2.345073 0
M  V30 23 N 1.001425 -1.538694 -1.259244 0
M  V30 24 C -0.450914 -0.471931 1.888405 0
M  V30 25 C -1.126278 -1.057291 2.965043 0
M  V30 26 N -1.393850 -2.386186 2.996787 0
M  V30 27 H -0.283639 -4.217721 4.666504 0
M  V30 28 H -0.768404 -5.780612 5.362319 0
M  V30 29 H -1.736954 -4.325123 5.700590 0
M  V30 30 H -1.048093 -5.241763 1.310050 0
M  V30 31 H -0.055362 -3.339690 0.102312 0
M  V30 32 H 2.357539 2.869745 -2.268984 0
M  V30 33 H 1.801652 4.374718 -0.598876 0
M  V30 34 H 2.322814 1.933393 1.080041 0
M  V30 35 H 2.940935 3.576034 1.201675 0
M  V30 36 H 1.182634 4.301953 2.407224 0
M  V30 37 H 0.910794 2.515841 2.738163 0
M  V30 38 H -0.860543 4.125596 1.603296 0
M  V30 39 H -0.490730 2.511161 -0.642258 0
M  V30 40 H -0.442413 4.314346 -0.578309 0
M  V30 41 H 3.133204 -1.736927 -5.382202 0
M  V30 42 H 1.921630 -2.927384 -3.502445 0
M  V30 43 H -0.253530 0.589424 1.894586 0
M  V30 44 H -1.425688 -0.384386 3.777929 0
M  V30 END ATOM
M  V30 BEGIN BOND
M  V30 1 1 1 2
M  V30 2 2 2 3
M  V30 3 2 2 4
M  V30 4 1 2 5
M  V30 5 1 5 6
M  V30 6 2 6 7
M  V30 7 1 7 8
M  V30 8 1 8 9
M  V30 9 2 9 10
M  V30 10 1 10 11
M  V30 11 1 11 12
M  V30 12 1 12 13
M  V30 13 1 13 14
M  V30 14 1 14 15
M  V30 15 1 15 16
M  V30 16 1 16 17
M  V30 17 2 11 18
M  V30 18 1 18 19
M  V30 19 1 19 20
M  V30 20 2 20 21
M  V30 21 1 21 22
M  V30 22 2 22 23
M  V30 23 2 8 24
M  V30 24 1 24 25
M  V30 25 2 25 26
M  V30 26 1 26 6
M  V30 27 1 23 9
M  V30 28 1 17 13
M  V30 29 1 22 18
M  V30 30 1 1 27
M  V30 31 1 1 28
M  V30 32 1 1 29
M  V30 33 1 5 30
M  V30 34 1 7 31
M  V30 35 1 12 32
M  V30 36 1 13 33 CFG=3
M  V30 37 1 14 34
M  V30 38 1 14 35
M  V30 39 1 15 36
M  V30 40 1 15 37
M  V30 41 1 16 38
M  V30 42 1 17 39
M  V30 43 1 17 40
M  V30 44 1 20 41
M  V30 45 1 21 42
M  V30 46 1 24 43
M  V30 47 1 25 44
M  V30 END BOND
M  V30 END CTAB
M  END
>  <Dataset>  (989) 
ChEMBL_Kinases

>  <Ligand_Instance>  (989) 
nan

>  <PDB_ID>  (989) 
nan

>  <Standardized_SMILES>  (989) 
CS(=O)(=O)Nc1cc(-c2nc(N[C@@H]3CCNC3)c3sccc3n2)ccn1

>  <Name>  (989) 
nan

>  <Pocket>  (989) 
nan

>  <ATP_Site>  (989) 
nan

>  <Peripheral>  (989) 
nan

>  <Num_H_Atoms_ProtBoundConf>  (989) 
nan

>  <Num_Resolved_Atoms>  (989) 
nan

>  <Num_Not_Resolved_Atoms>  (989) 
nan

$$$$
CHEMBL3727632
     RDKit          3D

  0  0  0  0  0  0  0  0  0  0999 V3000
M  V30 BEGIN CTAB
M  V30 COUNTS 46 48 0 0 0
M  V30 BEGIN ATOM
M  V30 1 O -0.406672 -4.939559 -1.373314 0
M  V30 2 C 0.145773 -4.017786 -0.679982 0
M  V30 3 C 1.407360 -3.623652 -1.302849 0
M  V30 4 N 2.143614 -2.589235 -0.659040 0
M  V30 5 C 1.621930 -1.248954 -0.548586 0
M  V30 6 C 0.421743 -0.852055 -1.044264 0
M  V30 7 C -0.063576 0.431723 -0.930136 0
M  V30 8 C 0.732505 1.344969 -0.271927 0
M  V30 9 C 1.965193 1.041586 0.266398 0
M  V30 10 C 2.833463 1.976080 0.967710 0
M  V30 11 O 3.930275 1.549904 1.402136 0
M  V30 12 N 2.519956 3.327794 1.188996 0
M  V30 13 C 3.265493 4.334003 1.848599 0
M  V30 14 C 4.484539 4.218824 2.432139 0
M  V30 15 C 5.159016 5.244596 3.061044 0
M  V30 16 C 4.565029 6.487257 3.110166 0
M  V30 17 N 3.352331 6.626837 2.536724 0
M  V30 18 C 2.728164 5.599787 1.932922 0
M  V30 19 C 2.351318 -0.271160 0.093925 0
M  V30 20 N -0.523116 -3.578085 0.487682 0
M  V30 21 N -1.751775 -4.128161 0.874838 0
M  V30 22 C -2.878380 -3.568169 0.599387 0
M  V30 23 C -4.180783 -4.101782 0.980715 0
M  V30 24 C -5.376377 -3.477829 0.671360 0
M  V30 25 C -6.596387 -4.002225 1.042757 0
M  V30 26 N -6.690731 -5.149546 1.726303 0
M  V30 27 C -5.553473 -5.801738 2.055349 0
M  V30 28 C -4.325845 -5.290356 1.691268 0
M  V30 29 H 1.255965 -3.279670 -2.369483 0
M  V30 30 H 2.037721 -4.528384 -1.396934 0
M  V30 31 H 3.083882 -2.780113 -0.249365 0
M  V30 32 H -0.190709 -1.601278 -1.563663 0
M  V30 33 H -1.022699 0.725932 -1.332758 0
M  V30 34 H 0.352882 2.335212 -0.187025 0
M  V30 35 H 1.589116 3.585275 0.790813 0
M  V30 36 H 4.990415 3.274306 2.422195 0
M  V30 37 H 6.131954 5.089223 3.508778 0
M  V30 38 H 5.031918 7.347874 3.587564 0
M  V30 39 H 1.757622 5.862589 1.516445 0
M  V30 40 H 3.328613 -0.573395 0.503519 0
M  V30 41 H 0.006257 -2.834072 0.985703 0
M  V30 42 H -2.876641 -2.648300 0.054228 0
M  V30 43 H -5.288652 -2.544200 0.114296 0
M  V30 44 H -7.511059 -3.454721 0.764605 0
M  V30 45 H -5.639986 -6.710780 2.598056 0
M  V30 46 H -3.428894 -5.855039 1.980607 0
M  V30 END ATOM
M  V30 BEGIN BOND
M  V30 1 2 1 2
M  V30 2 1 2 3
M  V30 3 1 3 4
M  V30 4 1 4 5
M  V30 5 2 5 6
M  V30 6 1 6 7
M  V30 7 2 7 8
M  V30 8 1 8 9
M  V30 9 1 9 10
M  V30 10 2 10 11
M  V30 11 1 10 12
M  V30 12 1 12 13
M  V30 13 2 13 14
M  V30 14 1 14 15
M  V30 15 2 15 16
M  V30 16 1 16 17
M  V30 17 2 17 18
M  V30 18 2 9 19
M  V30 19 1 2 20
M  V30 20 1 20 21
M  V30 21 2 21 22
M  V30 22 1 22 23
M  V30 23 2 23 24
M  V30 24 1 24 25
M  V30 25 2 25 26
M  V30 26 1 26 27
M  V30 27 2 27 28
M  V30 28 1 19 5
M  V30 29 1 28 23
M  V30 30 1 18 13
M  V30 31 1 3 29
M  V30 32 1 3 30
M  V30 33 1 4 31
M  V30 34 1 6 32
M  V30 35 1 7 33
M  V30 36 1 8 34
M  V30 37 1 12 35
M  V30 38 1 14 36
M  V30 39 1 15 37
M  V30 40 1 16 38
M  V30 41 1 18 39
M  V30 42 1 19 40
M  V30 43 1 20 41
M  V30 44 1 22 42
M  V30 45 1 24 43
M  V30 46 1 25 44
M  V30 47 1 27 45
M  V30 48 1 28 46
M  V30 END BOND
M  V30 END CTAB
M  END
>  <Dataset>  (990) 
ChEMBL_Kinases

>  <Ligand_Instance>  (990) 
nan

>  <PDB_ID>  (990) 
nan

>  <Standardized_SMILES>  (990) 
O=C(CNc1cccc(C(=O)Nc2cccnc2)c1)N/N=C/c1ccncc1

>  <Name>  (990) 
nan

>  <Pocket>  (990) 
nan

>  <ATP_Site>  (990) 
nan

>  <Peripheral>  (990) 
nan

>  <Num_H_Atoms_ProtBoundConf>  (990) 
nan

>  <Num_Resolved_Atoms>  (990) 
nan

>  <Num_Not_Resolved_Atoms>  (990) 
nan

$$$$
CHEMBL3727626
     RDKit          3D

  0  0  0  0  0  0  0  0  0  0999 V3000
M  V30 BEGIN CTAB
M  V30 COUNTS 57 60 0 0 0
M  V30 BEGIN ATOM
M  V30 1 C 0.255758 -0.934608 5.501794 0
M  V30 2 C 1.354260 -0.494399 4.545479 0
M  V30 3 C 2.672498 -0.910293 5.118832 0
M  V30 4 C 1.306019 1.017447 4.505530 0
M  V30 5 C 1.045939 -1.019153 3.237453 0
M  V30 6 S 0.777944 0.079465 1.738177 0
M  V30 7 C 0.468179 -1.315350 0.623813 0
M  V30 8 C 0.176221 -1.288038 -0.738006 0
M  V30 9 N 0.104026 -0.019199 -1.367660 0
M  V30 10 C -0.202031 -0.045035 -2.782444 0
M  V30 11 C -0.296262 1.318084 -3.405458 0 CFG=2
M  V30 12 N 0.944685 2.055981 -3.268062 0
M  V30 13 C -1.522896 2.087028 -3.087944 0
M  V30 14 C -1.776458 2.381036 -1.679151 0
M  V30 15 C -1.331325 3.486414 -0.980653 0
M  V30 16 C -1.656618 3.643278 0.367169 0
M  V30 17 C -2.422870 2.716960 1.045836 0
M  V30 18 C -2.888255 1.592315 0.375324 0
M  V30 19 C -2.552916 1.450797 -0.975228 0
M  V30 20 N -0.016838 -2.459674 -1.362319 0
M  V30 21 C 0.096219 -3.572757 -0.579023 0
M  V30 22 C -0.097117 -4.916832 -1.164592 0
M  V30 23 C -0.389695 -4.982134 -2.507791 0
M  V30 24 C -0.582891 -6.194511 -3.123291 0
M  V30 25 N -0.488408 -7.342698 -2.418080 0
M  V30 26 C -0.200833 -7.308239 -1.090948 0
M  V30 27 C -0.008379 -6.084966 -0.481426 0
M  V30 28 N 0.374368 -3.566717 0.710935 0
M  V30 29 C 0.580983 -2.438685 1.408309 0
M  V30 30 C 0.875099 -2.265172 2.733545 0
M  V30 31 Br 1.072580 -3.722673 3.988791 0
M  V30 32 H 0.278205 -0.233616 6.371417 0
M  V30 33 H 0.491599 -1.936896 5.877142 0
M  V30 34 H -0.747352 -0.832840 5.057036 0
M  V30 35 H 2.795574 -0.419481 6.106514 0
M  V30 36 H 2.747629 -2.002343 5.298560 0
M  V30 37 H 3.506126 -0.518448 4.491157 0
M  V30 38 H 0.236220 1.344528 4.418801 0
M  V30 39 H 1.749293 1.286790 3.503007 0
M  V30 40 H 1.862488 1.488333 5.314136 0
M  V30 41 H 0.260253 0.852653 -0.860463 0
M  V30 42 H -1.193710 -0.556505 -2.913932 0
M  V30 43 H 0.574167 -0.664357 -3.275437 0
M  V30 44 H -0.357614 1.108600 -4.524141 0
M  V30 45 H 0.756530 3.045329 -3.545262 0
M  V30 46 H 1.653880 1.656725 -3.915440 0
M  V30 47 H -2.400426 1.556602 -3.554570 0
M  V30 48 H -1.465858 3.069405 -3.614438 0
M  V30 49 H -0.734645 4.197942 -1.528001 0
M  V30 50 H -1.298407 4.518109 0.900947 0
M  V30 51 H -2.697689 2.794643 2.078882 0
M  V30 52 H -3.495784 0.822393 0.845044 0
M  V30 53 H -2.935783 0.552358 -1.475226 0
M  V30 54 H -0.478953 -4.092485 -3.128729 0
M  V30 55 H -0.812094 -6.228230 -4.179599 0
M  V30 56 H -0.122768 -8.228144 -0.514951 0
M  V30 57 H 0.220147 -6.042489 0.569723 0
M  V30 END ATOM
M  V30 BEGIN BOND
M  V30 1 1 1 2
M  V30 2 1 2 3
M  V30 3 1 2 4
M  V30 4 1 2 5
M  V30 5 1 5 6
M  V30 6 1 6 7
M  V30 7 2 7 8
M  V30 8 1 8 9
M  V30 9 1 9 10
M  V30 10 1 10 11
M  V30 11 1 11 12
M  V30 12 1 11 13
M  V30 13 1 13 14
M  V30 14 2 14 15
M  V30 15 1 15 16
M  V30 16 2 16 17
M  V30 17 1 17 18
M  V30 18 2 18 19
M  V30 19 1 8 20
M  V30 20 2 20 21
M  V30 21 1 21 22
M  V30 22 2 22 23
M  V30 23 1 23 24
M  V30 24 2 24 25
M  V30 25 1 25 26
M  V30 26 2 26 27
M  V30 27 1 21 28
M  V30 28 2 28 29
M  V30 29 1 29 30
M  V30 30 1 30 31
M  V30 31 2 30 5
M  V30 32 1 29 7
M  V30 33 1 19 14
M  V30 34 1 27 22
M  V30 35 1 1 32
M  V30 36 1 1 33
M  V30 37 1 1 34
M  V30 38 1 3 35
M  V30 39 1 3 36
M  V30 40 1 3 37
M  V30 41 1 4 38
M  V30 42 1 4 39
M  V30 43 1 4 40
M  V30 44 1 9 41
M  V30 45 1 10 42
M  V30 46 1 10 43
M  V30 47 1 11 44 CFG=3
M  V30 48 1 12 45
M  V30 49 1 12 46
M  V30 50 1 13 47
M  V30 51 1 13 48
M  V30 52 1 15 49
M  V30 53 1 16 50
M  V30 54 1 17 51
M  V30 55 1 18 52
M  V30 56 1 19 53
M  V30 57 1 23 54
M  V30 58 1 24 55
M  V30 59 1 26 56
M  V30 60 1 27 57
M  V30 END BOND
M  V30 END CTAB
M  END
>  <Dataset>  (991) 
ChEMBL_Kinases

>  <Ligand_Instance>  (991) 
nan

>  <PDB_ID>  (991) 
nan

>  <Standardized_SMILES>  (991) 
CC(C)(C)c1sc2c(NC[C@H](N)Cc3ccccc3)nc(-c3ccncc3)nc2c1Br

>  <Name>  (991) 
nan

>  <Pocket>  (991) 
nan

>  <ATP_Site>  (991) 
nan

>  <Peripheral>  (991) 
nan

>  <Num_H_Atoms_ProtBoundConf>  (991) 
nan

>  <Num_Resolved_Atoms>  (991) 
nan

>  <Num_Not_Resolved_Atoms>  (991) 
nan

$$$$
CHEMBL3727609
     RDKit          3D

  0  0  0  0  0  0  0  0  0  0999 V3000
M  V30 BEGIN CTAB
M  V30 COUNTS 52 55 0 0 0
M  V30 BEGIN ATOM
M  V30 1 C 0.249487 -3.891530 5.699300 0
M  V30 2 S -0.705148 -2.734408 4.684720 0
M  V30 3 C 0.251703 -2.469382 3.130807 0
M  V30 4 C 1.499396 -1.761069 3.505794 0
M  V30 5 C 2.499171 -1.459462 2.443321 0 CFG=1
M  V30 6 N 2.989843 -2.694809 1.819205 0
M  V30 7 C 2.041512 -0.519133 1.374438 0
M  V30 8 N 0.931213 -0.951366 0.564142 0
M  V30 9 C 0.218710 -0.029212 -0.252696 0
M  V30 10 N 0.677547 1.225496 -0.223938 0
M  V30 11 C 0.214784 2.276783 -0.897587 0
M  V30 12 C 0.810744 3.599398 -0.774858 0
M  V30 13 C 1.902820 3.735875 0.087362 0
M  V30 14 C 2.404199 5.024460 0.142651 0
M  V30 15 N 1.940786 6.109111 -0.540549 0
M  V30 16 C 0.876265 5.911586 -1.363077 0
M  V30 17 C 0.315244 4.674950 -1.481943 0
M  V30 18 N -0.834304 2.007608 -1.686757 0
M  V30 19 C -1.330780 0.763430 -1.748906 0
M  V30 20 S -2.663451 0.174606 -2.681992 0
M  V30 21 C -2.564970 -1.558188 -2.116679 0
M  V30 22 C -1.486152 -1.522157 -1.237954 0
M  V30 23 C -0.856719 -0.317909 -1.057064 0
M  V30 24 C -1.403554 -2.918112 -0.769247 0
M  V30 25 C -2.793702 -3.313731 -0.223176 0
M  V30 26 C -3.719277 -3.615672 -1.385583 0
M  V30 27 C -3.429398 -2.651727 -2.527620 0
M  V30 28 H 1.237023 -3.431789 5.895307 0
M  V30 29 H -0.275001 -4.162705 6.630039 0
M  V30 30 H 0.422573 -4.786933 5.037555 0
M  V30 31 H -0.458509 -1.854693 2.513594 0
M  V30 32 H 0.435489 -3.402246 2.594633 0
M  V30 33 H 1.975870 -2.358842 4.331621 0
M  V30 34 H 1.189945 -0.799885 4.019662 0
M  V30 35 H 3.381779 -1.007060 2.920221 0
M  V30 36 H 3.337415 -2.458292 0.843464 0
M  V30 37 H 2.255224 -3.396865 1.676389 0
M  V30 38 H 1.770285 0.457536 1.846720 0
M  V30 39 H 2.934942 -0.257115 0.736404 0
M  V30 40 H 0.941354 -1.936447 0.770815 0
M  V30 41 H 2.339716 2.957370 0.663367 0
M  V30 42 H 3.255832 5.171603 0.803514 0
M  V30 43 H 0.541183 6.812544 -1.889313 0
M  V30 44 H -0.533563 4.565599 -2.151036 0
M  V30 45 H -0.741585 -3.109725 0.084335 0
M  V30 46 H -1.233114 -3.636868 -1.604998 0
M  V30 47 H -3.171389 -2.486331 0.406354 0
M  V30 48 H -2.668573 -4.256046 0.345740 0
M  V30 49 H -4.752955 -3.445597 -1.035023 0
M  V30 50 H -3.553886 -4.668903 -1.675555 0
M  V30 51 H -2.924884 -3.236510 -3.319347 0
M  V30 52 H -4.376796 -2.263780 -2.942887 0
M  V30 END ATOM
M  V30 BEGIN BOND
M  V30 1 1 1 2
M  V30 2 1 2 3
M  V30 3 1 3 4
M  V30 4 1 4 5
M  V30 5 1 5 6
M  V30 6 1 5 7
M  V30 7 1 7 8
M  V30 8 1 8 9
M  V30 9 2 9 10
M  V30 10 1 10 11
M  V30 11 1 11 12
M  V30 12 2 12 13
M  V30 13 1 13 14
M  V30 14 2 14 15
M  V30 15 1 15 16
M  V30 16 2 16 17
M  V30 17 2 11 18
M  V30 18 1 18 19
M  V30 19 1 19 20
M  V30 20 1 20 21
M  V30 21 2 21 22
M  V30 22 1 22 23
M  V30 23 1 22 24
M  V30 24 1 24 25
M  V30 25 1 25 26
M  V30 26 1 26 27
M  V30 27 1 23 9
M  V30 28 1 17 12
M  V30 29 2 23 19
M  V30 30 1 27 21
M  V30 31 1 1 28
M  V30 32 1 1 29
M  V30 33 1 1 30
M  V30 34 1 3 31
M  V30 35 1 3 32
M  V30 36 1 4 33
M  V30 37 1 4 34
M  V30 38 1 5 35 CFG=1
M  V30 39 1 6 36
M  V30 40 1 6 37
M  V30 41 1 7 38
M  V30 42 1 7 39
M  V30 43 1 8 40
M  V30 44 1 13 41
M  V30 45 1 14 42
M  V30 46 1 16 43
M  V30 47 1 17 44
M  V30 48 1 24 45
M  V30 49 1 24 46
M  V30 50 1 25 47
M  V30 51 1 25 48
M  V30 52 1 26 49
M  V30 53 1 26 50
M  V30 54 1 27 51
M  V30 55 1 27 52
M  V30 END BOND
M  V30 END CTAB
M  END
>  <Dataset>  (992) 
ChEMBL_Kinases

>  <Ligand_Instance>  (992) 
nan

>  <PDB_ID>  (992) 
nan

>  <Standardized_SMILES>  (992) 
CSCC[C@@H](N)CNc1nc(-c2ccncc2)nc2sc3c(c12)CCCC3

>  <Name>  (992) 
nan

>  <Pocket>  (992) 
nan

>  <ATP_Site>  (992) 
nan

>  <Peripheral>  (992) 
nan

>  <Num_H_Atoms_ProtBoundConf>  (992) 
nan

>  <Num_Resolved_Atoms>  (992) 
nan

>  <Num_Not_Resolved_Atoms>  (992) 
nan

$$$$
CHEMBL3727608
     RDKit          3D

  0  0  0  0  0  0  0  0  0  0999 V3000
M  V30 BEGIN CTAB
M  V30 COUNTS 58 63 0 0 0
M  V30 BEGIN ATOM
M  V30 1 C 2.841525 -5.573891 3.590260 0
M  V30 2 C 2.556319 -5.958989 2.292480 0
M  V30 3 C 2.738820 -5.057814 1.272825 0
M  V30 4 C 3.198693 -3.761129 1.459532 0
M  V30 5 C 3.339094 -2.921903 0.243662 0
M  V30 6 N 2.072308 -2.238216 0.043770 0
M  V30 7 C 1.860344 -1.389037 1.174299 0
M  V30 8 C 1.177760 -0.140077 0.825747 0
M  V30 9 N 0.442664 -0.247214 -0.429402 0
M  V30 10 C -0.717360 0.519392 -0.492690 0
M  V30 11 N -0.524742 1.661645 -1.188964 0
M  V30 12 C -1.400137 2.639221 -1.394789 0
M  V30 13 C -1.161384 3.861049 -2.149644 0
M  V30 14 C 0.045372 4.154347 -2.757142 0
M  V30 15 C 0.166056 5.337327 -3.441640 0
M  V30 16 N -0.831143 6.235671 -3.557752 0
M  V30 17 C -2.006834 5.987275 -2.986213 0
M  V30 18 C -2.159459 4.811865 -2.292961 0
M  V30 19 N -2.613160 2.458587 -0.842851 0
M  V30 20 C -2.834176 1.344713 -0.152898 0
M  V30 21 S -4.335831 0.834397 0.678518 0
M  V30 22 C -3.664466 -0.721006 1.267901 0
M  V30 23 C -2.386191 -0.748703 0.809024 0
M  V30 24 C -1.952840 0.304205 0.084435 0
M  V30 25 C -1.743481 -1.999205 1.199902 0
M  V30 26 C -1.860589 -2.235881 2.671790 0
M  V30 27 C -3.217561 -1.979340 3.231455 0
M  V30 28 C -4.240238 -1.828863 2.089487 0
M  V30 29 C 0.740823 -0.978303 -1.559463 0
M  V30 30 C 2.147001 -1.566074 -1.235055 0
M  V30 31 N 3.462384 -3.420592 2.713565 0
M  V30 32 C 3.299742 -4.275322 3.762844 0
M  V30 33 H 2.722720 -6.234556 4.450096 0
M  V30 34 H 2.200032 -6.950424 2.097900 0
M  V30 35 H 2.503123 -5.406779 0.275160 0
M  V30 36 H 4.069495 -2.108868 0.544043 0
M  V30 37 H 3.690671 -3.501678 -0.607782 0
M  V30 38 H 1.185001 -1.966708 1.890545 0
M  V30 39 H 2.837344 -1.192940 1.720189 0
M  V30 40 H 0.481611 0.133999 1.681272 0
M  V30 41 H 1.849807 0.761905 0.823390 0
M  V30 42 H 0.857986 3.456545 -2.680960 0
M  V30 43 H 1.095236 5.619858 -3.938971 0
M  V30 44 H -2.819504 6.692990 -3.064199 0
M  V30 45 H -3.119626 4.620157 -1.832452 0
M  V30 46 H -2.419445 -2.827477 0.773237 0
M  V30 47 H -0.824456 -2.262970 0.708617 0
M  V30 48 H -1.575894 -3.270876 2.968914 0
M  V30 49 H -1.138361 -1.597994 3.269299 0
M  V30 50 H -3.557783 -2.835055 3.817659 0
M  V30 51 H -3.286900 -1.041019 3.824138 0
M  V30 52 H -5.218366 -1.529385 2.511813 0
M  V30 53 H -4.300245 -2.756543 1.491813 0
M  V30 54 H 0.214297 -1.763354 -2.009766 0
M  V30 55 H 0.957988 -0.266878 -2.394064 0
M  V30 56 H 2.872973 -0.762157 -1.116159 0
M  V30 57 H 2.479083 -2.269865 -1.989701 0
M  V30 58 H 3.548507 -3.885917 4.743202 0
M  V30 END ATOM
M  V30 BEGIN BOND
M  V30 1 2 1 2
M  V30 2 1 2 3
M  V30 3 2 3 4
M  V30 4 1 4 5
M  V30 5 1 5 6
M  V30 6 1 6 7
M  V30 7 1 7 8
M  V30 8 1 8 9
M  V30 9 1 9 10
M  V30 10 2 10 11
M  V30 11 1 11 12
M  V30 12 1 12 13
M  V30 13 2 13 14
M  V30 14 1 14 15
M  V30 15 2 15 16
M  V30 16 1 16 17
M  V30 17 2 17 18
M  V30 18 2 12 19
M  V30 19 1 19 20
M  V30 20 1 20 21
M  V30 21 1 21 22
M  V30 22 2 22 23
M  V30 23 1 23 24
M  V30 24 1 23 25
M  V30 25 1 25 26
M  V30 26 1 26 27
M  V30 27 1 27 28
M  V30 28 1 9 29
M  V30 29 1 29 30
M  V30 30 1 4 31
M  V30 31 2 31 32
M  V30 32 1 32 1
M  V30 33 1 30 6
M  V30 34 1 24 10
M  V30 35 1 18 13
M  V30 36 2 24 20
M  V30 37 1 28 22
M  V30 38 1 1 33
M  V30 39 1 2 34
M  V30 40 1 3 35
M  V30 41 1 5 36
M  V30 42 1 5 37
M  V30 43 1 7 38
M  V30 44 1 7 39
M  V30 45 1 8 40
M  V30 46 1 8 41
M  V30 47 1 14 42
M  V30 48 1 15 43
M  V30 49 1 17 44
M  V30 50 1 18 45
M  V30 51 1 25 46
M  V30 52 1 25 47
M  V30 53 1 26 48
M  V30 54 1 26 49
M  V30 55 1 27 50
M  V30 56 1 27 51
M  V30 57 1 28 52
M  V30 58 1 28 53
M  V30 59 1 29 54
M  V30 60 1 29 55
M  V30 61 1 30 56
M  V30 62 1 30 57
M  V30 63 1 32 58
M  V30 END BOND
M  V30 END CTAB
M  END
>  <Dataset>  (993) 
ChEMBL_Kinases

>  <Ligand_Instance>  (993) 
nan

>  <PDB_ID>  (993) 
nan

>  <Standardized_SMILES>  (993) 
c1ccc(CN2CCN(c3nc(-c4ccncc4)nc4sc5c(c34)CCCC5)CC2)nc1

>  <Name>  (993) 
nan

>  <Pocket>  (993) 
nan

>  <ATP_Site>  (993) 
nan

>  <Peripheral>  (993) 
nan

>  <Num_H_Atoms_ProtBoundConf>  (993) 
nan

>  <Num_Resolved_Atoms>  (993) 
nan

>  <Num_Not_Resolved_Atoms>  (993) 
nan

$$$$
CHEMBL3727587
     RDKit          3D

  0  0  0  0  0  0  0  0  0  0999 V3000
M  V30 BEGIN CTAB
M  V30 COUNTS 46 48 0 0 0
M  V30 BEGIN ATOM
M  V30 1 O -0.127345 -1.866004 1.130792 0
M  V30 2 C 0.775015 -2.768301 1.011025 0
M  V30 3 C 2.243194 -2.635598 0.816992 0
M  V30 4 N 2.677231 -1.281494 0.751041 0
M  V30 5 C 2.216568 -0.479568 -0.321488 0
M  V30 6 C 1.404768 -0.983155 -1.314205 0
M  V30 7 C 0.966950 -0.215080 -2.393265 0
M  V30 8 C 1.374882 1.082558 -2.441472 0
M  V30 9 C 2.183341 1.570014 -1.445630 0
M  V30 10 C 2.638857 0.825645 -0.350026 0
M  V30 11 C 3.473993 1.557755 0.608372 0
M  V30 12 C 2.687483 1.975943 1.784117 0
M  V30 13 C 2.561149 1.477259 3.051203 0
M  V30 14 C 1.737056 2.052211 3.970845 0
M  V30 15 C 0.972762 3.162876 3.717003 0
M  V30 16 C 1.077367 3.687830 2.453767 0
M  V30 17 C 1.914069 3.106077 1.515675 0
M  V30 18 N 0.119156 -4.028872 1.096632 0
M  V30 19 N -1.262521 -3.742560 1.278761 0
M  V30 20 C -1.954969 -3.170467 0.343043 0
M  V30 21 C -3.375405 -2.891005 0.567034 0
M  V30 22 C -4.157093 -2.274859 -0.417511 0
M  V30 23 C -5.496743 -2.024341 -0.169694 0
M  V30 24 N -6.061396 -2.365923 1.008756 0
M  V30 25 C -5.317517 -2.953476 1.948121 0
M  V30 26 C -3.973989 -3.223379 1.744569 0
M  V30 27 H 2.555666 -3.232249 -0.082595 0
M  V30 28 H 2.713207 -3.157976 1.672711 0
M  V30 29 H 3.321149 -0.928211 1.485730 0
M  V30 30 H 1.067154 -2.005603 -1.311540 0
M  V30 31 H 0.336466 -0.641902 -3.146070 0
M  V30 32 H 1.047866 1.690841 -3.266711 0
M  V30 33 H 2.460464 2.619193 -1.566368 0
M  V30 34 H 3.932986 2.441130 0.155824 0
M  V30 35 H 4.310879 0.893261 0.978154 0
M  V30 36 H 3.166862 0.618667 3.234409 0
M  V30 37 H 1.703836 1.582355 4.953643 0
M  V30 38 H 0.328285 3.606578 4.446531 0
M  V30 39 H 0.473630 4.568345 2.247436 0
M  V30 40 H 1.887780 3.641268 0.553449 0
M  V30 41 H 0.690795 -4.927468 1.021008 0
M  V30 42 H -1.494733 -2.898390 -0.599044 0
M  V30 43 H -3.732327 -1.993407 -1.363446 0
M  V30 44 H -6.166262 -1.552345 -0.879419 0
M  V30 45 H -5.665888 -3.266914 2.923070 0
M  V30 46 H -3.346384 -3.697727 2.486671 0
M  V30 END ATOM
M  V30 BEGIN BOND
M  V30 1 2 1 2
M  V30 2 1 2 3
M  V30 3 1 3 4
M  V30 4 1 4 5
M  V30 5 2 5 6
M  V30 6 1 6 7
M  V30 7 2 7 8
M  V30 8 1 8 9
M  V30 9 2 9 10
M  V30 10 1 10 11
M  V30 11 1 11 12
M  V30 12 2 12 13
M  V30 13 1 13 14
M  V30 14 2 14 15
M  V30 15 1 15 16
M  V30 16 2 16 17
M  V30 17 1 2 18
M  V30 18 1 18 19
M  V30 19 2 19 20
M  V30 20 1 20 21
M  V30 21 2 21 22
M  V30 22 1 22 23
M  V30 23 2 23 24
M  V30 24 1 24 25
M  V30 25 2 25 26
M  V30 26 1 10 5
M  V30 27 1 17 12
M  V30 28 1 26 21
M  V30 29 1 3 27
M  V30 30 1 3 28
M  V30 31 1 4 29
M  V30 32 1 6 30
M  V30 33 1 7 31
M  V30 34 1 8 32
M  V30 35 1 9 33
M  V30 36 1 11 34
M  V30 37 1 11 35
M  V30 38 1 13 36
M  V30 39 1 14 37
M  V30 40 1 15 38
M  V30 41 1 16 39
M  V30 42 1 17 40
M  V30 43 1 18 41
M  V30 44 1 20 42
M  V30 45 1 22 43
M  V30 46 1 23 44
M  V30 47 1 25 45
M  V30 48 1 26 46
M  V30 END BOND
M  V30 END CTAB
M  END
>  <Dataset>  (994) 
ChEMBL_Kinases

>  <Ligand_Instance>  (994) 
nan

>  <PDB_ID>  (994) 
nan

>  <Standardized_SMILES>  (994) 
O=C(CNc1ccccc1Cc1ccccc1)N/N=C/c1ccncc1

>  <Name>  (994) 
nan

>  <Pocket>  (994) 
nan

>  <ATP_Site>  (994) 
nan

>  <Peripheral>  (994) 
nan

>  <Num_H_Atoms_ProtBoundConf>  (994) 
nan

>  <Num_Resolved_Atoms>  (994) 
nan

>  <Num_Not_Resolved_Atoms>  (994) 
nan

$$$$
CHEMBL3727573
     RDKit          3D

  0  0  0  0  0  0  0  0  0  0999 V3000
M  V30 BEGIN CTAB
M  V30 COUNTS 41 42 0 0 0
M  V30 BEGIN ATOM
M  V30 1 C 1.024360 -5.778698 1.296348 0
M  V30 2 S 1.982101 -4.327234 1.528408 0
M  V30 3 O 3.254726 -4.379145 0.695689 0
M  V30 4 O 2.372570 -4.210432 2.965262 0
M  V30 5 N 1.136533 -2.918018 1.010300 0
M  V30 6 C 0.685845 -2.649218 -0.308254 0
M  V30 7 C 0.036288 -3.549446 -1.126292 0
M  V30 8 C -0.392526 -3.265460 -2.402726 0
M  V30 9 C -0.130123 -1.987775 -2.838346 0
M  V30 10 C 0.514078 -1.009544 -2.098481 0
M  V30 11 N 0.731982 0.278524 -2.658386 0
M  V30 12 C 1.393470 1.333062 -1.915524 0
M  V30 13 C 0.621241 1.692721 -0.683700 0
M  V30 14 O -0.437258 1.350033 -0.103355 0
M  V30 15 N 1.213169 2.733894 0.118607 0
M  V30 16 N 0.449344 3.038126 1.269746 0
M  V30 17 C 0.257062 2.085614 2.125383 0
M  V30 18 C -0.518394 2.345211 3.321320 0
M  V30 19 C -1.084165 3.555006 3.630938 0
M  V30 20 Cl -0.849496 4.886678 2.488845 0
M  V30 21 C -1.801042 3.733278 4.771647 0
M  V30 22 N -2.003170 2.754099 5.662038 0
M  V30 23 C -1.477828 1.535815 5.426931 0
M  V30 24 C -0.742691 1.357225 4.254793 0
M  V30 25 Cl -0.062797 -0.237963 3.960556 0
M  V30 26 C 0.908523 -1.373756 -0.838382 0
M  V30 27 H -0.073809 -5.563927 1.427786 0
M  V30 28 H 1.274226 -6.579661 2.052652 0
M  V30 29 H 1.166896 -6.252420 0.304035 0
M  V30 30 H 0.913764 -2.157830 1.714912 0
M  V30 31 H -0.147652 -4.541818 -0.739009 0
M  V30 32 H -0.896794 -3.983840 -3.021414 0
M  V30 33 H -0.470214 -1.752447 -3.859204 0
M  V30 34 H 0.415693 0.480396 -3.617310 0
M  V30 35 H 1.624653 2.204540 -2.525178 0
M  V30 36 H 2.375054 0.895302 -1.577329 0
M  V30 37 H 2.117587 3.261014 -0.066166 0
M  V30 38 H 0.660676 1.115788 1.961804 0
M  V30 39 H -2.256420 4.698952 5.025428 0
M  V30 40 H -1.642672 0.754171 6.143531 0
M  V30 41 H 1.410044 -0.666871 -0.222823 0
M  V30 END ATOM
M  V30 BEGIN BOND
M  V30 1 1 1 2
M  V30 2 2 2 3
M  V30 3 2 2 4
M  V30 4 1 2 5
M  V30 5 1 5 6
M  V30 6 2 6 7
M  V30 7 1 7 8
M  V30 8 2 8 9
M  V30 9 1 9 10
M  V30 10 1 10 11
M  V30 11 1 11 12
M  V30 12 1 12 13
M  V30 13 2 13 14
M  V30 14 1 13 15
M  V30 15 1 15 16
M  V30 16 2 16 17
M  V30 17 1 17 18
M  V30 18 2 18 19
M  V30 19 1 19 20
M  V30 20 1 19 21
M  V30 21 2 21 22
M  V30 22 1 22 23
M  V30 23 2 23 24
M  V30 24 1 24 25
M  V30 25 2 10 26
M  V30 26 1 26 6
M  V30 27 1 24 18
M  V30 28 1 1 27
M  V30 29 1 1 28
M  V30 30 1 1 29
M  V30 31 1 5 30
M  V30 32 1 7 31
M  V30 33 1 8 32
M  V30 34 1 9 33
M  V30 35 1 11 34
M  V30 36 1 12 35
M  V30 37 1 12 36
M  V30 38 1 15 37
M  V30 39 1 17 38
M  V30 40 1 21 39
M  V30 41 1 23 40
M  V30 42 1 26 41
M  V30 END BOND
M  V30 END CTAB
M  END
>  <Dataset>  (995) 
ChEMBL_Kinases

>  <Ligand_Instance>  (995) 
nan

>  <PDB_ID>  (995) 
nan

>  <Standardized_SMILES>  (995) 
CS(=O)(=O)Nc1cccc(NCC(=O)N/N=C/c2c(Cl)cncc2Cl)c1

>  <Name>  (995) 
nan

>  <Pocket>  (995) 
nan

>  <ATP_Site>  (995) 
nan

>  <Peripheral>  (995) 
nan

>  <Num_H_Atoms_ProtBoundConf>  (995) 
nan

>  <Num_Resolved_Atoms>  (995) 
nan

>  <Num_Not_Resolved_Atoms>  (995) 
nan

$$$$
CHEMBL3727569
     RDKit          3D

  0  0  0  0  0  0  0  0  0  0999 V3000
M  V30 BEGIN CTAB
M  V30 COUNTS 50 54 0 0 0
M  V30 BEGIN ATOM
M  V30 1 N -2.058302 -1.974193 -0.636388 0
M  V30 2 C -0.753674 -1.617301 -1.146720 0 CFG=1
M  V30 3 C 0.366160 -2.289561 -0.432244 0
M  V30 4 O 0.434450 -2.010994 0.940879 0
M  V30 5 C 0.612230 -0.717870 1.397653 0
M  V30 6 N 0.741609 0.403159 0.629589 0
M  V30 7 C 0.905821 1.550334 1.309955 0
M  V30 8 C 1.054466 2.816650 0.557742 0
M  V30 9 C 1.020592 2.786064 -0.819939 0
M  V30 10 C 1.150912 3.915906 -1.597396 0
M  V30 11 N 1.319360 5.106367 -0.981369 0
M  V30 12 C 1.357005 5.171173 0.364654 0
M  V30 13 C 1.225053 4.028443 1.144260 0
M  V30 14 N 0.947630 1.651785 2.627766 0
M  V30 15 C 0.825394 0.573257 3.469735 0
M  V30 16 C 0.663431 -0.559431 2.806099 0
M  V30 17 S 0.534877 -1.756908 4.071476 0
M  V30 18 C 0.709685 -0.637437 5.406612 0
M  V30 19 C 0.706523 -0.892147 6.790712 0
M  V30 20 C 0.863003 0.163724 7.663285 0
M  V30 21 C 1.009524 1.389021 7.059058 0
M  V30 22 C 1.009953 1.614372 5.725265 0
M  V30 23 Cl 1.217214 3.292870 5.199211 0
M  V30 24 C 0.851988 0.553793 4.812498 0
M  V30 25 C -0.747574 -1.863780 -2.631905 0
M  V30 26 C -1.013741 -3.263646 -3.011060 0
M  V30 27 C -2.251829 -3.830927 -3.264475 0
M  V30 28 C -2.393919 -5.156733 -3.613837 0
M  V30 29 C -1.317631 -5.988539 -3.730140 0
M  V30 30 C -0.071802 -5.473534 -3.489322 0
M  V30 31 C 0.074097 -4.130926 -3.135356 0
M  V30 32 H -2.792521 -1.685532 -1.321012 0
M  V30 33 H -2.307102 -1.509248 0.266155 0
M  V30 34 H -0.639640 -0.523480 -1.026512 0
M  V30 35 H 0.337901 -3.401364 -0.509451 0
M  V30 36 H 1.340157 -1.992190 -0.871760 0
M  V30 37 H 0.883581 1.816611 -1.313965 0
M  V30 38 H 1.117275 3.837502 -2.677068 0
M  V30 39 H 1.489786 6.101170 0.900802 0
M  V30 40 H 1.255017 4.079415 2.219492 0
M  V30 41 H 0.581568 -1.908193 7.132273 0
M  V30 42 H 0.851713 -0.096742 8.707199 0
M  V30 43 H 1.133878 2.225714 7.766812 0
M  V30 44 H 0.246527 -1.586150 -3.024194 0
M  V30 45 H -1.565231 -1.232704 -3.063288 0
M  V30 46 H -3.095396 -3.180686 -3.173757 0
M  V30 47 H -3.386003 -5.554158 -3.802382 0
M  V30 48 H -1.468208 -7.017846 -4.004925 0
M  V30 49 H 0.832513 -6.086960 -3.565322 0
M  V30 50 H 1.093203 -3.779590 -2.956127 0
M  V30 END ATOM
M  V30 BEGIN BOND
M  V30 1 1 1 2
M  V30 2 1 2 3
M  V30 3 1 3 4
M  V30 4 1 4 5
M  V30 5 2 5 6
M  V30 6 1 6 7
M  V30 7 1 7 8
M  V30 8 2 8 9
M  V30 9 1 9 10
M  V30 10 2 10 11
M  V30 11 1 11 12
M  V30 12 2 12 13
M  V30 13 2 7 14
M  V30 14 1 14 15
M  V30 15 2 15 16
M  V30 16 1 16 17
M  V30 17 1 17 18
M  V30 18 2 18 19
M  V30 19 1 19 20
M  V30 20 2 20 21
M  V30 21 1 21 22
M  V30 22 1 22 23
M  V30 23 2 22 24
M  V30 24 1 2 25
M  V30 25 1 25 26
M  V30 26 2 26 27
M  V30 27 1 27 28
M  V30 28 2 28 29
M  V30 29 1 29 30
M  V30 30 2 30 31
M  V30 31 1 16 5
M  V30 32 1 24 18
M  V30 33 1 31 26
M  V30 34 1 13 8
M  V30 35 1 24 15
M  V30 36 1 1 32
M  V30 37 1 1 33
M  V30 38 1 2 34 CFG=3
M  V30 39 1 3 35
M  V30 40 1 3 36
M  V30 41 1 9 37
M  V30 42 1 10 38
M  V30 43 1 12 39
M  V30 44 1 13 40
M  V30 45 1 19 41
M  V30 46 1 20 42
M  V30 47 1 21 43
M  V30 48 1 25 44
M  V30 49 1 25 45
M  V30 50 1 27 46
M  V30 51 1 28 47
M  V30 52 1 29 48
M  V30 53 1 30 49
M  V30 54 1 31 50
M  V30 END BOND
M  V30 END CTAB
M  END
>  <Dataset>  (996) 
ChEMBL_Kinases

>  <Ligand_Instance>  (996) 
nan

>  <PDB_ID>  (996) 
nan

>  <Standardized_SMILES>  (996) 
N[C@@H](COc1nc(-c2ccncc2)nc2c1sc1cccc(Cl)c12)Cc1ccccc1

>  <Name>  (996) 
nan

>  <Pocket>  (996) 
nan

>  <ATP_Site>  (996) 
nan

>  <Peripheral>  (996) 
nan

>  <Num_H_Atoms_ProtBoundConf>  (996) 
nan

>  <Num_Resolved_Atoms>  (996) 
nan

>  <Num_Not_Resolved_Atoms>  (996) 
nan

$$$$
CHEMBL3727561
     RDKit          3D

  0  0  0  0  0  0  0  0  0  0999 V3000
M  V30 BEGIN CTAB
M  V30 COUNTS 58 62 0 0 0
M  V30 BEGIN ATOM
M  V30 1 C 2.935654 2.977443 5.264004 0
M  V30 2 C 2.501275 1.884492 4.349900 0
M  V30 3 C 1.753386 0.854059 4.882050 0
M  V30 4 C 1.338265 -0.177313 4.040883 0
M  V30 5 C 1.671223 -0.169124 2.689356 0
M  V30 6 C 2.422938 0.873928 2.172660 0
M  V30 7 C 2.718359 0.782354 0.729063 0
M  V30 8 C 1.672868 1.444166 -0.126215 0 CFG=2
M  V30 9 N 1.539133 2.847469 0.169768 0
M  V30 10 C 0.362621 0.753212 -0.123763 0
M  V30 11 N 0.334731 -0.603230 -0.589871 0
M  V30 12 C -0.885601 -1.332496 -0.620153 0
M  V30 13 N -1.964423 -0.670984 -0.186721 0
M  V30 14 C -3.212582 -1.116148 -0.107885 0
M  V30 15 C -4.291724 -0.274778 0.388413 0
M  V30 16 C -5.572233 -0.785982 0.450302 0
M  V30 17 C -6.503291 0.108485 0.937351 0
M  V30 18 N -6.212558 1.371712 1.323800 0
M  V30 19 C -4.958413 1.850196 1.255437 0
M  V30 20 C -3.960047 1.007750 0.773918 0
M  V30 21 N -3.368374 -2.382362 -0.520713 0
M  V30 22 C -2.335129 -3.082864 -0.959273 0
M  V30 23 S -2.270033 -4.722273 -1.543459 0
M  V30 24 C -0.526113 -4.768640 -1.886962 0
M  V30 25 C -0.052502 -3.445719 -1.514622 0
M  V30 26 C -1.041503 -2.628988 -1.043703 0
M  V30 27 C 1.380710 -3.529303 -1.819146 0
M  V30 28 C 1.475446 -3.856871 -3.325774 0
M  V30 29 C 1.231576 -5.335665 -3.543399 0
M  V30 30 C 0.325276 -5.870936 -2.426025 0
M  V30 31 C 2.832631 1.894788 3.010191 0
M  V30 32 H 3.382701 2.599085 6.193363 0
M  V30 33 H 2.027502 3.577946 5.492029 0
M  V30 34 H 3.657925 3.604560 4.712912 0
M  V30 35 H 1.484119 0.824425 5.918121 0
M  V30 36 H 0.752755 -0.997806 4.423407 0
M  V30 37 H 1.325634 -0.994766 2.070690 0
M  V30 38 H 3.678531 1.345203 0.585527 0
M  V30 39 H 2.917364 -0.240958 0.408997 0
M  V30 40 H 2.070470 1.390322 -1.181278 0
M  V30 41 H 2.403159 3.291467 0.493135 0
M  V30 42 H 1.144870 3.323168 -0.679417 0
M  V30 43 H -0.300280 1.329163 -0.838071 0
M  V30 44 H -0.183464 0.820136 0.841825 0
M  V30 45 H 1.321590 -0.757285 -0.822459 0
M  V30 46 H -5.805672 -1.787697 0.144402 0
M  V30 47 H -7.537420 -0.185864 1.028705 0
M  V30 48 H -4.771288 2.864338 1.574370 0
M  V30 49 H -2.954027 1.402589 0.722931 0
M  V30 50 H 1.962751 -2.636690 -1.661037 0
M  V30 51 H 1.834868 -4.420001 -1.284418 0
M  V30 52 H 0.725144 -3.215025 -3.830987 0
M  V30 53 H 2.467983 -3.544826 -3.664060 0
M  V30 54 H 0.631273 -5.402162 -4.473827 0
M  V30 55 H 2.141106 -5.930644 -3.532790 0
M  V30 56 H -0.316320 -6.636063 -2.853650 0
M  V30 57 H 0.932060 -6.240939 -1.585931 0
M  V30 58 H 3.409707 2.684094 2.585363 0
M  V30 END ATOM
M  V30 BEGIN BOND
M  V30 1 1 1 2
M  V30 2 2 2 3
M  V30 3 1 3 4
M  V30 4 2 4 5
M  V30 5 1 5 6
M  V30 6 1 6 7
M  V30 7 1 7 8
M  V30 8 1 8 9
M  V30 9 1 8 10
M  V30 10 1 10 11
M  V30 11 1 11 12
M  V30 12 2 12 13
M  V30 13 1 13 14
M  V30 14 1 14 15
M  V30 15 2 15 16
M  V30 16 1 16 17
M  V30 17 2 17 18
M  V30 18 1 18 19
M  V30 19 2 19 20
M  V30 20 2 14 21
M  V30 21 1 21 22
M  V30 22 1 22 23
M  V30 23 1 23 24
M  V30 24 2 24 25
M  V30 25 1 25 26
M  V30 26 1 25 27
M  V30 27 1 27 28
M  V30 28 1 28 29
M  V30 29 1 29 30
M  V30 30 2 6 31
M  V30 31 1 31 2
M  V30 32 1 26 12
M  V30 33 1 20 15
M  V30 34 2 26 22
M  V30 35 1 30 24
M  V30 36 1 1 32
M  V30 37 1 1 33
M  V30 38 1 1 34
M  V30 39 1 3 35
M  V30 40 1 4 36
M  V30 41 1 5 37
M  V30 42 1 7 38
M  V30 43 1 7 39
M  V30 44 1 8 40 CFG=3
M  V30 45 1 9 41
M  V30 46 1 9 42
M  V30 47 1 10 43
M  V30 48 1 10 44
M  V30 49 1 11 45
M  V30 50 1 16 46
M  V30 51 1 17 47
M  V30 52 1 19 48
M  V30 53 1 20 49
M  V30 54 1 27 50
M  V30 55 1 27 51
M  V30 56 1 28 52
M  V30 57 1 28 53
M  V30 58 1 29 54
M  V30 59 1 29 55
M  V30 60 1 30 56
M  V30 61 1 30 57
M  V30 62 1 31 58
M  V30 END BOND
M  V30 END CTAB
M  END
>  <Dataset>  (997) 
ChEMBL_Kinases

>  <Ligand_Instance>  (997) 
nan

>  <PDB_ID>  (997) 
nan

>  <Standardized_SMILES>  (997) 
Cc1cccc(C[C@H](N)CNc2nc(-c3ccncc3)nc3sc4c(c23)CCCC4)c1

>  <Name>  (997) 
nan

>  <Pocket>  (997) 
nan

>  <ATP_Site>  (997) 
nan

>  <Peripheral>  (997) 
nan

>  <Num_H_Atoms_ProtBoundConf>  (997) 
nan

>  <Num_Resolved_Atoms>  (997) 
nan

>  <Num_Not_Resolved_Atoms>  (997) 
nan

$$$$
CHEMBL571142
     RDKit          3D

  0  0  0  0  0  0  0  0  0  0999 V3000
M  V30 BEGIN CTAB
M  V30 COUNTS 62 65 0 0 0
M  V30 BEGIN ATOM
M  V30 1 C 6.429566 0.482722 7.435279 0
M  V30 2 O 6.587464 -0.188105 6.221958 0
M  V30 3 C 5.687159 -0.174730 5.192271 0
M  V30 4 C 5.931642 -0.867732 4.034281 0
M  V30 5 C 5.035704 -0.862125 2.993372 0
M  V30 6 C 3.836972 -0.158433 3.052189 0
M  V30 7 C 2.961411 -0.213334 1.906440 0
M  V30 8 C 1.795251 0.331309 1.671085 0
M  V30 9 C 1.028690 0.173767 0.438607 0
M  V30 10 O 1.465503 -0.527475 -0.512405 0
M  V30 11 N -0.224826 0.808694 0.288648 0
M  V30 12 C -0.771257 0.497576 -1.006931 0
M  V30 13 C -1.571934 -0.621442 -1.120287 0
M  V30 14 C -2.176720 -1.063320 -2.305036 0
M  V30 15 C -3.013506 -2.218276 -2.421169 0
M  V30 16 C -4.270190 -2.339352 -1.868592 0
M  V30 17 C -5.079726 -1.435397 -1.075574 0
M  V30 18 C -4.902882 -0.907108 0.185755 0
M  V30 19 C -5.843035 -0.051239 0.715992 0
M  V30 20 C -6.983437 0.321271 0.045440 0
M  V30 21 F -7.843453 1.169998 0.661583 0
M  V30 22 C -7.168281 -0.203977 -1.219255 0
M  V30 23 C -6.235106 -1.070798 -1.780105 0
M  V30 24 N -4.686393 -3.576299 -2.221397 0
M  V30 25 O -3.765896 -4.165630 -2.929358 0
M  V30 26 C -2.711844 -3.382790 -3.087779 0
M  V30 27 C -1.517091 -3.813290 -3.856344 0
M  V30 28 C -1.658592 -3.418484 -5.326531 0
M  V30 29 C -0.258893 -3.188367 -3.321980 0
M  V30 30 C -1.861635 -0.215964 -3.368914 0
M  V30 31 C -1.067817 0.909125 -3.299343 0
M  V30 32 N -0.534237 1.242816 -2.101559 0
M  V30 33 C 3.649324 0.514106 4.234094 0
M  V30 34 O 2.489260 1.238617 4.381849 0
M  V30 35 C 2.169632 1.973389 5.538620 0
M  V30 36 C 4.528204 0.526194 5.292021 0
M  V30 37 H 7.210855 0.065823 8.134860 0
M  V30 38 H 5.433318 0.220284 7.880308 0
M  V30 39 H 6.577725 1.568005 7.402672 0
M  V30 40 H 6.846633 -1.433147 3.930438 0
M  V30 41 H 5.305652 -1.443330 2.098108 0
M  V30 42 H 3.278408 -0.803946 1.044906 0
M  V30 43 H 1.399221 0.935608 2.467820 0
M  V30 44 H -0.581996 1.395398 1.094373 0
M  V30 45 H -1.751250 -1.214727 -0.221776 0
M  V30 46 H -3.983773 -1.257414 0.630759 0
M  V30 47 H -5.605456 0.298895 1.700429 0
M  V30 48 H -8.077382 0.095845 -1.749935 0
M  V30 49 H -6.518446 -1.406049 -2.791311 0
M  V30 50 H -1.435658 -4.928236 -3.886523 0
M  V30 51 H -2.119148 -4.259765 -5.915113 0
M  V30 52 H -0.678898 -3.210384 -5.757867 0
M  V30 53 H -2.364073 -2.586580 -5.398370 0
M  V30 54 H -0.274348 -2.927564 -2.263826 0
M  V30 55 H 0.048042 -2.305980 -3.946735 0
M  V30 56 H 0.622219 -3.889683 -3.436604 0
M  V30 57 H -2.262536 -0.436108 -4.348879 0
M  V30 58 H -0.875783 1.509424 -4.173243 0
M  V30 59 H 1.890937 1.282317 6.355985 0
M  V30 60 H 1.344421 2.670708 5.299147 0
M  V30 61 H 3.014396 2.631061 5.875273 0
M  V30 62 H 4.306706 1.081388 6.191889 0
M  V30 END ATOM
M  V30 BEGIN BOND
M  V30 1 1 1 2
M  V30 2 1 2 3
M  V30 3 2 3 4
M  V30 4 1 4 5
M  V30 5 2 5 6
M  V30 6 1 6 7
M  V30 7 2 7 8
M  V30 8 1 8 9
M  V30 9 2 9 10
M  V30 10 1 9 11
M  V30 11 1 11 12
M  V30 12 2 12 13
M  V30 13 1 13 14
M  V30 14 1 14 15
M  V30 15 1 15 16
M  V30 16 1 16 17
M  V30 17 2 17 18
M  V30 18 1 18 19
M  V30 19 2 19 20
M  V30 20 1 20 21
M  V30 21 1 20 22
M  V30 22 2 22 23
M  V30 23 2 16 24
M  V30 24 1 24 25
M  V30 25 1 25 26
M  V30 26 1 26 27
M  V30 27 1 27 28
M  V30 28 1 27 29
M  V30 29 2 14 30
M  V30 30 1 30 31
M  V30 31 2 31 32
M  V30 32 1 6 33
M  V30 33 1 33 34
M  V30 34 1 34 35
M  V30 35 2 33 36
M  V30 36 1 36 3
M  V30 37 1 32 12
M  V30 38 2 26 15
M  V30 39 1 23 17
M  V30 40 1 1 37
M  V30 41 1 1 38
M  V30 42 1 1 39
M  V30 43 1 4 40
M  V30 44 1 5 41
M  V30 45 1 7 42
M  V30 46 1 8 43
M  V30 47 1 11 44
M  V30 48 1 13 45
M  V30 49 1 18 46
M  V30 50 1 19 47
M  V30 51 1 22 48
M  V30 52 1 23 49
M  V30 53 1 27 50
M  V30 54 1 28 51
M  V30 55 1 28 52
M  V30 56 1 28 53
M  V30 57 1 29 54
M  V30 58 1 29 55
M  V30 59 1 29 56
M  V30 60 1 30 57
M  V30 61 1 31 58
M  V30 62 1 35 59
M  V30 63 1 35 60
M  V30 64 1 35 61
M  V30 65 1 36 62
M  V30 END BOND
M  V30 END CTAB
M  END
>  <Dataset>  (998) 
ChEMBL_Kinases

>  <Ligand_Instance>  (998) 
nan

>  <PDB_ID>  (998) 
nan

>  <Standardized_SMILES>  (998) 
COc1ccc(/C=C/C(=O)Nc2cc(-c3c(-c4ccc(F)cc4)noc3C(C)C)ccn2)c(OC)c1

>  <Name>  (998) 
nan

>  <Pocket>  (998) 
nan

>  <ATP_Site>  (998) 
nan

>  <Peripheral>  (998) 
nan

>  <Num_H_Atoms_ProtBoundConf>  (998) 
nan

>  <Num_Resolved_Atoms>  (998) 
nan

>  <Num_Not_Resolved_Atoms>  (998) 
nan

$$$$
CHEMBL557273
     RDKit          3D

  0  0  0  0  0  0  0  0  0  0999 V3000
M  V30 BEGIN CTAB
M  V30 COUNTS 37 40 0 0 0
M  V30 BEGIN ATOM
M  V30 1 C 0.563713 -6.416924 3.198752 0
M  V30 2 N 0.704526 -4.974867 3.068821 0
M  V30 3 C 0.333597 -4.288506 1.959101 0
M  V30 4 C 0.492410 -2.913528 1.893935 0
M  V30 5 C 0.078196 -2.240719 0.685023 0
M  V30 6 C 0.184164 -0.882150 0.498748 0
M  V30 7 C -0.245166 -0.348805 -0.701163 0
M  V30 8 C -0.138163 1.093308 -0.911989 0
M  V30 9 N -0.504955 1.776903 -2.010926 0
M  V30 10 C -0.267391 3.092174 -1.868282 0
M  V30 11 C -0.475950 4.166699 -2.715155 0
M  V30 12 C -0.102113 5.420919 -2.226671 0
M  V30 13 C 0.439520 5.561938 -0.976332 0
M  V30 14 C 0.634041 4.469050 -0.157106 0
M  V30 15 C 0.279634 3.209956 -0.597520 0
M  V30 16 N 0.353343 1.982558 -0.023811 0
M  V30 17 C -0.770661 -1.142005 -1.701712 0
M  V30 18 O -1.169354 -0.663837 -2.810466 0
M  V30 19 N -0.853178 -2.463732 -1.471252 0
M  V30 20 N -0.439818 -2.971673 -0.317776 0
M  V30 21 C 1.032338 -2.274543 2.978933 0
M  V30 22 C 1.429046 -2.937417 4.142728 0
M  V30 23 C 1.226247 -4.319975 4.105100 0
M  V30 24 O 1.578845 -4.938333 5.148942 0
M  V30 25 H -0.321029 -6.719788 3.778011 0
M  V30 26 H 0.506966 -6.910263 2.201501 0
M  V30 27 H 1.470167 -6.813984 3.705259 0
M  V30 28 H -0.086753 -4.845291 1.133602 0
M  V30 29 H 0.585879 -0.261099 1.258870 0
M  V30 30 H -0.899698 4.072803 -3.698680 0
M  V30 31 H -0.275459 6.259029 -2.912735 0
M  V30 32 H 0.699221 6.561493 -0.678498 0
M  V30 33 H 1.062483 4.587978 0.829553 0
M  V30 34 H 0.729829 1.809578 0.933026 0
M  V30 35 H -1.251294 -3.077203 -2.225211 0
M  V30 36 H 1.170214 -1.213853 2.965418 0
M  V30 37 H 1.844250 -2.402315 4.962932 0
M  V30 END ATOM
M  V30 BEGIN BOND
M  V30 1 1 1 2
M  V30 2 1 2 3
M  V30 3 2 3 4
M  V30 4 1 4 5
M  V30 5 1 5 6
M  V30 6 2 6 7
M  V30 7 1 7 8
M  V30 8 2 8 9
M  V30 9 1 9 10
M  V30 10 2 10 11
M  V30 11 1 11 12
M  V30 12 2 12 13
M  V30 13 1 13 14
M  V30 14 2 14 15
M  V30 15 1 15 16
M  V30 16 1 7 17
M  V30 17 2 17 18
M  V30 18 1 17 19
M  V30 19 1 19 20
M  V30 20 1 4 21
M  V30 21 2 21 22
M  V30 22 1 22 23
M  V30 23 2 23 24
M  V30 24 1 23 2
M  V30 25 2 20 5
M  V30 26 1 16 8
M  V30 27 1 15 10
M  V30 28 1 1 25
M  V30 29 1 1 26
M  V30 30 1 1 27
M  V30 31 1 3 28
M  V30 32 1 6 29
M  V30 33 1 11 30
M  V30 34 1 12 31
M  V30 35 1 13 32
M  V30 36 1 14 33
M  V30 37 1 16 34
M  V30 38 1 19 35
M  V30 39 1 21 36
M  V30 40 1 22 37
M  V30 END BOND
M  V30 END CTAB
M  END
>  <Dataset>  (999) 
ChEMBL_Kinases

>  <Ligand_Instance>  (999) 
nan

>  <PDB_ID>  (999) 
nan

>  <Standardized_SMILES>  (999) 
Cn1cc(-c2cc(-c3nc4ccccc4[nH]3)c(=O)[nH]n2)ccc1=O

>  <Name>  (999) 
nan

>  <Pocket>  (999) 
nan

>  <ATP_Site>  (999) 
nan

>  <Peripheral>  (999) 
nan

>  <Num_H_Atoms_ProtBoundConf>  (999) 
nan

>  <Num_Resolved_Atoms>  (999) 
nan

>  <Num_Not_Resolved_Atoms>  (999) 
nan

$$$$
