CHEMBL2407901
     RDKit          3D

  0  0  0  0  0  0  0  0  0  0999 V3000
M  V30 BEGIN CTAB
M  V30 COUNTS 63 66 0 0 0
M  V30 BEGIN ATOM
M  V30 1 C 5.482390 2.043064 5.345144 0
M  V30 2 O 4.830938 2.619493 4.238849 0
M  V30 3 C 3.705034 1.806155 3.984938 0
M  V30 4 C 2.958326 2.365429 2.807859 0
M  V30 5 O 1.816105 1.673693 2.427697 0
M  V30 6 C 1.645441 0.401822 1.972155 0
M  V30 7 C 2.565158 -0.591462 1.728046 0
M  V30 8 C 2.294212 -1.859662 1.265811 0
M  V30 9 C 0.961589 -2.110128 1.041518 0
M  V30 10 C -0.013515 -1.169141 1.263807 0
M  V30 11 C 0.287982 0.120489 1.734270 0
M  V30 12 O -0.731925 1.033674 1.934576 0
M  V30 13 C -0.802930 2.322341 1.330253 0
M  V30 14 C -0.837248 2.116695 -0.134833 0
M  V30 15 O -0.814657 0.897157 -0.090838 0
M  V30 16 N -0.870910 1.947952 -1.547776 0
M  V30 17 C -0.924583 3.300463 -1.953273 0
M  V30 18 C -0.872156 0.917188 -2.564800 0
M  V30 19 C -2.159874 0.410952 -3.004313 0
M  V30 20 C -3.099798 -0.256794 -2.115903 0
M  V30 21 N -2.856650 -1.484416 -1.510886 0
M  V30 22 C -3.850001 -1.962256 -0.606490 0
M  V30 23 C -1.810347 -2.343959 -1.834918 0
M  V30 24 C -2.070320 -3.691328 -1.200384 0
M  V30 25 C -3.230023 -4.363808 -1.635086 0
M  V30 26 N -3.346087 -5.543315 -0.984130 0
M  V30 27 C -2.275480 -5.579667 -0.173517 0
M  V30 28 N -1.976459 -6.582765 0.670730 0
M  V30 29 C -0.871458 -6.495129 1.425269 0
M  V30 30 N -0.082946 -5.411111 1.326392 0
M  V30 31 C -0.380276 -4.406509 0.482718 0
M  V30 32 C -1.485453 -4.476913 -0.280902 0
M  V30 33 N 0.586957 -3.373388 0.518717 0
M  V30 34 H 4.782724 2.028920 6.224433 0
M  V30 35 H 5.746968 0.978450 5.141524 0
M  V30 36 H 6.374215 2.624609 5.646140 0
M  V30 37 H 4.034586 0.774603 3.869820 0
M  V30 38 H 3.091272 1.863173 4.919943 0
M  V30 39 H 3.658476 2.388350 1.915795 0
M  V30 40 H 2.662634 3.409775 3.070373 0
M  V30 41 H 3.588950 -0.348388 1.904373 0
M  V30 42 H 3.100688 -2.558526 1.110665 0
M  V30 43 H -1.058724 -1.464339 1.074469 0
M  V30 44 H 0.054888 2.937476 1.625055 0
M  V30 45 H -1.774868 2.758796 1.668275 0
M  V30 46 H -1.712384 3.938081 -1.509946 0
M  V30 47 H 0.046810 3.791531 -1.706020 0
M  V30 48 H -0.946520 3.402565 -3.091226 0
M  V30 49 H -0.183493 0.093904 -2.219697 0
M  V30 50 H -0.297704 1.365800 -3.386838 0
M  V30 51 H -1.970697 -0.296532 -3.869443 0
M  V30 52 H -2.716805 1.247667 -3.529859 0
M  V30 53 H -4.061551 -0.417772 -2.716200 0
M  V30 54 H -3.518164 0.425419 -1.298995 0
M  V30 55 H -4.115908 -1.070867 0.047208 0
M  V30 56 H -3.429280 -2.697085 0.124320 0
M  V30 57 H -4.778705 -2.326728 -1.062661 0
M  V30 58 H -0.852339 -2.039824 -1.360398 0
M  V30 59 H -1.686338 -2.509908 -2.922821 0
M  V30 60 H -4.030825 -4.147142 -2.368254 0
M  V30 61 H -4.103890 -6.284628 -1.079128 0
M  V30 62 H -0.642111 -7.304794 2.098356 0
M  V30 63 H 1.311591 -3.769971 -0.159669 0
M  V30 END ATOM
M  V30 BEGIN BOND
M  V30 1 1 1 2
M  V30 2 1 2 3
M  V30 3 1 3 4
M  V30 4 1 4 5
M  V30 5 1 5 6
M  V30 6 2 6 7
M  V30 7 1 7 8
M  V30 8 2 8 9
M  V30 9 1 9 10
M  V30 10 2 10 11
M  V30 11 1 11 12
M  V30 12 1 12 13
M  V30 13 1 13 14
M  V30 14 2 14 15
M  V30 15 1 14 16
M  V30 16 1 16 17
M  V30 17 1 16 18
M  V30 18 1 18 19
M  V30 19 1 19 20
M  V30 20 1 20 21
M  V30 21 1 21 22
M  V30 22 1 21 23
M  V30 23 1 23 24
M  V30 24 2 24 25
M  V30 25 1 25 26
M  V30 26 1 26 27
M  V30 27 2 27 28
M  V30 28 1 28 29
M  V30 29 2 29 30
M  V30 30 1 30 31
M  V30 31 2 31 32
M  V30 32 1 31 33
M  V30 33 1 11 6
M  V30 34 1 32 24
M  V30 35 1 33 9
M  V30 36 1 32 27
M  V30 37 1 1 34
M  V30 38 1 1 35
M  V30 39 1 1 36
M  V30 40 1 3 37
M  V30 41 1 3 38
M  V30 42 1 4 39
M  V30 43 1 4 40
M  V30 44 1 7 41
M  V30 45 1 8 42
M  V30 46 1 10 43
M  V30 47 1 13 44
M  V30 48 1 13 45
M  V30 49 1 17 46
M  V30 50 1 17 47
M  V30 51 1 17 48
M  V30 52 1 18 49
M  V30 53 1 18 50
M  V30 54 1 19 51
M  V30 55 1 19 52
M  V30 56 1 20 53
M  V30 57 1 20 54
M  V30 58 1 22 55
M  V30 59 1 22 56
M  V30 60 1 22 57
M  V30 61 1 23 58
M  V30 62 1 23 59
M  V30 63 1 25 60
M  V30 64 1 26 61
M  V30 65 1 29 62
M  V30 66 1 33 63
M  V30 END BOND
M  V30 END CTAB
M  END
>  <Dataset>  (1) 
ChEMBL_Kinases

>  <Ligand_Instance>  (1) 
nan

>  <PDB_ID>  (1) 
nan

>  <Standardized_SMILES>  (1) 
COCCOc1ccc2cc1OCC(=O)N(C)CCCN(C)Cc1c[nH]c3ncnc(c13)N2

>  <Name>  (1) 
nan

>  <Pocket>  (1) 
nan

>  <ATP_Site>  (1) 
nan

>  <Peripheral>  (1) 
nan

>  <Num_H_Atoms_ProtBoundConf>  (1) 
nan

>  <Num_Resolved_Atoms>  (1) 
nan

>  <Num_Not_Resolved_Atoms>  (1) 
nan

$$$$
CHEMBL2407899
     RDKit          3D

  0  0  0  0  0  0  0  0  0  0999 V3000
M  V30 BEGIN CTAB
M  V30 COUNTS 61 66 0 0 0
M  V30 BEGIN ATOM
M  V30 1 C 9.615011 -2.695577 0.251589 0
M  V30 2 N 8.694372 -1.765476 -0.363766 0
M  V30 3 C 7.546675 -2.529991 -0.858491 0
M  V30 4 C 6.475852 -1.665496 -1.444571 0
M  V30 5 N 5.994119 -0.669388 -0.497781 0
M  V30 6 C 4.661294 -0.348374 -0.121838 0
M  V30 7 C 4.514672 0.296871 1.077089 0
M  V30 8 C 3.281303 0.678116 1.525798 0
M  V30 9 C 2.162165 0.427971 0.791382 0
M  V30 10 C 0.749890 0.644196 0.830098 0
M  V30 11 C -0.464976 0.746230 0.698698 0
M  V30 12 C -1.676556 1.238297 1.339086 0
M  V30 13 N -1.871683 1.895223 2.474535 0
M  V30 14 N -3.200064 2.091061 2.671283 0
M  V30 15 C -3.779331 1.521100 1.607093 0
M  V30 16 C -5.117092 1.412603 1.307420 0
M  V30 17 C -5.648481 0.792180 0.181356 0
M  V30 18 C -6.981878 0.620810 -0.280097 0
M  V30 19 C -7.661743 -0.473581 -0.172060 0
M  V30 20 C -9.041144 -0.749592 -0.630244 0
M  V30 21 O -9.818394 0.018299 -1.224750 0
M  V30 22 N -9.395148 -2.080828 -0.278325 0
M  V30 23 C -8.290169 -2.692670 0.393665 0
M  V30 24 C -8.040347 -3.942806 0.968480 0
M  V30 25 C -6.865626 -4.292269 1.588388 0
M  V30 26 C -5.842909 -3.326949 1.652848 0
M  V30 27 C -6.116408 -2.099870 1.075022 0
M  V30 28 C -7.279602 -1.728431 0.445653 0
M  V30 29 C -4.667124 0.248256 -0.683812 0
M  V30 30 C -3.324277 0.332223 -0.419912 0
M  V30 31 C -2.882502 0.967280 0.723977 0
M  V30 32 C 2.336359 -0.239119 -0.442546 0
M  V30 33 N 3.582523 -0.622211 -0.887172 0
M  V30 34 C 7.164878 -0.016599 -0.006490 0
M  V30 35 C 8.135608 -0.911139 0.692958 0
M  V30 36 H 10.636015 -2.272509 0.228879 0
M  V30 37 H 9.581422 -3.643235 -0.307454 0
M  V30 38 H 9.373481 -2.913822 1.310638 0
M  V30 39 H 7.932915 -3.242540 -1.587451 0
M  V30 40 H 7.175046 -3.075207 0.065613 0
M  V30 41 H 6.857328 -1.181642 -2.349548 0
M  V30 42 H 5.620285 -2.356444 -1.671493 0
M  V30 43 H 5.254807 0.599465 1.818045 0
M  V30 44 H 3.006306 1.190498 2.439596 0
M  V30 45 H 0.754633 1.147441 1.848192 0
M  V30 46 H -0.413815 0.348535 -0.340964 0
M  V30 47 H -3.652647 2.580612 3.478290 0
M  V30 48 H -5.934298 1.809482 1.925215 0
M  V30 49 H -7.469265 1.463583 -0.755116 0
M  V30 50 H -10.264399 -2.662016 -0.412013 0
M  V30 51 H -8.845267 -4.670878 0.898452 0
M  V30 52 H -6.793209 -5.281782 1.986190 0
M  V30 53 H -4.959026 -3.663818 2.138133 0
M  V30 54 H -5.246677 -1.495234 1.240204 0
M  V30 55 H -4.871473 -0.264118 -1.609196 0
M  V30 56 H -2.558464 -0.083803 -1.064919 0
M  V30 57 H 1.633528 -0.570892 -1.234324 0
M  V30 58 H 6.861161 0.813367 0.665795 0
M  V30 59 H 7.705364 0.487992 -0.843245 0
M  V30 60 H 8.945010 -0.264758 1.114841 0
M  V30 61 H 7.694159 -1.539242 1.468509 0
M  V30 END ATOM
M  V30 BEGIN BOND
M  V30 1 1 1 2
M  V30 2 1 2 3
M  V30 3 1 3 4
M  V30 4 1 4 5
M  V30 5 1 5 6
M  V30 6 2 6 7
M  V30 7 1 7 8
M  V30 8 2 8 9
M  V30 9 1 9 10
M  V30 10 2 10 11
M  V30 11 1 11 12
M  V30 12 2 12 13
M  V30 13 1 13 14
M  V30 14 1 14 15
M  V30 15 2 15 16
M  V30 16 1 16 17
M  V30 17 1 17 18
M  V30 18 2 18 19
M  V30 19 1 19 20
M  V30 20 2 20 21
M  V30 21 1 20 22
M  V30 22 1 22 23
M  V30 23 2 23 24
M  V30 24 1 24 25
M  V30 25 2 25 26
M  V30 26 1 26 27
M  V30 27 2 27 28
M  V30 28 2 17 29
M  V30 29 1 29 30
M  V30 30 2 30 31
M  V30 31 1 9 32
M  V30 32 2 32 33
M  V30 33 1 5 34
M  V30 34 1 34 35
M  V30 35 1 35 2
M  V30 36 1 33 6
M  V30 37 1 31 12
M  V30 38 1 31 15
M  V30 39 1 28 19
M  V30 40 1 28 23
M  V30 41 1 1 36
M  V30 42 1 1 37
M  V30 43 1 1 38
M  V30 44 1 3 39
M  V30 45 1 3 40
M  V30 46 1 4 41
M  V30 47 1 4 42
M  V30 48 1 7 43
M  V30 49 1 8 44
M  V30 50 1 10 45
M  V30 51 1 11 46
M  V30 52 1 14 47
M  V30 53 1 16 48
M  V30 54 1 18 49
M  V30 55 1 22 50
M  V30 56 1 24 51
M  V30 57 1 25 52
M  V30 58 1 26 53
M  V30 59 1 27 54
M  V30 60 1 29 55
M  V30 61 1 30 56
M  V30 62 1 32 57
M  V30 63 1 34 58
M  V30 64 1 34 59
M  V30 65 1 35 60
M  V30 66 1 35 61
M  V30 END BOND
M  V30 END CTAB
M  END
>  <Dataset>  (2) 
ChEMBL_Kinases

>  <Ligand_Instance>  (2) 
nan

>  <PDB_ID>  (2) 
nan

>  <Standardized_SMILES>  (2) 
CN1CCN(c2ccc(/C=C/c3n[nH]c4cc(/C=C5/C(=O)Nc6ccccc65)ccc34)cn2)CC1

>  <Name>  (2) 
nan

>  <Pocket>  (2) 
nan

>  <ATP_Site>  (2) 
nan

>  <Peripheral>  (2) 
nan

>  <Num_H_Atoms_ProtBoundConf>  (2) 
nan

>  <Num_Resolved_Atoms>  (2) 
nan

>  <Num_Not_Resolved_Atoms>  (2) 
nan

$$$$
CHEMBL2407898
     RDKit          3D

  0  0  0  0  0  0  0  0  0  0999 V3000
M  V30 BEGIN CTAB
M  V30 COUNTS 60 64 0 0 0
M  V30 BEGIN ATOM
M  V30 1 C 2.576242 -3.074889 2.886982 0
M  V30 2 O 3.860027 -3.710689 2.924461 0
M  V30 3 C 4.883568 -3.185048 2.148995 0
M  V30 4 C 6.089912 -3.888575 2.266683 0
M  V30 5 C 7.218362 -3.513497 1.571840 0
M  V30 6 C 7.203725 -2.425364 0.728450 0
M  V30 7 C 6.023095 -1.749619 0.621209 0
M  V30 8 C 4.897240 -2.103104 1.300521 0
M  V30 9 C 6.245119 -0.655249 -0.289540 0
M  V30 10 C 5.320209 0.177102 -0.695148 0
M  V30 11 C 3.906565 0.306843 -0.438089 0
M  V30 12 C 2.814570 -0.536099 -0.673490 0
M  V30 13 C 1.533913 -0.201220 -0.325985 0
M  V30 14 C 1.269270 0.996376 0.277488 0
M  V30 15 C 0.058785 1.484806 0.687268 0
M  V30 16 C -1.309386 1.048714 0.688754 0
M  V30 17 C -2.001074 0.012965 0.313393 0
M  V30 18 C -3.417489 -0.266177 0.394325 0
M  V30 19 C -3.886870 -1.464639 -0.086493 0
M  V30 20 C -5.222986 -1.776967 -0.033078 0
M  V30 21 C -6.148785 -0.894231 0.508243 0
M  V30 22 C -7.552223 -1.324229 0.519554 0
M  V30 23 N -8.309727 -0.982628 -0.641541 0
M  V30 24 C -7.757935 -1.559761 -1.855035 0
M  V30 25 C -8.371127 0.464191 -0.845461 0
M  V30 26 C -5.714484 0.308130 0.995928 0
M  V30 27 C -4.364579 0.582153 0.922977 0
M  V30 28 N 0.383096 2.692307 1.207888 0
M  V30 29 N 1.677558 2.891542 1.109731 0
M  V30 30 C 2.305376 1.862391 0.531847 0
M  V30 31 C 3.589913 1.509944 0.175435 0
M  V30 32 C 7.627631 -0.696267 -0.729904 0
M  V30 33 O 8.174605 0.106274 -1.525418 0
M  V30 34 N 8.202383 -1.817428 -0.075177 0
M  V30 35 H 1.822940 -3.659485 3.422256 0
M  V30 36 H 2.735898 -2.081274 3.355446 0
M  V30 37 H 2.331043 -2.916001 1.796767 0
M  V30 38 H 6.236715 -4.756286 2.889681 0
M  V30 39 H 8.159205 -4.039634 1.646616 0
M  V30 40 H 3.922141 -1.680063 1.355833 0
M  V30 41 H 5.666324 0.960737 -1.391646 0
M  V30 42 H 3.132860 -1.449867 -1.150971 0
M  V30 43 H 0.773799 -0.917645 -0.551247 0
M  V30 44 H -2.069845 1.723607 1.112366 0
M  V30 45 H -1.363011 -0.733460 -0.124657 0
M  V30 46 H -3.215812 -2.211591 -0.528174 0
M  V30 47 H -5.554650 -2.741593 -0.426671 0
M  V30 48 H -8.105633 -0.928770 1.416909 0
M  V30 49 H -7.594389 -2.442112 0.614852 0
M  V30 50 H -7.712157 -2.659550 -1.820026 0
M  V30 51 H -6.718486 -1.166603 -1.939622 0
M  V30 52 H -8.293186 -1.188205 -2.752404 0
M  V30 53 H -9.002920 0.903674 -0.044302 0
M  V30 54 H -8.834919 0.705951 -1.825667 0
M  V30 55 H -7.316480 0.829665 -0.798355 0
M  V30 56 H -6.421130 1.008691 1.421487 0
M  V30 57 H -4.064949 1.534686 1.316472 0
M  V30 58 H 2.142888 3.760130 1.449858 0
M  V30 59 H 4.307770 2.296477 0.439327 0
M  V30 60 H 9.188160 -2.114502 -0.186869 0
M  V30 END ATOM
M  V30 BEGIN BOND
M  V30 1 1 1 2
M  V30 2 1 2 3
M  V30 3 2 3 4
M  V30 4 1 4 5
M  V30 5 2 5 6
M  V30 6 1 6 7
M  V30 7 2 7 8
M  V30 8 1 7 9
M  V30 9 2 9 10
M  V30 10 1 10 11
M  V30 11 2 11 12
M  V30 12 1 12 13
M  V30 13 2 13 14
M  V30 14 1 14 15
M  V30 15 1 15 16
M  V30 16 2 16 17
M  V30 17 1 17 18
M  V30 18 2 18 19
M  V30 19 1 19 20
M  V30 20 2 20 21
M  V30 21 1 21 22
M  V30 22 1 22 23
M  V30 23 1 23 24
M  V30 24 1 23 25
M  V30 25 1 21 26
M  V30 26 2 26 27
M  V30 27 2 15 28
M  V30 28 1 28 29
M  V30 29 1 29 30
M  V30 30 2 30 31
M  V30 31 1 9 32
M  V30 32 2 32 33
M  V30 33 1 32 34
M  V30 34 1 8 3
M  V30 35 1 31 11
M  V30 36 1 34 6
M  V30 37 1 30 14
M  V30 38 1 27 18
M  V30 39 1 1 35
M  V30 40 1 1 36
M  V30 41 1 1 37
M  V30 42 1 4 38
M  V30 43 1 5 39
M  V30 44 1 8 40
M  V30 45 1 10 41
M  V30 46 1 12 42
M  V30 47 1 13 43
M  V30 48 1 16 44
M  V30 49 1 17 45
M  V30 50 1 19 46
M  V30 51 1 20 47
M  V30 52 1 22 48
M  V30 53 1 22 49
M  V30 54 1 24 50
M  V30 55 1 24 51
M  V30 56 1 24 52
M  V30 57 1 25 53
M  V30 58 1 25 54
M  V30 59 1 25 55
M  V30 60 1 26 56
M  V30 61 1 27 57
M  V30 62 1 29 58
M  V30 63 1 31 59
M  V30 64 1 34 60
M  V30 END BOND
M  V30 END CTAB
M  END
>  <Dataset>  (3) 
ChEMBL_Kinases

>  <Ligand_Instance>  (3) 
nan

>  <PDB_ID>  (3) 
nan

>  <Standardized_SMILES>  (3) 
COc1ccc2c(c1)/C(=C\c1ccc3c(/C=C/c4ccc(CN(C)C)cc4)n[nH]c3c1)C(=O)N2

>  <Name>  (3) 
nan

>  <Pocket>  (3) 
nan

>  <ATP_Site>  (3) 
nan

>  <Peripheral>  (3) 
nan

>  <Num_H_Atoms_ProtBoundConf>  (3) 
nan

>  <Num_Resolved_Atoms>  (3) 
nan

>  <Num_Not_Resolved_Atoms>  (3) 
nan

$$$$
CHEMBL2407897
     RDKit          3D

  0  0  0  0  0  0  0  0  0  0999 V3000
M  V30 BEGIN CTAB
M  V30 COUNTS 56 60 0 0 0
M  V30 BEGIN ATOM
M  V30 1 C 5.989525 -3.100194 2.908664 0
M  V30 2 N 7.062120 -2.134613 2.959151 0
M  V30 3 C 8.293907 -2.743148 3.353685 0
M  V30 4 C 7.129300 -1.360653 1.739332 0
M  V30 5 C 5.845938 -0.646339 1.550074 0
M  V30 6 C 5.516080 0.617768 2.008137 0
M  V30 7 C 4.273088 1.156161 1.752271 0
M  V30 8 C 3.292140 0.494522 1.041929 0
M  V30 9 C 2.007782 1.144995 0.818835 0
M  V30 10 C 0.992404 0.621334 0.168951 0
M  V30 11 C -0.259172 1.349247 -0.006443 0
M  V30 12 N -0.520549 2.587987 0.427619 0
M  V30 13 N -1.753951 2.916036 0.088847 0
M  V30 14 C -2.344843 1.892344 -0.584310 0
M  V30 15 C -3.605721 1.743017 -1.136831 0
M  V30 16 C -3.924318 0.558455 -1.769664 0
M  V30 17 C -5.169889 0.299764 -2.459482 0
M  V30 18 C -6.187765 -0.472315 -2.185354 0
M  V30 19 C -7.417174 -0.717537 -2.903536 0
M  V30 20 O -7.644129 -0.184835 -4.021636 0
M  V30 21 N -8.202136 -1.592387 -2.138121 0
M  V30 22 C -7.450253 -1.871974 -0.964416 0
M  V30 23 C -7.833501 -2.678752 0.096776 0
M  V30 24 C -6.987513 -2.834215 1.189052 0
M  V30 25 C -5.759439 -2.163896 1.186611 0
M  V30 26 C -5.416996 -1.373719 0.115720 0
M  V30 27 C -6.239631 -1.212458 -0.967144 0
M  V30 28 C -2.981987 -0.481938 -1.852924 0
M  V30 29 C -1.737735 -0.289607 -1.288721 0
M  V30 30 C -1.388433 0.884978 -0.647264 0
M  V30 31 C 3.584850 -0.770077 0.568839 0
M  V30 32 C 4.832559 -1.289968 0.834143 0
M  V30 33 H 6.044964 -3.785157 2.062378 0
M  V30 34 H 5.040801 -2.511783 2.973307 0
M  V30 35 H 6.083180 -3.736131 3.836745 0
M  V30 36 H 9.042279 -2.819686 2.529560 0
M  V30 37 H 8.757169 -2.203005 4.220861 0
M  V30 38 H 8.056521 -3.768158 3.749269 0
M  V30 39 H 7.954805 -0.638910 1.779471 0
M  V30 40 H 7.323805 -2.013261 0.860095 0
M  V30 41 H 6.291277 1.123076 2.564352 0
M  V30 42 H 4.137692 2.154702 2.162128 0
M  V30 43 H 1.833122 2.137427 1.203627 0
M  V30 44 H 1.097086 -0.368748 -0.239303 0
M  V30 45 H -2.282935 3.821337 0.274388 0
M  V30 46 H -4.356106 2.520068 -1.092361 0
M  V30 47 H -5.186063 0.905225 -3.378355 0
M  V30 48 H -9.130483 -1.880264 -2.507108 0
M  V30 49 H -8.781906 -3.193918 0.091946 0
M  V30 50 H -7.324091 -3.463035 1.981347 0
M  V30 51 H -5.191331 -2.366026 2.094384 0
M  V30 52 H -4.479430 -0.940605 0.303622 0
M  V30 53 H -3.192145 -1.433996 -2.346274 0
M  V30 54 H -0.989611 -1.078717 -1.338780 0
M  V30 55 H 2.859549 -1.333512 0.008477 0
M  V30 56 H 5.020798 -2.280768 0.446278 0
M  V30 END ATOM
M  V30 BEGIN BOND
M  V30 1 1 1 2
M  V30 2 1 2 3
M  V30 3 1 2 4
M  V30 4 1 4 5
M  V30 5 2 5 6
M  V30 6 1 6 7
M  V30 7 2 7 8
M  V30 8 1 8 9
M  V30 9 2 9 10
M  V30 10 1 10 11
M  V30 11 2 11 12
M  V30 12 1 12 13
M  V30 13 1 13 14
M  V30 14 2 14 15
M  V30 15 1 15 16
M  V30 16 1 16 17
M  V30 17 2 17 18
M  V30 18 1 18 19
M  V30 19 2 19 20
M  V30 20 1 19 21
M  V30 21 1 21 22
M  V30 22 2 22 23
M  V30 23 1 23 24
M  V30 24 2 24 25
M  V30 25 1 25 26
M  V30 26 2 26 27
M  V30 27 2 16 28
M  V30 28 1 28 29
M  V30 29 2 29 30
M  V30 30 1 8 31
M  V30 31 2 31 32
M  V30 32 1 32 5
M  V30 33 1 30 11
M  V30 34 1 30 14
M  V30 35 1 27 18
M  V30 36 1 27 22
M  V30 37 1 1 33
M  V30 38 1 1 34
M  V30 39 1 1 35
M  V30 40 1 3 36
M  V30 41 1 3 37
M  V30 42 1 3 38
M  V30 43 1 4 39
M  V30 44 1 4 40
M  V30 45 1 6 41
M  V30 46 1 7 42
M  V30 47 1 9 43
M  V30 48 1 10 44
M  V30 49 1 13 45
M  V30 50 1 15 46
M  V30 51 1 17 47
M  V30 52 1 21 48
M  V30 53 1 23 49
M  V30 54 1 24 50
M  V30 55 1 25 51
M  V30 56 1 26 52
M  V30 57 1 28 53
M  V30 58 1 29 54
M  V30 59 1 31 55
M  V30 60 1 32 56
M  V30 END BOND
M  V30 END CTAB
M  END
>  <Dataset>  (4) 
ChEMBL_Kinases

>  <Ligand_Instance>  (4) 
nan

>  <PDB_ID>  (4) 
nan

>  <Standardized_SMILES>  (4) 
CN(C)Cc1ccc(/C=C/c2n[nH]c3cc(/C=C4/C(=O)Nc5ccccc54)ccc23)cc1

>  <Name>  (4) 
nan

>  <Pocket>  (4) 
nan

>  <ATP_Site>  (4) 
nan

>  <Peripheral>  (4) 
nan

>  <Num_H_Atoms_ProtBoundConf>  (4) 
nan

>  <Num_Resolved_Atoms>  (4) 
nan

>  <Num_Not_Resolved_Atoms>  (4) 
nan

$$$$
CHEMBL2407896
     RDKit          3D

  0  0  0  0  0  0  0  0  0  0999 V3000
M  V30 BEGIN CTAB
M  V30 COUNTS 45 49 0 0 0
M  V30 BEGIN ATOM
M  V30 1 O 4.154929 2.519855 -4.001736 0
M  V30 2 C 3.819638 1.317370 -3.853446 0
M  V30 3 N 4.174269 0.169433 -4.610685 0
M  V30 4 C 3.521814 -0.948773 -4.021300 0
M  V30 5 C 3.547584 -2.268496 -4.411316 0
M  V30 6 C 2.823321 -3.210127 -3.714163 0
M  V30 7 C 2.064065 -2.828244 -2.614789 0
M  V30 8 C 2.071213 -1.498830 -2.264364 0
M  V30 9 C 2.785586 -0.559371 -2.945673 0
M  V30 10 C 2.945365 0.862634 -2.801557 0
M  V30 11 C 2.318672 1.528205 -1.866791 0
M  V30 12 C 1.451388 1.187183 -0.788300 0
M  V30 13 C 1.590053 0.413497 0.372240 0
M  V30 14 C 0.582673 0.221926 1.276688 0
M  V30 15 C -0.639105 0.801811 1.068964 0
M  V30 16 C -1.754052 0.721395 1.859399 0
M  V30 17 C -2.133026 0.090131 3.093273 0
M  V30 18 C -1.596876 -0.680468 3.996659 0
M  V30 19 C -2.149933 -1.237933 5.218683 0
M  V30 20 C -3.434188 -1.031149 5.667492 0
M  V30 21 C -3.962537 -1.561992 6.832325 0
M  V30 22 C -3.081616 -2.355075 7.560724 0
M  V30 23 C -1.789307 -2.594727 7.158938 0
M  V30 24 C -1.331741 -2.032561 5.987310 0
M  V30 25 N -2.660342 1.478457 1.180861 0
M  V30 26 N -2.116313 1.956046 0.091135 0
M  V30 27 C -0.843694 1.574330 -0.050518 0
M  V30 28 C 0.189174 1.752501 -0.948489 0
M  V30 29 H 4.810247 0.210521 -5.446135 0
M  V30 30 H 4.142199 -2.549386 -5.268389 0
M  V30 31 H 2.899185 -4.219416 -4.085689 0
M  V30 32 H 1.555423 -3.675906 -2.176868 0
M  V30 33 H 1.422190 -1.405538 -1.428421 0
M  V30 34 H 2.509463 2.616924 -1.920225 0
M  V30 35 H 2.590123 0.009053 0.429348 0
M  V30 36 H 0.797603 -0.384579 2.124268 0
M  V30 37 H -3.152256 0.245296 3.461279 0
M  V30 38 H -0.582356 -0.907510 3.743322 0
M  V30 39 H -4.112211 -0.414410 5.096781 0
M  V30 40 H -4.980587 -1.367053 7.139188 0
M  V30 41 H -3.424758 -2.807417 8.488445 0
M  V30 42 H -1.127299 -3.219355 7.751373 0
M  V30 43 H -0.299003 -2.241965 5.695035 0
M  V30 44 H -2.633026 2.563451 -0.578147 0
M  V30 45 H -0.133121 2.387261 -1.776582 0
M  V30 END ATOM
M  V30 BEGIN BOND
M  V30 1 2 1 2
M  V30 2 1 2 3
M  V30 3 1 3 4
M  V30 4 2 4 5
M  V30 5 1 5 6
M  V30 6 2 6 7
M  V30 7 1 7 8
M  V30 8 2 8 9
M  V30 9 1 9 10
M  V30 10 2 10 11
M  V30 11 1 11 12
M  V30 12 2 12 13
M  V30 13 1 13 14
M  V30 14 2 14 15
M  V30 15 1 15 16
M  V30 16 1 16 17
M  V30 17 2 17 18
M  V30 18 1 18 19
M  V30 19 2 19 20
M  V30 20 1 20 21
M  V30 21 2 21 22
M  V30 22 1 22 23
M  V30 23 2 23 24
M  V30 24 2 16 25
M  V30 25 1 25 26
M  V30 26 1 26 27
M  V30 27 2 27 28
M  V30 28 1 10 2
M  V30 29 1 28 12
M  V30 30 1 9 4
M  V30 31 1 27 15
M  V30 32 1 24 19
M  V30 33 1 3 29
M  V30 34 1 5 30
M  V30 35 1 6 31
M  V30 36 1 7 32
M  V30 37 1 8 33
M  V30 38 1 11 34
M  V30 39 1 13 35
M  V30 40 1 14 36
M  V30 41 1 17 37
M  V30 42 1 18 38
M  V30 43 1 20 39
M  V30 44 1 21 40
M  V30 45 1 22 41
M  V30 46 1 23 42
M  V30 47 1 24 43
M  V30 48 1 26 44
M  V30 49 1 28 45
M  V30 END BOND
M  V30 END CTAB
M  END
>  <Dataset>  (5) 
ChEMBL_Kinases

>  <Ligand_Instance>  (5) 
nan

>  <PDB_ID>  (5) 
nan

>  <Standardized_SMILES>  (5) 
O=C1Nc2ccccc2/C1=C\c1ccc2c(/C=C/c3ccccc3)n[nH]c2c1

>  <Name>  (5) 
nan

>  <Pocket>  (5) 
nan

>  <ATP_Site>  (5) 
nan

>  <Peripheral>  (5) 
nan

>  <Num_H_Atoms_ProtBoundConf>  (5) 
nan

>  <Num_Resolved_Atoms>  (5) 
nan

>  <Num_Not_Resolved_Atoms>  (5) 
nan

$$$$
CHEMBL2407895
     RDKit          3D

  0  0  0  0  0  0  0  0  0  0999 V3000
M  V30 BEGIN CTAB
M  V30 COUNTS 45 49 0 0 0
M  V30 BEGIN ATOM
M  V30 1 O 5.889705 2.761761 -0.622147 0
M  V30 2 C 5.320771 1.794187 -1.184838 0
M  V30 3 N 5.712610 1.031192 -2.317515 0
M  V30 4 C 4.709591 0.048705 -2.542887 0
M  V30 5 C 4.643029 -0.906013 -3.532233 0
M  V30 6 C 3.564153 -1.760797 -3.591311 0
M  V30 7 C 2.549484 -1.658291 -2.657336 0
M  V30 8 O 1.521459 -2.590684 -2.844261 0
M  V30 9 C 2.655554 -0.690765 -1.685011 0
M  V30 10 C 3.714013 0.161204 -1.609049 0
M  V30 11 C 4.064386 1.242766 -0.741517 0
M  V30 12 C 3.280147 1.616916 0.232270 0
M  V30 13 C 2.030455 1.146012 0.763783 0
M  V30 14 C 1.629257 -0.046738 1.380876 0
M  V30 15 C 0.344514 -0.263047 1.800772 0
M  V30 16 C -0.614785 0.699685 1.628720 0
M  V30 17 C -1.935670 0.647757 1.985548 0
M  V30 18 C -2.818152 -0.294657 2.620733 0
M  V30 19 C -2.769887 -1.479793 3.134239 0
M  V30 20 C -3.793767 -2.305634 3.752518 0
M  V30 21 C -5.106954 -1.920050 3.902146 0
M  V30 22 C -6.095807 -2.709329 4.497129 0
M  V30 23 N -5.705201 -3.911403 4.938497 0
M  V30 24 C -4.442617 -4.320683 4.811906 0
M  V30 25 C -3.437156 -3.548508 4.220517 0
M  V30 26 N -2.404336 1.854791 1.582415 0
M  V30 27 N -1.434287 2.551459 1.035832 0
M  V30 28 C -0.274568 1.888904 1.028642 0
M  V30 29 C 1.026055 2.089883 0.611423 0
M  V30 30 H 6.600858 1.191084 -2.873616 0
M  V30 31 H 5.437422 -0.975533 -4.252348 0
M  V30 32 H 3.577953 -2.483338 -4.391145 0
M  V30 33 H 0.546548 -2.252675 -2.857486 0
M  V30 34 H 1.779273 -0.753532 -1.085466 0
M  V30 35 H 3.653678 2.496347 0.789108 0
M  V30 36 H 2.459172 -0.722834 1.462268 0
M  V30 37 H 0.145283 -1.206443 2.257990 0
M  V30 38 H -3.870887 -0.004531 2.750530 0
M  V30 39 H -1.773113 -1.880884 3.067497 0
M  V30 40 H -5.444975 -0.960829 3.556219 0
M  V30 41 H -7.112737 -2.345255 4.583791 0
M  V30 42 H -4.132027 -5.287051 5.167917 0
M  V30 43 H -2.415246 -3.912802 4.133114 0
M  V30 44 H -1.573778 3.508789 0.657367 0
M  V30 45 H 1.129414 3.087650 0.154549 0
M  V30 END ATOM
M  V30 BEGIN BOND
M  V30 1 2 1 2
M  V30 2 1 2 3
M  V30 3 1 3 4
M  V30 4 2 4 5
M  V30 5 1 5 6
M  V30 6 2 6 7
M  V30 7 1 7 8
M  V30 8 1 7 9
M  V30 9 2 9 10
M  V30 10 1 10 11
M  V30 11 2 11 12
M  V30 12 1 12 13
M  V30 13 2 13 14
M  V30 14 1 14 15
M  V30 15 2 15 16
M  V30 16 1 16 17
M  V30 17 1 17 18
M  V30 18 2 18 19
M  V30 19 1 19 20
M  V30 20 2 20 21
M  V30 21 1 21 22
M  V30 22 2 22 23
M  V30 23 1 23 24
M  V30 24 2 24 25
M  V30 25 2 17 26
M  V30 26 1 26 27
M  V30 27 1 27 28
M  V30 28 2 28 29
M  V30 29 1 11 2
M  V30 30 1 29 13
M  V30 31 1 10 4
M  V30 32 1 28 16
M  V30 33 1 25 20
M  V30 34 1 3 30
M  V30 35 1 5 31
M  V30 36 1 6 32
M  V30 37 1 8 33
M  V30 38 1 9 34
M  V30 39 1 12 35
M  V30 40 1 14 36
M  V30 41 1 15 37
M  V30 42 1 18 38
M  V30 43 1 19 39
M  V30 44 1 21 40
M  V30 45 1 22 41
M  V30 46 1 24 42
M  V30 47 1 25 43
M  V30 48 1 27 44
M  V30 49 1 29 45
M  V30 END BOND
M  V30 END CTAB
M  END
>  <Dataset>  (6) 
ChEMBL_Kinases

>  <Ligand_Instance>  (6) 
nan

>  <PDB_ID>  (6) 
nan

>  <Standardized_SMILES>  (6) 
O=C1Nc2ccc(O)cc2/C1=C\c1ccc2c(/C=C/c3ccncc3)n[nH]c2c1

>  <Name>  (6) 
nan

>  <Pocket>  (6) 
nan

>  <ATP_Site>  (6) 
nan

>  <Peripheral>  (6) 
nan

>  <Num_H_Atoms_ProtBoundConf>  (6) 
nan

>  <Num_Resolved_Atoms>  (6) 
nan

>  <Num_Not_Resolved_Atoms>  (6) 
nan

$$$$
CHEMBL2407894
     RDKit          3D

  0  0  0  0  0  0  0  0  0  0999 V3000
M  V30 BEGIN CTAB
M  V30 COUNTS 48 52 0 0 0
M  V30 BEGIN ATOM
M  V30 1 C 0.237157 -4.041416 -2.824289 0
M  V30 2 O 0.497913 -3.355172 -1.619765 0
M  V30 3 C 1.786040 -3.185513 -1.132107 0
M  V30 4 C 2.834597 -3.726891 -1.886515 0
M  V30 5 C 4.150657 -3.615659 -1.491786 0
M  V30 6 C 4.473387 -2.957855 -0.326356 0
M  V30 7 C 3.429703 -2.439543 0.386716 0
M  V30 8 C 2.110867 -2.527947 0.033146 0
M  V30 9 C 3.985268 -1.817169 1.564668 0
M  V30 10 C 3.384531 -1.130727 2.495677 0
M  V30 11 C 1.978370 -0.794330 2.593197 0
M  V30 12 C 1.541564 0.162331 1.657117 0
M  V30 13 C 0.223484 0.552813 1.653451 0
M  V30 14 C -0.650077 0.023644 2.540818 0
M  V30 15 C -1.985714 0.276502 2.691516 0
M  V30 16 C -2.986265 1.118238 2.094473 0
M  V30 17 C -3.029599 2.032679 1.161201 0
M  V30 18 C -4.123829 2.833766 0.630623 0
M  V30 19 C -3.857422 3.751506 -0.364090 0
M  V30 20 C -4.911999 4.497809 -0.849415 0
M  V30 21 N -6.170943 4.361526 -0.391129 0
M  V30 22 C -6.471243 3.472406 0.583207 0
M  V30 23 C -5.418884 2.715571 1.079519 0
M  V30 24 N -2.346481 -0.537516 3.726814 0
M  V30 25 N -1.308534 -1.209754 4.146292 0
M  V30 26 C -0.203494 -0.909323 3.446722 0
M  V30 27 C 1.102109 -1.343183 3.504195 0
M  V30 28 C 5.432332 -1.980227 1.547769 0
M  V30 29 O 6.261244 -1.576541 2.402589 0
M  V30 30 N 5.698909 -2.697724 0.349092 0
M  V30 31 H 0.373077 -3.384887 -3.732680 0
M  V30 32 H 0.831675 -4.966995 -2.956699 0
M  V30 33 H -0.842095 -4.346401 -2.778245 0
M  V30 34 H 2.726564 -4.262723 -2.815226 0
M  V30 35 H 4.987869 -4.021203 -2.049643 0
M  V30 36 H 1.213072 -2.197367 0.505324 0
M  V30 37 H 3.789104 -0.667352 3.385605 0
M  V30 38 H 2.231201 0.607100 0.925997 0
M  V30 39 H -0.084478 1.277152 0.932809 0
M  V30 40 H -4.021785 1.066694 2.427377 0
M  V30 41 H -2.055740 2.201723 0.729175 0
M  V30 42 H -2.850966 3.886497 -0.757015 0
M  V30 43 H -4.762598 5.221283 -1.616473 0
M  V30 44 H -7.498079 3.410144 0.908303 0
M  V30 45 H -5.693933 2.024367 1.846602 0
M  V30 46 H -1.349321 -1.892911 4.931006 0
M  V30 47 H 1.456686 -2.074079 4.212638 0
M  V30 48 H 6.630123 -3.000558 -0.007481 0
M  V30 END ATOM
M  V30 BEGIN BOND
M  V30 1 1 1 2
M  V30 2 1 2 3
M  V30 3 2 3 4
M  V30 4 1 4 5
M  V30 5 2 5 6
M  V30 6 1 6 7
M  V30 7 2 7 8
M  V30 8 1 7 9
M  V30 9 2 9 10
M  V30 10 1 10 11
M  V30 11 2 11 12
M  V30 12 1 12 13
M  V30 13 2 13 14
M  V30 14 1 14 15
M  V30 15 1 15 16
M  V30 16 2 16 17
M  V30 17 1 17 18
M  V30 18 2 18 19
M  V30 19 1 19 20
M  V30 20 2 20 21
M  V30 21 1 21 22
M  V30 22 2 22 23
M  V30 23 2 15 24
M  V30 24 1 24 25
M  V30 25 1 25 26
M  V30 26 2 26 27
M  V30 27 1 9 28
M  V30 28 2 28 29
M  V30 29 1 28 30
M  V30 30 1 8 3
M  V30 31 1 27 11
M  V30 32 1 30 6
M  V30 33 1 26 14
M  V30 34 1 23 18
M  V30 35 1 1 31
M  V30 36 1 1 32
M  V30 37 1 1 33
M  V30 38 1 4 34
M  V30 39 1 5 35
M  V30 40 1 8 36
M  V30 41 1 10 37
M  V30 42 1 12 38
M  V30 43 1 13 39
M  V30 44 1 16 40
M  V30 45 1 17 41
M  V30 46 1 19 42
M  V30 47 1 20 43
M  V30 48 1 22 44
M  V30 49 1 23 45
M  V30 50 1 25 46
M  V30 51 1 27 47
M  V30 52 1 30 48
M  V30 END BOND
M  V30 END CTAB
M  END
>  <Dataset>  (7) 
ChEMBL_Kinases

>  <Ligand_Instance>  (7) 
nan

>  <PDB_ID>  (7) 
nan

>  <Standardized_SMILES>  (7) 
COc1ccc2c(c1)/C(=C\c1ccc3c(/C=C/c4ccncc4)n[nH]c3c1)C(=O)N2

>  <Name>  (7) 
nan

>  <Pocket>  (7) 
nan

>  <ATP_Site>  (7) 
nan

>  <Peripheral>  (7) 
nan

>  <Num_H_Atoms_ProtBoundConf>  (7) 
nan

>  <Num_Resolved_Atoms>  (7) 
nan

>  <Num_Not_Resolved_Atoms>  (7) 
nan

$$$$
CHEMBL2407893
     RDKit          3D

  0  0  0  0  0  0  0  0  0  0999 V3000
M  V30 BEGIN CTAB
M  V30 COUNTS 47 51 0 0 0
M  V30 BEGIN ATOM
M  V30 1 C 0.355591 -4.290912 2.548574 0
M  V30 2 C 1.698099 -4.049938 1.956670 0
M  V30 3 C 2.630416 -5.047443 2.267624 0
M  V30 4 C 3.923422 -4.987640 1.803850 0
M  V30 5 C 4.351302 -3.943619 1.015950 0
M  V30 6 C 3.440292 -2.983091 0.722711 0
M  V30 7 C 2.149282 -3.016359 1.167407 0
M  V30 8 C 4.084949 -2.002265 -0.117874 0
M  V30 9 C 3.546708 -0.904728 -0.543772 0
M  V30 10 C 2.254864 -0.287913 -0.366789 0
M  V30 11 C 1.546470 0.172429 0.747191 0
M  V30 12 C 0.297556 0.724229 0.664033 0
M  V30 13 C -0.324721 0.850442 -0.549782 0
M  V30 14 C -1.562324 1.373671 -0.811743 0
M  V30 15 C -2.640290 1.954648 -0.056590 0
M  V30 16 C -2.923311 2.239518 1.165229 0
M  V30 17 C -4.098587 2.843620 1.762261 0
M  V30 18 C -4.137382 3.037294 3.124264 0
M  V30 19 C -5.249311 3.610808 3.702952 0
M  V30 20 N -6.303475 3.992393 2.998809 0
M  V30 21 C -6.319666 3.826821 1.663346 0
M  V30 22 C -5.211277 3.253576 1.074429 0
M  V30 23 N -1.661113 1.246738 -2.160453 0
M  V30 24 N -0.570261 0.695244 -2.639931 0
M  V30 25 C 0.314855 0.418196 -1.687724 0
M  V30 26 C 1.573503 -0.135667 -1.586508 0
M  V30 27 C 5.457649 -2.439512 -0.318971 0
M  V30 28 O 6.323242 -1.858422 -0.987842 0
M  V30 29 N 5.597341 -3.655896 0.401873 0
M  V30 30 H 0.460416 -4.258173 3.648997 0
M  V30 31 H -0.408347 -3.578552 2.201090 0
M  V30 32 H 0.075647 -5.337691 2.261657 0
M  V30 33 H 2.421889 -5.913305 2.873963 0
M  V30 34 H 4.660804 -5.744907 2.029708 0
M  V30 35 H 1.306926 -2.382403 1.019319 0
M  V30 36 H 4.192092 -0.279735 -1.178164 0
M  V30 37 H 2.128274 0.023215 1.636622 0
M  V30 38 H -0.143988 1.038343 1.572593 0
M  V30 39 H -3.534678 2.283285 -0.613714 0
M  V30 40 H -2.117340 1.963130 1.821683 0
M  V30 41 H -3.306144 2.743240 3.732040 0
M  V30 42 H -5.248623 3.747796 4.764317 0
M  V30 43 H -7.181299 4.143639 1.125426 0
M  V30 44 H -5.254930 3.136693 0.020188 0
M  V30 45 H -0.434848 0.505382 -3.654822 0
M  V30 46 H 1.965857 -0.436345 -2.565320 0
M  V30 47 H 6.464558 -4.234107 0.466819 0
M  V30 END ATOM
M  V30 BEGIN BOND
M  V30 1 1 1 2
M  V30 2 2 2 3
M  V30 3 1 3 4
M  V30 4 2 4 5
M  V30 5 1 5 6
M  V30 6 2 6 7
M  V30 7 1 6 8
M  V30 8 2 8 9
M  V30 9 1 9 10
M  V30 10 2 10 11
M  V30 11 1 11 12
M  V30 12 2 12 13
M  V30 13 1 13 14
M  V30 14 1 14 15
M  V30 15 2 15 16
M  V30 16 1 16 17
M  V30 17 2 17 18
M  V30 18 1 18 19
M  V30 19 2 19 20
M  V30 20 1 20 21
M  V30 21 2 21 22
M  V30 22 2 14 23
M  V30 23 1 23 24
M  V30 24 1 24 25
M  V30 25 2 25 26
M  V30 26 1 8 27
M  V30 27 2 27 28
M  V30 28 1 27 29
M  V30 29 1 7 2
M  V30 30 1 26 10
M  V30 31 1 29 5
M  V30 32 1 25 13
M  V30 33 1 22 17
M  V30 34 1 1 30
M  V30 35 1 1 31
M  V30 36 1 1 32
M  V30 37 1 3 33
M  V30 38 1 4 34
M  V30 39 1 7 35
M  V30 40 1 9 36
M  V30 41 1 11 37
M  V30 42 1 12 38
M  V30 43 1 15 39
M  V30 44 1 16 40
M  V30 45 1 18 41
M  V30 46 1 19 42
M  V30 47 1 21 43
M  V30 48 1 22 44
M  V30 49 1 24 45
M  V30 50 1 26 46
M  V30 51 1 29 47
M  V30 END BOND
M  V30 END CTAB
M  END
>  <Dataset>  (8) 
ChEMBL_Kinases

>  <Ligand_Instance>  (8) 
nan

>  <PDB_ID>  (8) 
nan

>  <Standardized_SMILES>  (8) 
Cc1ccc2c(c1)/C(=C\c1ccc3c(/C=C/c4ccncc4)n[nH]c3c1)C(=O)N2

>  <Name>  (8) 
nan

>  <Pocket>  (8) 
nan

>  <ATP_Site>  (8) 
nan

>  <Peripheral>  (8) 
nan

>  <Num_H_Atoms_ProtBoundConf>  (8) 
nan

>  <Num_Resolved_Atoms>  (8) 
nan

>  <Num_Not_Resolved_Atoms>  (8) 
nan

$$$$
CHEMBL2407750
     RDKit          3D

  0  0  0  0  0  0  0  0  0  0999 V3000
M  V30 BEGIN CTAB
M  V30 COUNTS 44 48 0 0 0
M  V30 BEGIN ATOM
M  V30 1 O 7.081535 0.044556 0.542008 0
M  V30 2 C 6.176550 0.402567 -0.256375 0
M  V30 3 N 6.295502 0.904301 -1.581282 0
M  V30 4 C 4.985159 1.159628 -2.051524 0
M  V30 5 C 4.626385 1.654252 -3.286365 0
M  V30 6 C 3.300122 1.845564 -3.586943 0
M  V30 7 C 2.332981 1.532341 -2.627074 0
M  V30 8 Cl 0.652298 1.807381 -3.092544 0
M  V30 9 C 2.715437 1.038748 -1.398589 0
M  V30 10 C 4.032536 0.851172 -1.106250 0
M  V30 11 C 4.754216 0.365076 0.052772 0
M  V30 12 C 4.136633 -0.018136 1.142298 0
M  V30 13 C 2.717344 -0.057660 1.456159 0
M  V30 14 C 2.102653 -1.267972 1.114949 0
M  V30 15 C 0.760317 -1.460583 1.366326 0
M  V30 16 C 0.043456 -0.441961 1.956621 0
M  V30 17 C -1.282342 -0.336805 2.324427 0
M  V30 18 C -2.303484 -1.369082 2.156799 0
M  V30 19 C -3.546344 -1.205149 2.524895 0
M  V30 20 C -4.627128 -2.172573 2.397853 0
M  V30 21 C -5.915769 -1.909798 2.817487 0
M  V30 22 C -6.931597 -2.817866 2.698605 0
M  V30 23 N -6.686400 -4.035020 2.148146 0
M  V30 24 C -5.453993 -4.371549 1.712407 0
M  V30 25 C -4.459000 -3.425480 1.851688 0
M  V30 26 N -1.424655 0.874942 2.851829 0
M  V30 27 N -0.268210 1.555904 2.845042 0
M  V30 28 C 0.658448 0.752592 2.291337 0
M  V30 29 C 2.005479 0.986152 2.055512 0
M  V30 30 H 7.214677 1.034552 -2.057422 0
M  V30 31 H 5.361771 1.901094 -4.039189 0
M  V30 32 H 3.021837 2.230678 -4.548274 0
M  V30 33 H 1.884663 0.847143 -0.776149 0
M  V30 34 H 4.759950 -0.371005 1.968305 0
M  V30 35 H 2.632221 -2.088791 0.651067 0
M  V30 36 H 0.284794 -2.394910 1.103102 0
M  V30 37 H -2.043078 -2.318714 1.710988 0
M  V30 38 H -3.791757 -0.250735 2.969076 0
M  V30 39 H -6.145043 -0.937543 3.265307 0
M  V30 40 H -7.918371 -2.542246 3.049950 0
M  V30 41 H -5.264558 -5.348971 1.272049 0
M  V30 42 H -3.490185 -3.734730 1.491014 0
M  V30 43 H -0.127335 2.540372 3.210806 0
M  V30 44 H 2.540169 1.877444 2.286745 0
M  V30 END ATOM
M  V30 BEGIN BOND
M  V30 1 2 1 2
M  V30 2 1 2 3
M  V30 3 1 3 4
M  V30 4 2 4 5
M  V30 5 1 5 6
M  V30 6 2 6 7
M  V30 7 1 7 8
M  V30 8 1 7 9
M  V30 9 2 9 10
M  V30 10 1 10 11
M  V30 11 2 11 12
M  V30 12 1 12 13
M  V30 13 2 13 14
M  V30 14 1 14 15
M  V30 15 2 15 16
M  V30 16 1 16 17
M  V30 17 1 17 18
M  V30 18 2 18 19
M  V30 19 1 19 20
M  V30 20 2 20 21
M  V30 21 1 21 22
M  V30 22 2 22 23
M  V30 23 1 23 24
M  V30 24 2 24 25
M  V30 25 2 17 26
M  V30 26 1 26 27
M  V30 27 1 27 28
M  V30 28 2 28 29
M  V30 29 1 11 2
M  V30 30 1 29 13
M  V30 31 1 10 4
M  V30 32 1 28 16
M  V30 33 1 25 20
M  V30 34 1 3 30
M  V30 35 1 5 31
M  V30 36 1 6 32
M  V30 37 1 9 33
M  V30 38 1 12 34
M  V30 39 1 14 35
M  V30 40 1 15 36
M  V30 41 1 18 37
M  V30 42 1 19 38
M  V30 43 1 21 39
M  V30 44 1 22 40
M  V30 45 1 24 41
M  V30 46 1 25 42
M  V30 47 1 27 43
M  V30 48 1 29 44
M  V30 END BOND
M  V30 END CTAB
M  END
>  <Dataset>  (9) 
ChEMBL_Kinases

>  <Ligand_Instance>  (9) 
nan

>  <PDB_ID>  (9) 
nan

>  <Standardized_SMILES>  (9) 
O=C1Nc2ccc(Cl)cc2/C1=C\c1ccc2c(/C=C/c3ccncc3)n[nH]c2c1

>  <Name>  (9) 
nan

>  <Pocket>  (9) 
nan

>  <ATP_Site>  (9) 
nan

>  <Peripheral>  (9) 
nan

>  <Num_H_Atoms_ProtBoundConf>  (9) 
nan

>  <Num_Resolved_Atoms>  (9) 
nan

>  <Num_Not_Resolved_Atoms>  (9) 
nan

$$$$
CHEMBL2398651
     RDKit          3D

  0  0  0  0  0  0  0  0  0  0999 V3000
M  V30 BEGIN CTAB
M  V30 COUNTS 60 64 0 0 0
M  V30 BEGIN ATOM
M  V30 1 C 0.786738 -1.968193 7.664453 0
M  V30 2 N 1.811268 -1.348768 6.854422 0
M  V30 3 C 1.379189 -0.711971 5.670628 0
M  V30 4 O 0.137649 -0.785093 5.501602 0
M  V30 5 N 2.365344 -0.094896 4.855422 0
M  V30 6 C 2.329167 0.621003 3.631511 0
M  V30 7 C 2.180040 1.979780 3.450584 0
M  V30 8 C 2.167742 2.502291 2.175533 0
M  V30 9 C 2.300794 1.718012 1.023666 0
M  V30 10 C 2.265577 2.502555 -0.211173 0
M  V30 11 C 0.896158 2.734488 -0.766554 0
M  V30 12 N 0.194259 1.513818 -1.099686 0
M  V30 13 C -1.120798 1.626422 -1.628484 0
M  V30 14 N -1.693126 2.826497 -1.820825 0
M  V30 15 C -2.932004 2.969401 -2.323519 0
M  V30 16 N -3.676548 1.885367 -2.666816 0
M  V30 17 C -3.176960 0.648082 -2.505499 0
M  V30 18 O -3.623851 -0.564569 -2.731482 0
M  V30 19 C -2.716353 -1.476928 -2.391487 0
M  V30 20 C -2.957907 -2.907619 -2.540881 0
M  V30 21 C -3.998776 -3.552838 -1.863281 0
M  V30 22 C -4.177926 -4.903828 -2.043374 0
M  V30 23 C -3.363228 -5.645319 -2.872107 0
M  V30 24 C -2.310346 -5.051604 -3.571690 0
M  V30 25 C -2.171740 -3.695425 -3.357853 0
M  V30 26 C -1.592669 -0.795807 -1.906554 0
M  V30 27 C -0.437764 -1.520571 -1.458400 0
M  V30 28 C 0.649385 -1.925187 -2.245380 0
M  V30 29 C 1.690000 -2.638244 -1.642197 0
M  V30 30 C 1.611201 -2.916157 -0.305557 0
M  V30 31 C 0.563582 -2.540960 0.514069 0
M  V30 32 C -0.476851 -1.827375 -0.091851 0
M  V30 33 C -1.902191 0.547382 -1.986441 0
M  V30 34 C 2.448997 0.364091 1.221533 0
M  V30 35 C 2.462401 -0.169875 2.499092 0
M  V30 36 H 1.296291 -2.316406 8.596354 0
M  V30 37 H 0.373203 -2.887312 7.181491 0
M  V30 38 H -0.026942 -1.303020 7.961300 0
M  V30 39 H 2.839349 -1.355988 7.109601 0
M  V30 40 H 3.364180 -0.122473 5.137752 0
M  V30 41 H 2.081464 2.549078 4.344935 0
M  V30 42 H 2.042852 3.588213 2.185436 0
M  V30 43 H 2.878078 2.006299 -1.000110 0
M  V30 44 H 2.737800 3.507715 -0.091945 0
M  V30 45 H 0.286491 3.186324 0.072348 0
M  V30 46 H 0.902060 3.443046 -1.609632 0
M  V30 47 H 0.716806 0.638245 -0.925639 0
M  V30 48 H -3.243208 4.001552 -2.414590 0
M  V30 49 H -4.621314 -2.945949 -1.220554 0
M  V30 50 H -4.999154 -5.401975 -1.506015 0
M  V30 51 H -3.485787 -6.721870 -3.031776 0
M  V30 52 H -1.640943 -5.582352 -4.233624 0
M  V30 53 H -1.361414 -3.214457 -3.890233 0
M  V30 54 H 0.588510 -1.641296 -3.290595 0
M  V30 55 H 2.505400 -2.928574 -2.286996 0
M  V30 56 H 2.416769 -3.467506 0.160083 0
M  V30 57 H 0.533687 -2.777793 1.567604 0
M  V30 58 H -1.274961 -1.550179 0.568824 0
M  V30 59 H 2.552477 -0.200961 0.316141 0
M  V30 60 H 2.584525 -1.245284 2.533285 0
M  V30 END ATOM
M  V30 BEGIN BOND
M  V30 1 1 1 2
M  V30 2 1 2 3
M  V30 3 2 3 4
M  V30 4 1 3 5
M  V30 5 1 5 6
M  V30 6 2 6 7
M  V30 7 1 7 8
M  V30 8 2 8 9
M  V30 9 1 9 10
M  V30 10 1 10 11
M  V30 11 1 11 12
M  V30 12 1 12 13
M  V30 13 2 13 14
M  V30 14 1 14 15
M  V30 15 2 15 16
M  V30 16 1 16 17
M  V30 17 1 17 18
M  V30 18 1 18 19
M  V30 19 1 19 20
M  V30 20 2 20 21
M  V30 21 1 21 22
M  V30 22 2 22 23
M  V30 23 1 23 24
M  V30 24 2 24 25
M  V30 25 2 19 26
M  V30 26 1 26 27
M  V30 27 2 27 28
M  V30 28 1 28 29
M  V30 29 2 29 30
M  V30 30 1 30 31
M  V30 31 2 31 32
M  V30 32 1 26 33
M  V30 33 1 9 34
M  V30 34 2 34 35
M  V30 35 1 35 6
M  V30 36 1 33 13
M  V30 37 2 33 17
M  V30 38 1 25 20
M  V30 39 1 32 27
M  V30 40 1 1 36
M  V30 41 1 1 37
M  V30 42 1 1 38
M  V30 43 1 2 39
M  V30 44 1 5 40
M  V30 45 1 7 41
M  V30 46 1 8 42
M  V30 47 1 10 43
M  V30 48 1 10 44
M  V30 49 1 11 45
M  V30 50 1 11 46
M  V30 51 1 12 47
M  V30 52 1 15 48
M  V30 53 1 21 49
M  V30 54 1 22 50
M  V30 55 1 23 51
M  V30 56 1 24 52
M  V30 57 1 25 53
M  V30 58 1 28 54
M  V30 59 1 29 55
M  V30 60 1 30 56
M  V30 61 1 31 57
M  V30 62 1 32 58
M  V30 63 1 34 59
M  V30 64 1 35 60
M  V30 END BOND
M  V30 END CTAB
M  END
>  <Dataset>  (10) 
ChEMBL_Kinases

>  <Ligand_Instance>  (10) 
nan

>  <PDB_ID>  (10) 
nan

>  <Standardized_SMILES>  (10) 
CNC(=O)Nc1ccc(CCNc2ncnc3oc(-c4ccccc4)c(-c4ccccc4)c23)cc1

>  <Name>  (10) 
nan

>  <Pocket>  (10) 
nan

>  <ATP_Site>  (10) 
nan

>  <Peripheral>  (10) 
nan

>  <Num_H_Atoms_ProtBoundConf>  (10) 
nan

>  <Num_Resolved_Atoms>  (10) 
nan

>  <Num_Not_Resolved_Atoms>  (10) 
nan

$$$$
CHEMBL2403366
     RDKit          3D

  0  0  0  0  0  0  0  0  0  0999 V3000
M  V30 BEGIN CTAB
M  V30 COUNTS 49 52 0 0 0
M  V30 BEGIN ATOM
M  V30 1 C 4.446770 -5.816500 2.866253 0
M  V30 2 O 4.592310 -6.057457 1.486104 0
M  V30 3 C 3.985078 -5.242658 0.547056 0
M  V30 4 C 4.294428 -5.708646 -0.736445 0
M  V30 5 C 3.808799 -5.067357 -1.871870 0
M  V30 6 C 3.003556 -3.947216 -1.784593 0
M  V30 7 C 2.723156 -3.521629 -0.502865 0
M  V30 8 C 3.186119 -4.131433 0.642278 0
M  V30 9 C 1.869702 -2.342939 -0.598815 0
M  V30 10 C 1.369611 -1.571279 0.347052 0
M  V30 11 C 0.515165 -0.402499 0.214995 0
M  V30 12 C -0.644202 -0.145385 -0.484428 0
M  V30 13 C -0.934384 1.171271 -0.208285 0
M  V30 14 C -0.001582 1.739930 0.634800 0
M  V30 15 N 0.866976 0.744892 0.869729 0
M  V30 16 C -0.082288 3.155203 1.086536 0
M  V30 17 C -1.518546 3.618715 1.158264 0
M  V30 18 N -2.477053 2.689211 0.639921 0
M  V30 19 C -3.735389 2.318212 1.218540 0
M  V30 20 O -4.479623 1.468251 0.633289 0
M  V30 21 C -4.126067 2.943545 2.487666 0
M  V30 22 C -5.461359 2.383692 2.931139 0
M  V30 23 N -5.410791 0.963498 3.130438 0
M  V30 24 C -2.053683 2.080966 -0.638454 0
M  V30 25 C 1.651166 -2.079640 -1.996794 0
M  V30 26 O 0.991933 -1.179185 -2.554553 0
M  V30 27 N 2.363363 -3.087170 -2.720415 0
M  V30 28 H 5.436533 -5.510515 3.269466 0
M  V30 29 H 4.146682 -6.727829 3.423592 0
M  V30 30 H 3.680360 -5.055899 3.110651 0
M  V30 31 H 4.911516 -6.572840 -1.006468 0
M  V30 32 H 4.020866 -5.391555 -2.891018 0
M  V30 33 H 2.998808 -3.842666 1.651961 0
M  V30 34 H 1.650825 -1.874332 1.369817 0
M  V30 35 H -1.188742 -0.848684 -1.093778 0
M  V30 36 H 1.703802 0.915231 1.504195 0
M  V30 37 H 0.436965 3.220150 2.065022 0
M  V30 38 H 0.453115 3.744273 0.306587 0
M  V30 39 H -1.704724 3.905557 2.211076 0
M  V30 40 H -1.632269 4.565679 0.558650 0
M  V30 41 H -3.367226 2.707547 3.263082 0
M  V30 42 H -4.202549 4.041457 2.444239 0
M  V30 43 H -5.760632 2.866985 3.861233 0
M  V30 44 H -6.160122 2.560225 2.077618 0
M  V30 45 H -5.775413 0.395843 2.358274 0
M  V30 46 H -5.650915 0.633771 4.076859 0
M  V30 47 H -2.867511 1.480326 -1.063077 0
M  V30 48 H -1.683904 2.877501 -1.282033 0
M  V30 49 H 2.404270 -3.174066 -3.766893 0
M  V30 END ATOM
M  V30 BEGIN BOND
M  V30 1 1 1 2
M  V30 2 1 2 3
M  V30 3 2 3 4
M  V30 4 1 4 5
M  V30 5 2 5 6
M  V30 6 1 6 7
M  V30 7 2 7 8
M  V30 8 1 7 9
M  V30 9 2 9 10
M  V30 10 1 10 11
M  V30 11 2 11 12
M  V30 12 1 12 13
M  V30 13 2 13 14
M  V30 14 1 14 15
M  V30 15 1 14 16
M  V30 16 1 16 17
M  V30 17 1 17 18
M  V30 18 1 18 19
M  V30 19 2 19 20
M  V30 20 1 19 21
M  V30 21 1 21 22
M  V30 22 1 22 23
M  V30 23 1 18 24
M  V30 24 1 9 25
M  V30 25 2 25 26
M  V30 26 1 25 27
M  V30 27 1 8 3
M  V30 28 1 15 11
M  V30 29 1 27 6
M  V30 30 1 24 13
M  V30 31 1 1 28
M  V30 32 1 1 29
M  V30 33 1 1 30
M  V30 34 1 4 31
M  V30 35 1 5 32
M  V30 36 1 8 33
M  V30 37 1 10 34
M  V30 38 1 12 35
M  V30 39 1 15 36
M  V30 40 1 16 37
M  V30 41 1 16 38
M  V30 42 1 17 39
M  V30 43 1 17 40
M  V30 44 1 21 41
M  V30 45 1 21 42
M  V30 46 1 22 43
M  V30 47 1 22 44
M  V30 48 1 23 45
M  V30 49 1 23 46
M  V30 50 1 24 47
M  V30 51 1 24 48
M  V30 52 1 27 49
M  V30 END BOND
M  V30 END CTAB
M  END
>  <Dataset>  (11) 
ChEMBL_Kinases

>  <Ligand_Instance>  (11) 
nan

>  <PDB_ID>  (11) 
nan

>  <Standardized_SMILES>  (11) 
COc1ccc2c(c1)/C(=C/c1cc3c([nH]1)CCN(C(=O)CCN)C3)C(=O)N2

>  <Name>  (11) 
nan

>  <Pocket>  (11) 
nan

>  <ATP_Site>  (11) 
nan

>  <Peripheral>  (11) 
nan

>  <Num_H_Atoms_ProtBoundConf>  (11) 
nan

>  <Num_Resolved_Atoms>  (11) 
nan

>  <Num_Not_Resolved_Atoms>  (11) 
nan

$$$$
CHEMBL2403367
     RDKit          3D

  0  0  0  0  0  0  0  0  0  0999 V3000
M  V30 BEGIN CTAB
M  V30 COUNTS 44 47 0 0 0
M  V30 BEGIN ATOM
M  V30 1 C 1.067592 -7.719349 -0.667074 0
M  V30 2 O 0.933698 -6.370453 -0.366723 0
M  V30 3 C 1.697712 -5.325167 -0.844925 0
M  V30 4 C 2.755407 -5.307227 -1.711382 0
M  V30 5 C 3.420889 -4.164839 -2.094538 0
M  V30 6 C 3.009458 -2.928763 -1.578733 0
M  V30 7 C 1.928371 -2.921335 -0.688955 0
M  V30 8 C 1.280659 -4.109512 -0.327710 0
M  V30 9 C 1.689812 -1.523233 -0.291647 0
M  V30 10 C 0.750258 -1.067446 0.514580 0
M  V30 11 C 0.544588 0.320798 0.888249 0
M  V30 12 C -0.779232 0.753258 0.722415 0
M  V30 13 C -0.906828 2.057003 1.110040 0
M  V30 14 C 0.347829 2.448449 1.523463 0
M  V30 15 N 1.193266 1.389960 1.379817 0
M  V30 16 C 0.654772 3.808709 2.028482 0
M  V30 17 C -0.420604 4.194287 3.013579 0
M  V30 18 N -1.700813 3.624072 2.648990 0
M  V30 19 C -2.707096 3.510264 3.647086 0
M  V30 20 C -4.042476 2.946659 3.369153 0
M  V30 21 O -2.292688 3.950031 4.760031 0
M  V30 22 C -1.841115 3.207312 1.258338 0
M  V30 23 C 2.668079 -0.704574 -0.978357 0
M  V30 24 O 2.799733 0.530531 -0.911323 0
M  V30 25 N 3.462971 -1.588049 -1.758181 0
M  V30 26 H 0.031998 -8.128505 -0.857230 0
M  V30 27 H 1.739285 -7.890872 -1.518516 0
M  V30 28 H 1.473635 -8.234255 0.247100 0
M  V30 29 H 3.016274 -6.301183 -2.068738 0
M  V30 30 H 4.240388 -4.233583 -2.777801 0
M  V30 31 H 0.453497 -3.975957 0.371169 0
M  V30 32 H 0.095627 -1.861317 0.910332 0
M  V30 33 H -1.712825 0.286939 0.358711 0
M  V30 34 H 2.207100 1.260550 1.583423 0
M  V30 35 H 0.580883 4.561089 1.191494 0
M  V30 36 H 1.647792 3.854305 2.516713 0
M  V30 37 H -0.144327 3.711729 3.996402 0
M  V30 38 H -0.496972 5.295055 3.136133 0
M  V30 39 H -4.756845 3.347772 4.116700 0
M  V30 40 H -4.380316 3.238388 2.349490 0
M  V30 41 H -4.029756 1.830318 3.405110 0
M  V30 42 H -1.487913 4.012341 0.580240 0
M  V30 43 H -2.852121 2.841412 1.061722 0
M  V30 44 H 4.258240 -1.296434 -2.369544 0
M  V30 END ATOM
M  V30 BEGIN BOND
M  V30 1 1 1 2
M  V30 2 1 2 3
M  V30 3 2 3 4
M  V30 4 1 4 5
M  V30 5 2 5 6
M  V30 6 1 6 7
M  V30 7 2 7 8
M  V30 8 1 7 9
M  V30 9 2 9 10
M  V30 10 1 10 11
M  V30 11 2 11 12
M  V30 12 1 12 13
M  V30 13 2 13 14
M  V30 14 1 14 15
M  V30 15 1 14 16
M  V30 16 1 16 17
M  V30 17 1 17 18
M  V30 18 1 18 19
M  V30 19 1 19 20
M  V30 20 2 19 21
M  V30 21 1 18 22
M  V30 22 1 9 23
M  V30 23 2 23 24
M  V30 24 1 23 25
M  V30 25 1 8 3
M  V30 26 1 15 11
M  V30 27 1 25 6
M  V30 28 1 22 13
M  V30 29 1 1 26
M  V30 30 1 1 27
M  V30 31 1 1 28
M  V30 32 1 4 29
M  V30 33 1 5 30
M  V30 34 1 8 31
M  V30 35 1 10 32
M  V30 36 1 12 33
M  V30 37 1 15 34
M  V30 38 1 16 35
M  V30 39 1 16 36
M  V30 40 1 17 37
M  V30 41 1 17 38
M  V30 42 1 20 39
M  V30 43 1 20 40
M  V30 44 1 20 41
M  V30 45 1 22 42
M  V30 46 1 22 43
M  V30 47 1 25 44
M  V30 END BOND
M  V30 END CTAB
M  END
>  <Dataset>  (12) 
ChEMBL_Kinases

>  <Ligand_Instance>  (12) 
nan

>  <PDB_ID>  (12) 
nan

>  <Standardized_SMILES>  (12) 
COc1ccc2c(c1)/C(=C/c1cc3c([nH]1)CCN(C(C)=O)C3)C(=O)N2

>  <Name>  (12) 
nan

>  <Pocket>  (12) 
nan

>  <ATP_Site>  (12) 
nan

>  <Peripheral>  (12) 
nan

>  <Num_H_Atoms_ProtBoundConf>  (12) 
nan

>  <Num_Resolved_Atoms>  (12) 
nan

>  <Num_Not_Resolved_Atoms>  (12) 
nan

$$$$
CHEMBL2403368
     RDKit          3D

  0  0  0  0  0  0  0  0  0  0999 V3000
M  V30 BEGIN CTAB
M  V30 COUNTS 50 54 0 0 0
M  V30 BEGIN ATOM
M  V30 1 C 3.748939 -0.405702 7.288676 0
M  V30 2 O 4.902220 -0.982462 6.675544 0
M  V30 3 C 4.843403 -1.172157 5.300867 0
M  V30 4 C 5.934466 -1.732236 4.637337 0
M  V30 5 C 5.972606 -1.963093 3.262152 0
M  V30 6 C 4.864255 -1.617859 2.503937 0
M  V30 7 C 3.794503 -1.064942 3.177050 0
M  V30 8 C 3.765491 -0.839917 4.539357 0
M  V30 9 C 2.765842 -0.790074 2.176884 0
M  V30 10 C 1.570845 -0.291308 2.327493 0
M  V30 11 C 0.530564 -0.001318 1.368028 0
M  V30 12 C 0.523136 0.635753 0.180575 0
M  V30 13 C -0.742032 0.624914 -0.357511 0
M  V30 14 C -1.569641 -0.040458 0.516100 0
M  V30 15 N -0.763407 -0.404686 1.548529 0
M  V30 16 C -3.024876 -0.296403 0.366153 0
M  V30 17 C -3.295768 -0.613682 -1.080864 0
M  V30 18 N -2.589232 0.354696 -1.891973 0
M  V30 19 C -3.145568 0.589448 -3.202524 0
M  V30 20 O -2.690533 1.383174 -4.068355 0
M  V30 21 C -4.322939 -0.068258 -3.705368 0
M  V30 22 C -5.550781 0.563509 -3.472032 0
M  V30 23 N -6.517875 -0.180055 -4.004246 0
M  V30 24 O -5.995881 -1.239735 -4.560167 0
M  V30 25 C -4.687010 -1.208553 -4.402202 0
M  V30 26 C -3.580915 -2.127954 -4.814134 0
M  V30 27 C -1.409272 1.126205 -1.584718 0
M  V30 28 C 3.245466 -1.197153 0.863925 0
M  V30 29 O 2.676661 -1.135506 -0.249302 0
M  V30 30 N 4.569964 -1.713917 1.103430 0
M  V30 31 H 2.810336 -0.934574 6.949378 0
M  V30 32 H 3.616944 0.644250 6.955626 0
M  V30 33 H 3.741898 -0.524985 8.389383 0
M  V30 34 H 6.792292 -1.993836 5.260668 0
M  V30 35 H 6.846451 -2.397908 2.821459 0
M  V30 36 H 2.899846 -0.407453 4.983512 0
M  V30 37 H 1.302599 -0.044771 3.370616 0
M  V30 38 H 1.307833 1.117365 -0.337154 0
M  V30 39 H -1.095727 -0.939949 2.398448 0
M  V30 40 H -3.343431 -1.180882 0.967523 0
M  V30 41 H -3.537860 0.613476 0.715278 0
M  V30 42 H -2.933116 -1.657029 -1.273037 0
M  V30 43 H -4.384354 -0.621473 -1.310871 0
M  V30 44 H -5.815259 1.495537 -2.961402 0
M  V30 45 H -3.037262 -1.801611 -5.699981 0
M  V30 46 H -4.032483 -3.152227 -4.960024 0
M  V30 47 H -2.846535 -2.273442 -3.993805 0
M  V30 48 H -1.663318 2.216535 -1.448901 0
M  V30 49 H -0.757879 1.105158 -2.482685 0
M  V30 50 H 5.207915 -2.093890 0.382592 0
M  V30 END ATOM
M  V30 BEGIN BOND
M  V30 1 1 1 2
M  V30 2 1 2 3
M  V30 3 2 3 4
M  V30 4 1 4 5
M  V30 5 2 5 6
M  V30 6 1 6 7
M  V30 7 2 7 8
M  V30 8 1 7 9
M  V30 9 2 9 10
M  V30 10 1 10 11
M  V30 11 2 11 12
M  V30 12 1 12 13
M  V30 13 2 13 14
M  V30 14 1 14 15
M  V30 15 1 14 16
M  V30 16 1 16 17
M  V30 17 1 17 18
M  V30 18 1 18 19
M  V30 19 2 19 20
M  V30 20 1 19 21
M  V30 21 1 21 22
M  V30 22 2 22 23
M  V30 23 1 23 24
M  V30 24 1 24 25
M  V30 25 1 25 26
M  V30 26 1 18 27
M  V30 27 1 9 28
M  V30 28 2 28 29
M  V30 29 1 28 30
M  V30 30 1 8 3
M  V30 31 1 15 11
M  V30 32 2 25 21
M  V30 33 1 30 6
M  V30 34 1 27 13
M  V30 35 1 1 31
M  V30 36 1 1 32
M  V30 37 1 1 33
M  V30 38 1 4 34
M  V30 39 1 5 35
M  V30 40 1 8 36
M  V30 41 1 10 37
M  V30 42 1 12 38
M  V30 43 1 15 39
M  V30 44 1 16 40
M  V30 45 1 16 41
M  V30 46 1 17 42
M  V30 47 1 17 43
M  V30 48 1 22 44
M  V30 49 1 26 45
M  V30 50 1 26 46
M  V30 51 1 26 47
M  V30 52 1 27 48
M  V30 53 1 27 49
M  V30 54 1 30 50
M  V30 END BOND
M  V30 END CTAB
M  END
>  <Dataset>  (13) 
ChEMBL_Kinases

>  <Ligand_Instance>  (13) 
nan

>  <PDB_ID>  (13) 
nan

>  <Standardized_SMILES>  (13) 
COc1ccc2c(c1)/C(=C/c1cc3c([nH]1)CCN(C(=O)c1cnoc1C)C3)C(=O)N2

>  <Name>  (13) 
nan

>  <Pocket>  (13) 
nan

>  <ATP_Site>  (13) 
nan

>  <Peripheral>  (13) 
nan

>  <Num_H_Atoms_ProtBoundConf>  (13) 
nan

>  <Num_Resolved_Atoms>  (13) 
nan

>  <Num_Not_Resolved_Atoms>  (13) 
nan

$$$$
CHEMBL2403369
     RDKit          3D

  0  0  0  0  0  0  0  0  0  0999 V3000
M  V30 BEGIN CTAB
M  V30 COUNTS 58 62 0 0 0
M  V30 BEGIN ATOM
M  V30 1 C 0.689920 -1.099791 7.495101 0
M  V30 2 O 2.013000 -0.637791 7.700110 0
M  V30 3 C 2.708535 -0.168691 6.594326 0
M  V30 4 C 3.998242 0.282917 6.788538 0
M  V30 5 C 4.782214 0.773726 5.744064 0
M  V30 6 C 4.257162 0.814304 4.458749 0
M  V30 7 C 2.965395 0.359142 4.278012 0
M  V30 8 C 2.194866 -0.125092 5.315725 0
M  V30 9 C 2.625554 0.494154 2.865933 0
M  V30 10 C 1.516866 0.223980 2.200957 0
M  V30 11 C 1.253193 0.382830 0.782259 0
M  V30 12 C 0.046741 1.017831 0.466598 0
M  V30 13 C -0.095568 1.085510 -0.895719 0
M  V30 14 C 1.021858 0.492860 -1.437331 0
M  V30 15 N 1.807757 0.082692 -0.401854 0
M  V30 16 C 1.299823 0.351783 -2.886674 0
M  V30 17 C 0.020355 0.005012 -3.596463 0
M  V30 18 N -1.173679 0.318504 -2.834824 0
M  V30 19 C -2.436705 -0.311830 -2.720369 0
M  V30 20 O -3.325978 0.195259 -1.956406 0
M  V30 21 N -3.110507 -1.449305 -3.234217 0
M  V30 22 C -4.449440 -1.633190 -2.769007 0
M  V30 23 C -4.618179 -2.887907 -1.943450 0
M  V30 24 N -3.589809 -3.839297 -2.207191 0
M  V30 25 C -2.517738 -3.874489 -1.265261 0
M  V30 26 C -3.158240 -3.879353 -3.584576 0
M  V30 27 C -2.792251 -2.530626 -4.143377 0
M  V30 28 C -0.954724 1.526829 -2.057081 0
M  V30 29 C 3.797312 1.053633 2.250394 0
M  V30 30 O 3.991412 1.353807 1.050933 0
M  V30 31 N 4.804528 1.255041 3.209734 0
M  V30 32 H 0.081459 -0.338418 6.969605 0
M  V30 33 H 0.781932 -1.980471 6.835698 0
M  V30 34 H 0.282757 -1.349334 8.501090 0
M  V30 35 H 4.477180 0.283819 7.758672 0
M  V30 36 H 5.786334 1.122399 5.907531 0
M  V30 37 H 1.185533 -0.474187 5.146254 0
M  V30 38 H 0.741781 -0.171801 2.883275 0
M  V30 39 H -0.796070 1.465118 1.017101 0
M  V30 40 H 2.720776 -0.417622 -0.425823 0
M  V30 41 H 2.048241 -0.443417 -3.081650 0
M  V30 42 H 1.688421 1.354838 -3.212053 0
M  V30 43 H 0.018644 0.630347 -4.531491 0
M  V30 44 H 0.069418 -1.078138 -3.866930 0
M  V30 45 H -5.117444 -1.774300 -3.668725 0
M  V30 46 H -4.898898 -0.797839 -2.225280 0
M  V30 47 H -5.624536 -3.303796 -2.037399 0
M  V30 48 H -4.521608 -2.570777 -0.868776 0
M  V30 49 H -2.195815 -4.930704 -1.176022 0
M  V30 50 H -1.646323 -3.279687 -1.569880 0
M  V30 51 H -2.937843 -3.610431 -0.268365 0
M  V30 52 H -2.301164 -4.590269 -3.639184 0
M  V30 53 H -3.990995 -4.347728 -4.150833 0
M  V30 54 H -1.735897 -2.526748 -4.394155 0
M  V30 55 H -3.380793 -2.384340 -5.068389 0
M  V30 56 H -1.923597 1.915558 -1.681515 0
M  V30 57 H -0.407147 2.284975 -2.616847 0
M  V30 58 H 5.768349 1.642650 3.083721 0
M  V30 END ATOM
M  V30 BEGIN BOND
M  V30 1 1 1 2
M  V30 2 1 2 3
M  V30 3 2 3 4
M  V30 4 1 4 5
M  V30 5 2 5 6
M  V30 6 1 6 7
M  V30 7 2 7 8
M  V30 8 1 7 9
M  V30 9 2 9 10
M  V30 10 1 10 11
M  V30 11 2 11 12
M  V30 12 1 12 13
M  V30 13 2 13 14
M  V30 14 1 14 15
M  V30 15 1 14 16
M  V30 16 1 16 17
M  V30 17 1 17 18
M  V30 18 1 18 19
M  V30 19 2 19 20
M  V30 20 1 19 21
M  V30 21 1 21 22
M  V30 22 1 22 23
M  V30 23 1 23 24
M  V30 24 1 24 25
M  V30 25 1 24 26
M  V30 26 1 26 27
M  V30 27 1 18 28
M  V30 28 1 9 29
M  V30 29 2 29 30
M  V30 30 1 29 31
M  V30 31 1 8 3
M  V30 32 1 15 11
M  V30 33 1 27 21
M  V30 34 1 31 6
M  V30 35 1 28 13
M  V30 36 1 1 32
M  V30 37 1 1 33
M  V30 38 1 1 34
M  V30 39 1 4 35
M  V30 40 1 5 36
M  V30 41 1 8 37
M  V30 42 1 10 38
M  V30 43 1 12 39
M  V30 44 1 15 40
M  V30 45 1 16 41
M  V30 46 1 16 42
M  V30 47 1 17 43
M  V30 48 1 17 44
M  V30 49 1 22 45
M  V30 50 1 22 46
M  V30 51 1 23 47
M  V30 52 1 23 48
M  V30 53 1 25 49
M  V30 54 1 25 50
M  V30 55 1 25 51
M  V30 56 1 26 52
M  V30 57 1 26 53
M  V30 58 1 27 54
M  V30 59 1 27 55
M  V30 60 1 28 56
M  V30 61 1 28 57
M  V30 62 1 31 58
M  V30 END BOND
M  V30 END CTAB
M  END
>  <Dataset>  (14) 
ChEMBL_Kinases

>  <Ligand_Instance>  (14) 
nan

>  <PDB_ID>  (14) 
nan

>  <Standardized_SMILES>  (14) 
COc1ccc2c(c1)/C(=C/c1cc3c([nH]1)CCN(C(=O)N1CCN(C)CC1)C3)C(=O)N2

>  <Name>  (14) 
nan

>  <Pocket>  (14) 
nan

>  <ATP_Site>  (14) 
nan

>  <Peripheral>  (14) 
nan

>  <Num_H_Atoms_ProtBoundConf>  (14) 
nan

>  <Num_Resolved_Atoms>  (14) 
nan

>  <Num_Not_Resolved_Atoms>  (14) 
nan

$$$$
CHEMBL2403370
     RDKit          3D

  0  0  0  0  0  0  0  0  0  0999 V3000
M  V30 BEGIN CTAB
M  V30 COUNTS 54 58 0 0 0
M  V30 BEGIN ATOM
M  V30 1 C 8.118686 -5.073773 2.045110 0
M  V30 2 O 6.791266 -4.596814 1.921927 0
M  V30 3 C 6.554875 -3.244648 1.693333 0
M  V30 4 C 7.517399 -2.263085 1.567083 0
M  V30 5 C 7.135541 -0.952744 1.339689 0
M  V30 6 C 5.815736 -0.563928 1.229743 0
M  V30 7 C 4.881646 -1.572422 1.361540 0
M  V30 8 C 5.223234 -2.889512 1.588542 0
M  V30 9 C 3.569089 -0.954991 1.214312 0
M  V30 10 C 2.352265 -1.465067 1.277954 0
M  V30 11 C 1.061050 -0.809537 1.120640 0
M  V30 12 C 0.441557 0.057396 0.263997 0
M  V30 13 C -0.833795 0.313466 0.732432 0
M  V30 14 C -1.006864 -0.405849 1.895092 0
M  V30 15 N 0.139989 -1.063155 2.096961 0
M  V30 16 C -2.372243 -0.147366 2.420518 0
M  V30 17 C -3.321999 -0.545315 1.285249 0
M  V30 18 N -3.181666 0.425440 0.219931 0
M  V30 19 C -4.099183 0.739261 -0.817171 0
M  V30 20 O -3.830106 1.632400 -1.683009 0
M  V30 21 N -5.372877 0.385592 -1.319657 0
M  V30 22 C -5.753525 1.159411 -2.483918 0
M  V30 23 C -7.263142 1.211389 -2.629885 0
M  V30 24 O -7.847074 -0.029748 -2.458733 0
M  V30 25 C -7.715297 -0.377437 -1.125795 0
M  V30 26 C -6.258581 -0.625820 -0.801133 0
M  V30 27 C -1.936811 1.180729 0.195876 0
M  V30 28 C 3.791729 0.448197 0.993797 0
M  V30 29 O 2.960972 1.371017 0.816220 0
M  V30 30 N 5.178073 0.703501 1.000618 0
M  V30 31 H 8.170895 -6.171586 1.853900 0
M  V30 32 H 8.808974 -4.570854 1.305077 0
M  V30 33 H 8.483050 -4.820427 3.064531 0
M  V30 34 H 8.553215 -2.583318 1.656355 0
M  V30 35 H 7.940863 -0.219639 1.248995 0
M  V30 36 H 4.431705 -3.618354 1.680068 0
M  V30 37 H 2.386869 -2.552273 1.480423 0
M  V30 38 H 0.946253 0.416488 -0.617513 0
M  V30 39 H 0.161797 -1.671658 2.969194 0
M  V30 40 H -2.500072 0.898736 2.727113 0
M  V30 41 H -2.549634 -0.866984 3.271124 0
M  V30 42 H -3.030619 -1.571769 1.001383 0
M  V30 43 H -4.339367 -0.578417 1.709216 0
M  V30 44 H -5.401678 2.211665 -2.464726 0
M  V30 45 H -5.273614 0.677682 -3.356148 0
M  V30 46 H -7.473480 1.612369 -3.635334 0
M  V30 47 H -7.614018 1.970222 -1.881904 0
M  V30 48 H -8.079436 0.413036 -0.436102 0
M  V30 49 H -8.255428 -1.339181 -0.938351 0
M  V30 50 H -6.197929 -0.739665 0.293334 0
M  V30 51 H -5.979502 -1.647780 -1.199044 0
M  V30 52 H -1.709999 1.408710 -0.863208 0
M  V30 53 H -1.993332 2.147986 0.711791 0
M  V30 54 H 5.665499 1.624967 0.867261 0
M  V30 END ATOM
M  V30 BEGIN BOND
M  V30 1 1 1 2
M  V30 2 1 2 3
M  V30 3 2 3 4
M  V30 4 1 4 5
M  V30 5 2 5 6
M  V30 6 1 6 7
M  V30 7 2 7 8
M  V30 8 1 7 9
M  V30 9 2 9 10
M  V30 10 1 10 11
M  V30 11 2 11 12
M  V30 12 1 12 13
M  V30 13 2 13 14
M  V30 14 1 14 15
M  V30 15 1 14 16
M  V30 16 1 16 17
M  V30 17 1 17 18
M  V30 18 1 18 19
M  V30 19 2 19 20
M  V30 20 1 19 21
M  V30 21 1 21 22
M  V30 22 1 22 23
M  V30 23 1 23 24
M  V30 24 1 24 25
M  V30 25 1 25 26
M  V30 26 1 18 27
M  V30 27 1 9 28
M  V30 28 2 28 29
M  V30 29 1 28 30
M  V30 30 1 8 3
M  V30 31 1 15 11
M  V30 32 1 26 21
M  V30 33 1 30 6
M  V30 34 1 27 13
M  V30 35 1 1 31
M  V30 36 1 1 32
M  V30 37 1 1 33
M  V30 38 1 4 34
M  V30 39 1 5 35
M  V30 40 1 8 36
M  V30 41 1 10 37
M  V30 42 1 12 38
M  V30 43 1 15 39
M  V30 44 1 16 40
M  V30 45 1 16 41
M  V30 46 1 17 42
M  V30 47 1 17 43
M  V30 48 1 22 44
M  V30 49 1 22 45
M  V30 50 1 23 46
M  V30 51 1 23 47
M  V30 52 1 25 48
M  V30 53 1 25 49
M  V30 54 1 26 50
M  V30 55 1 26 51
M  V30 56 1 27 52
M  V30 57 1 27 53
M  V30 58 1 30 54
M  V30 END BOND
M  V30 END CTAB
M  END
>  <Dataset>  (15) 
ChEMBL_Kinases

>  <Ligand_Instance>  (15) 
nan

>  <PDB_ID>  (15) 
nan

>  <Standardized_SMILES>  (15) 
COc1ccc2c(c1)/C(=C/c1cc3c([nH]1)CCN(C(=O)N1CCOCC1)C3)C(=O)N2

>  <Name>  (15) 
nan

>  <Pocket>  (15) 
nan

>  <ATP_Site>  (15) 
nan

>  <Peripheral>  (15) 
nan

>  <Num_H_Atoms_ProtBoundConf>  (15) 
nan

>  <Num_Resolved_Atoms>  (15) 
nan

>  <Num_Not_Resolved_Atoms>  (15) 
nan

$$$$
CHEMBL2403371
     RDKit          3D

  0  0  0  0  0  0  0  0  0  0999 V3000
M  V30 BEGIN CTAB
M  V30 COUNTS 44 47 0 0 0
M  V30 BEGIN ATOM
M  V30 1 C -0.820980 -6.989439 -0.219737 0
M  V30 2 O -0.077493 -6.718372 -1.363347 0
M  V30 3 C 0.464554 -5.531729 -1.760961 0
M  V30 4 C 1.180295 -5.486297 -2.956291 0
M  V30 5 C 1.746791 -4.291462 -3.391968 0
M  V30 6 C 1.635314 -3.116186 -2.685341 0
M  V30 7 C 0.919638 -3.223328 -1.517154 0
M  V30 8 C 0.330916 -4.368388 -1.021681 0
M  V30 9 C 0.908855 -1.895821 -0.915199 0
M  V30 10 C 0.435702 -1.392580 0.203529 0
M  V30 11 C 0.436245 -0.056251 0.772897 0
M  V30 12 N 0.992938 0.158611 1.997134 0
M  V30 13 C 0.865479 1.427227 2.366235 0
M  V30 14 C 0.202521 2.120708 1.377852 0
M  V30 15 C -0.041012 1.165344 0.420188 0
M  V30 16 Cl -0.918537 1.492630 -1.060426 0
M  V30 17 C -0.123129 3.575811 1.441543 0
M  V30 18 N -0.268967 3.908945 2.831993 0
M  V30 19 C -1.496410 4.407399 3.352681 0
M  V30 20 C -1.602678 4.738394 4.798802 0
M  V30 21 O -2.356493 4.496944 2.453520 0
M  V30 22 C 0.999589 3.635211 3.465775 0
M  V30 23 C 1.290449 2.172878 3.585238 0
M  V30 24 C 1.659367 -1.010975 -1.798140 0
M  V30 25 O 1.935128 0.193097 -1.729257 0
M  V30 26 N 2.101126 -1.797976 -2.895415 0
M  V30 27 H -0.289660 -7.666634 0.508082 0
M  V30 28 H -1.759484 -7.548986 -0.494709 0
M  V30 29 H -1.154382 -6.132892 0.364278 0
M  V30 30 H 1.281260 -6.391106 -3.525968 0
M  V30 31 H 2.288927 -4.327335 -4.328637 0
M  V30 32 H -0.220404 -4.374211 -0.088829 0
M  V30 33 H -0.064264 -2.138073 0.836141 0
M  V30 34 H 1.478837 -0.552688 2.623173 0
M  V30 35 H -1.048383 3.810667 0.881264 0
M  V30 36 H 0.692131 4.177356 0.991188 0
M  V30 37 H -2.373125 5.522869 4.959829 0
M  V30 38 H -0.634481 5.103518 5.173218 0
M  V30 39 H -1.915628 3.799547 5.303016 0
M  V30 40 H 1.838749 4.162469 2.966908 0
M  V30 41 H 1.006477 4.053624 4.513778 0
M  V30 42 H 0.820386 1.691365 4.459430 0
M  V30 43 H 2.388737 2.029855 3.704173 0
M  V30 44 H 2.662985 -1.504561 -3.721215 0
M  V30 END ATOM
M  V30 BEGIN BOND
M  V30 1 1 1 2
M  V30 2 1 2 3
M  V30 3 2 3 4
M  V30 4 1 4 5
M  V30 5 2 5 6
M  V30 6 1 6 7
M  V30 7 2 7 8
M  V30 8 1 7 9
M  V30 9 2 9 10
M  V30 10 1 10 11
M  V30 11 1 11 12
M  V30 12 1 12 13
M  V30 13 2 13 14
M  V30 14 1 14 15
M  V30 15 1 15 16
M  V30 16 1 14 17
M  V30 17 1 17 18
M  V30 18 1 18 19
M  V30 19 1 19 20
M  V30 20 2 19 21
M  V30 21 1 18 22
M  V30 22 1 22 23
M  V30 23 1 9 24
M  V30 24 2 24 25
M  V30 25 1 24 26
M  V30 26 1 8 3
M  V30 27 2 15 11
M  V30 28 1 26 6
M  V30 29 1 23 13
M  V30 30 1 1 27
M  V30 31 1 1 28
M  V30 32 1 1 29
M  V30 33 1 4 30
M  V30 34 1 5 31
M  V30 35 1 8 32
M  V30 36 1 10 33
M  V30 37 1 12 34
M  V30 38 1 17 35
M  V30 39 1 17 36
M  V30 40 1 20 37
M  V30 41 1 20 38
M  V30 42 1 20 39
M  V30 43 1 22 40
M  V30 44 1 22 41
M  V30 45 1 23 42
M  V30 46 1 23 43
M  V30 47 1 26 44
M  V30 END BOND
M  V30 END CTAB
M  END
>  <Dataset>  (16) 
ChEMBL_Kinases

>  <Ligand_Instance>  (16) 
nan

>  <PDB_ID>  (16) 
nan

>  <Standardized_SMILES>  (16) 
COc1ccc2c(c1)/C(=C/c1[nH]c3c(c1Cl)CN(C(C)=O)CC3)C(=O)N2

>  <Name>  (16) 
nan

>  <Pocket>  (16) 
nan

>  <ATP_Site>  (16) 
nan

>  <Peripheral>  (16) 
nan

>  <Num_H_Atoms_ProtBoundConf>  (16) 
nan

>  <Num_Resolved_Atoms>  (16) 
nan

>  <Num_Not_Resolved_Atoms>  (16) 
nan

$$$$
CHEMBL2403374
     RDKit          3D

  0  0  0  0  0  0  0  0  0  0999 V3000
M  V30 BEGIN CTAB
M  V30 COUNTS 57 61 0 0 0
M  V30 BEGIN ATOM
M  V30 1 C 6.754370 -0.854017 6.076666 0
M  V30 2 C 6.252448 -0.820347 4.677510 0
M  V30 3 O 5.505433 -1.824760 4.423370 0
M  V30 4 N 6.500888 0.149324 3.659970 0
M  V30 5 C 5.806052 -0.240527 2.478027 0
M  V30 6 C 6.538864 -1.058041 1.614029 0
M  V30 7 C 5.912986 -1.463869 0.452676 0
M  V30 8 C 4.621953 -1.090214 0.140180 0
M  V30 9 C 3.964332 -0.282182 1.043881 0
M  V30 10 C 4.514976 0.168160 2.225981 0
M  V30 11 C 2.628455 -0.015505 0.513110 0
M  V30 12 C 1.600384 0.664812 0.979553 0
M  V30 13 C 0.291887 0.888682 0.381766 0
M  V30 14 C -0.798952 0.668912 1.236803 0
M  V30 15 C -1.976413 0.932079 0.571262 0
M  V30 16 C -1.597901 1.315281 -0.697892 0
M  V30 17 N -0.241924 1.273237 -0.759130 0
M  V30 18 C -2.537971 1.702535 -1.779171 0
M  V30 19 C -3.879851 1.069972 -1.597148 0
M  V30 20 N -3.941811 0.162116 -0.440875 0
M  V30 21 C -4.332719 -1.199188 -0.222481 0
M  V30 22 O -4.227760 -1.611798 0.985441 0
M  V30 23 N -4.819321 -2.126457 -1.199491 0
M  V30 24 C -5.037208 -1.930074 -2.626365 0
M  V30 25 C -5.593698 -3.248969 -3.173750 0
M  V30 26 O -6.783850 -3.477525 -2.508482 0
M  V30 27 C -6.491565 -3.937402 -1.228707 0
M  V30 28 C -5.150089 -3.461432 -0.739289 0
M  V30 29 C -3.462733 0.955337 0.698704 0
M  V30 30 C 2.559154 -0.720105 -0.750443 0
M  V30 31 O 1.634573 -0.802802 -1.574407 0
M  V30 32 N 3.785771 -1.383944 -0.984754 0
M  V30 33 H 7.233410 -1.833561 6.304182 0
M  V30 34 H 7.450395 -0.001010 6.258556 0
M  V30 35 H 5.876947 -0.790229 6.752510 0
M  V30 36 H 7.123247 0.924314 3.978414 0
M  V30 37 H 7.547341 -1.362639 1.836987 0
M  V30 38 H 6.452830 -2.102416 -0.246074 0
M  V30 39 H 3.975887 0.799722 2.914117 0
M  V30 40 H 1.851744 1.096374 1.968262 0
M  V30 41 H -0.889264 0.345650 2.275818 0
M  V30 42 H 0.348546 1.512985 -1.562049 0
M  V30 43 H -2.638790 2.827305 -1.766617 0
M  V30 44 H -2.119593 1.388236 -2.761892 0
M  V30 45 H -4.176704 0.527256 -2.516738 0
M  V30 46 H -4.631426 1.875220 -1.357331 0
M  V30 47 H -5.804468 -1.154601 -2.841067 0
M  V30 48 H -4.082254 -1.760418 -3.131584 0
M  V30 49 H -4.871913 -4.074933 -3.077921 0
M  V30 50 H -5.765571 -3.138145 -4.272333 0
M  V30 51 H -6.563071 -5.060478 -1.196054 0
M  V30 52 H -7.300619 -3.586508 -0.551766 0
M  V30 53 H -5.060410 -3.543097 0.368454 0
M  V30 54 H -4.380532 -4.183171 -1.123009 0
M  V30 55 H -3.737435 0.386365 1.616298 0
M  V30 56 H -3.851949 1.968872 0.734346 0
M  V30 57 H 4.076907 -1.976136 -1.788960 0
M  V30 END ATOM
M  V30 BEGIN BOND
M  V30 1 1 1 2
M  V30 2 2 2 3
M  V30 3 1 2 4
M  V30 4 1 4 5
M  V30 5 2 5 6
M  V30 6 1 6 7
M  V30 7 2 7 8
M  V30 8 1 8 9
M  V30 9 2 9 10
M  V30 10 1 9 11
M  V30 11 2 11 12
M  V30 12 1 12 13
M  V30 13 2 13 14
M  V30 14 1 14 15
M  V30 15 2 15 16
M  V30 16 1 16 17
M  V30 17 1 16 18
M  V30 18 1 18 19
M  V30 19 1 19 20
M  V30 20 1 20 21
M  V30 21 2 21 22
M  V30 22 1 21 23
M  V30 23 1 23 24
M  V30 24 1 24 25
M  V30 25 1 25 26
M  V30 26 1 26 27
M  V30 27 1 27 28
M  V30 28 1 20 29
M  V30 29 1 11 30
M  V30 30 2 30 31
M  V30 31 1 30 32
M  V30 32 1 10 5
M  V30 33 1 17 13
M  V30 34 1 28 23
M  V30 35 1 32 8
M  V30 36 1 29 15
M  V30 37 1 1 33
M  V30 38 1 1 34
M  V30 39 1 1 35
M  V30 40 1 4 36
M  V30 41 1 6 37
M  V30 42 1 7 38
M  V30 43 1 10 39
M  V30 44 1 12 40
M  V30 45 1 14 41
M  V30 46 1 17 42
M  V30 47 1 18 43
M  V30 48 1 18 44
M  V30 49 1 19 45
M  V30 50 1 19 46
M  V30 51 1 24 47
M  V30 52 1 24 48
M  V30 53 1 25 49
M  V30 54 1 25 50
M  V30 55 1 27 51
M  V30 56 1 27 52
M  V30 57 1 28 53
M  V30 58 1 28 54
M  V30 59 1 29 55
M  V30 60 1 29 56
M  V30 61 1 32 57
M  V30 END BOND
M  V30 END CTAB
M  END
>  <Dataset>  (17) 
ChEMBL_Kinases

>  <Ligand_Instance>  (17) 
nan

>  <PDB_ID>  (17) 
nan

>  <Standardized_SMILES>  (17) 
CC(=O)Nc1ccc2c(c1)/C(=C/c1cc3c([nH]1)CCN(C(=O)N1CCOCC1)C3)C(=O)N2

>  <Name>  (17) 
nan

>  <Pocket>  (17) 
nan

>  <ATP_Site>  (17) 
nan

>  <Peripheral>  (17) 
nan

>  <Num_H_Atoms_ProtBoundConf>  (17) 
nan

>  <Num_Resolved_Atoms>  (17) 
nan

>  <Num_Not_Resolved_Atoms>  (17) 
nan

$$$$
CHEMBL2407748
     RDKit          3D

  0  0  0  0  0  0  0  0  0  0999 V3000
M  V30 BEGIN CTAB
M  V30 COUNTS 48 52 0 0 0
M  V30 BEGIN ATOM
M  V30 1 C 0.266743 -2.421547 -1.914640 0
M  V30 2 O 1.549556 -2.656018 -2.457157 0
M  V30 3 C 2.648457 -2.478953 -1.630256 0
M  V30 4 C 3.845002 -2.749974 -2.307476 0
M  V30 5 C 5.055243 -2.623599 -1.631868 0
M  V30 6 C 5.110025 -2.239205 -0.312847 0
M  V30 7 C 3.915339 -1.983003 0.311019 0
M  V30 8 C 2.704900 -2.093953 -0.311290 0
M  V30 9 C 4.243799 -1.622694 1.657880 0
M  V30 10 C 3.372041 -1.258157 2.572100 0
M  V30 11 C 1.932035 -1.111285 2.502165 0
M  V30 12 C 1.595015 0.085015 1.845844 0
M  V30 13 C 0.263407 0.455666 1.652479 0
M  V30 14 C -0.696617 -0.425347 2.145814 0
M  V30 15 C -2.075725 -0.370769 2.129880 0
M  V30 16 C -2.897412 0.706433 1.545206 0
M  V30 17 C -4.216977 0.737961 1.540155 0
M  V30 18 C -5.048091 1.780261 0.975120 0
M  V30 19 C -4.530217 2.899193 0.356884 0
M  V30 20 C -5.305357 3.916779 -0.195318 0
M  V30 21 C -6.675340 3.740304 -0.086792 0
M  V30 22 N -7.180339 2.650318 0.515525 0
M  V30 23 C -6.419015 1.666180 1.049219 0
M  V30 24 N -2.537617 -1.478689 2.744410 0
M  V30 25 N -1.516929 -2.239224 3.153378 0
M  V30 26 C -0.393749 -1.604693 2.792953 0
M  V30 27 C 0.931076 -1.939773 2.966598 0
M  V30 28 C 5.684963 -1.669782 1.838703 0
M  V30 29 O 6.288025 -1.408914 2.905733 0
M  V30 30 N 6.197274 -2.060991 0.578371 0
M  V30 31 H -0.528521 -2.888060 -2.559355 0
M  V30 32 H 0.035755 -1.339016 -1.867116 0
M  V30 33 H 0.232162 -2.925593 -0.909708 0
M  V30 34 H 3.914262 -3.056824 -3.338080 0
M  V30 35 H 5.994130 -2.827635 -2.134221 0
M  V30 36 H 1.726766 -1.947139 0.041091 0
M  V30 37 H 3.639865 -0.989584 3.601973 0
M  V30 38 H 2.282498 0.818913 1.434857 0
M  V30 39 H -0.039071 1.352095 1.160868 0
M  V30 40 H -2.373996 1.545150 1.078212 0
M  V30 41 H -4.661744 -0.123505 2.016458 0
M  V30 42 H -3.464012 3.046860 0.266836 0
M  V30 43 H -4.827251 4.779559 -0.674400 0
M  V30 44 H -7.297519 4.523218 -0.509504 0
M  V30 45 H -6.942844 0.844590 1.504673 0
M  V30 46 H -1.557794 -3.157282 3.658431 0
M  V30 47 H 1.303989 -2.827867 3.453231 0
M  V30 48 H 7.197836 -2.196633 0.338687 0
M  V30 END ATOM
M  V30 BEGIN BOND
M  V30 1 1 1 2
M  V30 2 1 2 3
M  V30 3 2 3 4
M  V30 4 1 4 5
M  V30 5 2 5 6
M  V30 6 1 6 7
M  V30 7 2 7 8
M  V30 8 1 7 9
M  V30 9 2 9 10
M  V30 10 1 10 11
M  V30 11 2 11 12
M  V30 12 1 12 13
M  V30 13 2 13 14
M  V30 14 1 14 15
M  V30 15 1 15 16
M  V30 16 2 16 17
M  V30 17 1 17 18
M  V30 18 2 18 19
M  V30 19 1 19 20
M  V30 20 2 20 21
M  V30 21 1 21 22
M  V30 22 2 22 23
M  V30 23 2 15 24
M  V30 24 1 24 25
M  V30 25 1 25 26
M  V30 26 2 26 27
M  V30 27 1 9 28
M  V30 28 2 28 29
M  V30 29 1 28 30
M  V30 30 1 8 3
M  V30 31 1 27 11
M  V30 32 1 30 6
M  V30 33 1 26 14
M  V30 34 1 23 18
M  V30 35 1 1 31
M  V30 36 1 1 32
M  V30 37 1 1 33
M  V30 38 1 4 34
M  V30 39 1 5 35
M  V30 40 1 8 36
M  V30 41 1 10 37
M  V30 42 1 12 38
M  V30 43 1 13 39
M  V30 44 1 16 40
M  V30 45 1 17 41
M  V30 46 1 19 42
M  V30 47 1 20 43
M  V30 48 1 21 44
M  V30 49 1 23 45
M  V30 50 1 25 46
M  V30 51 1 27 47
M  V30 52 1 30 48
M  V30 END BOND
M  V30 END CTAB
M  END
>  <Dataset>  (18) 
ChEMBL_Kinases

>  <Ligand_Instance>  (18) 
nan

>  <PDB_ID>  (18) 
nan

>  <Standardized_SMILES>  (18) 
COc1ccc2c(c1)/C(=C\c1ccc3c(/C=C/c4cccnc4)n[nH]c3c1)C(=O)N2

>  <Name>  (18) 
nan

>  <Pocket>  (18) 
nan

>  <ATP_Site>  (18) 
nan

>  <Peripheral>  (18) 
nan

>  <Num_H_Atoms_ProtBoundConf>  (18) 
nan

>  <Num_Resolved_Atoms>  (18) 
nan

>  <Num_Not_Resolved_Atoms>  (18) 
nan

$$$$
CHEMBL2403376
     RDKit          3D

  0  0  0  0  0  0  0  0  0  0999 V3000
M  V30 BEGIN CTAB
M  V30 COUNTS 43 46 0 0 0
M  V30 BEGIN ATOM
M  V30 1 C 0.916117 -6.966144 3.577758 0
M  V30 2 C 1.245963 -6.297452 2.292299 0
M  V30 3 O 1.358310 -6.966608 1.209547 0
M  V30 4 N 1.441878 -4.869395 2.267830 0
M  V30 5 C 1.324967 -4.085568 3.480417 0
M  V30 6 C 2.106300 -2.802655 3.246870 0
M  V30 7 C 1.422375 -2.094216 2.140055 0
M  V30 8 N 0.896142 -0.861027 1.928960 0
M  V30 9 C 0.393657 -0.795579 0.681997 0
M  V30 10 C -0.230094 0.367946 0.077121 0
M  V30 11 C 0.220146 1.602815 -0.002293 0
M  V30 12 C 1.493773 1.991831 0.534833 0
M  V30 13 O 2.360889 1.326251 1.111361 0
M  V30 14 N 1.689950 3.396638 0.309576 0
M  V30 15 C 0.517530 3.831893 -0.368071 0
M  V30 16 C 0.199245 5.115502 -0.821889 0
M  V30 17 C -1.013906 5.313348 -1.466419 0
M  V30 18 C -1.873924 4.251534 -1.645870 0
M  V30 19 C -3.189856 4.427788 -2.331284 0
M  V30 20 F -3.318415 3.489830 -3.332672 0
M  V30 21 F -3.380183 5.714372 -2.747559 0
M  V30 22 F -4.140552 4.083999 -1.374108 0
M  V30 23 C -1.594920 2.956717 -1.208892 0
M  V30 24 C -0.379760 2.805118 -0.574285 0
M  V30 25 C 0.587299 -2.008363 0.050479 0
M  V30 26 C 1.234080 -2.817198 0.972879 0
M  V30 27 C 1.758535 -4.223411 1.002937 0
M  V30 28 H 0.992694 -8.063810 3.439062 0
M  V30 29 H 1.671236 -6.661729 4.316347 0
M  V30 30 H -0.126762 -6.749986 3.910330 0
M  V30 31 H 0.282971 -3.803993 3.726522 0
M  V30 32 H 1.736672 -4.627424 4.350413 0
M  V30 33 H 2.248939 -2.209393 4.146849 0
M  V30 34 H 3.108107 -3.156443 2.868973 0
M  V30 35 H 0.943666 -0.186410 2.735352 0
M  V30 36 H -1.219804 0.234779 -0.386674 0
M  V30 37 H 2.496114 3.988625 0.571119 0
M  V30 38 H 0.871998 5.951733 -0.683910 0
M  V30 39 H -1.261233 6.311421 -1.817679 0
M  V30 40 H -2.264443 2.126127 -1.346140 0
M  V30 41 H 0.321754 -2.332435 -0.938164 0
M  V30 42 H 1.276917 -4.834838 0.209175 0
M  V30 43 H 2.850595 -4.253571 0.775636 0
M  V30 END ATOM
M  V30 BEGIN BOND
M  V30 1 1 1 2
M  V30 2 2 2 3
M  V30 3 1 2 4
M  V30 4 1 4 5
M  V30 5 1 5 6
M  V30 6 1 6 7
M  V30 7 1 7 8
M  V30 8 1 8 9
M  V30 9 1 9 10
M  V30 10 2 10 11
M  V30 11 1 11 12
M  V30 12 2 12 13
M  V30 13 1 12 14
M  V30 14 1 14 15
M  V30 15 2 15 16
M  V30 16 1 16 17
M  V30 17 2 17 18
M  V30 18 1 18 19
M  V30 19 1 19 20
M  V30 20 1 19 21
M  V30 21 1 19 22
M  V30 22 1 18 23
M  V30 23 2 23 24
M  V30 24 2 9 25
M  V30 25 1 25 26
M  V30 26 1 26 27
M  V30 27 1 27 4
M  V30 28 2 26 7
M  V30 29 1 24 11
M  V30 30 1 24 15
M  V30 31 1 1 28
M  V30 32 1 1 29
M  V30 33 1 1 30
M  V30 34 1 5 31
M  V30 35 1 5 32
M  V30 36 1 6 33
M  V30 37 1 6 34
M  V30 38 1 8 35
M  V30 39 1 10 36
M  V30 40 1 14 37
M  V30 41 1 16 38
M  V30 42 1 17 39
M  V30 43 1 23 40
M  V30 44 1 25 41
M  V30 45 1 27 42
M  V30 46 1 27 43
M  V30 END BOND
M  V30 END CTAB
M  END
>  <Dataset>  (19) 
ChEMBL_Kinases

>  <Ligand_Instance>  (19) 
nan

>  <PDB_ID>  (19) 
nan

>  <Standardized_SMILES>  (19) 
CC(=O)N1CCc2[nH]c(/C=C3\C(=O)Nc4ccc(C(F)(F)F)cc43)cc2C1

>  <Name>  (19) 
nan

>  <Pocket>  (19) 
nan

>  <ATP_Site>  (19) 
nan

>  <Peripheral>  (19) 
nan

>  <Num_H_Atoms_ProtBoundConf>  (19) 
nan

>  <Num_Resolved_Atoms>  (19) 
nan

>  <Num_Not_Resolved_Atoms>  (19) 
nan

$$$$
CHEMBL2403377
     RDKit          3D

  0  0  0  0  0  0  0  0  0  0999 V3000
M  V30 BEGIN CTAB
M  V30 COUNTS 41 44 0 0 0
M  V30 BEGIN ATOM
M  V30 1 C 0.339562 -6.529087 0.374990 0
M  V30 2 C 1.257896 -5.379890 0.314465 0
M  V30 3 O 2.036051 -5.379246 1.305387 0
M  V30 4 N 1.262540 -4.408940 -0.720196 0
M  V30 5 C 0.430956 -4.292337 -1.901675 0
M  V30 6 C 0.213760 -2.871617 -2.345905 0
M  V30 7 C 0.396464 -1.980144 -1.169013 0
M  V30 8 N -0.320225 -0.902235 -0.772067 0
M  V30 9 C 0.189860 -0.371919 0.355160 0
M  V30 10 C -0.312804 0.760984 1.110878 0
M  V30 11 C 0.326904 1.825582 1.556582 0
M  V30 12 C 1.734913 2.063207 1.349848 0
M  V30 13 O 2.518463 1.333318 0.722695 0
M  V30 14 N 1.992219 3.288624 2.010986 0
M  V30 15 C 0.773866 3.782105 2.602851 0
M  V30 16 C 0.514353 4.917165 3.339725 0
M  V30 17 C -0.740798 5.224478 3.832938 0
M  V30 18 C -1.746338 4.298712 3.533237 0
M  V30 19 C -3.094361 4.552376 4.020390 0
M  V30 20 N -4.160139 4.768646 4.418760 0
M  V30 21 C -1.541742 3.166808 2.811466 0
M  V30 22 C -0.271044 2.899245 2.338226 0
M  V30 23 C 1.280795 -1.137277 0.703649 0
M  V30 24 C 1.411726 -2.133805 -0.238327 0
M  V30 25 C 2.255959 -3.326922 -0.615351 0
M  V30 26 H -0.320210 -6.429340 1.282157 0
M  V30 27 H -0.298444 -6.587647 -0.530020 0
M  V30 28 H 0.934131 -7.450435 0.479637 0
M  V30 29 H 0.883357 -4.902252 -2.744263 0
M  V30 30 H -0.563666 -4.738780 -1.680415 0
M  V30 31 H -0.835693 -2.781817 -2.705488 0
M  V30 32 H 0.940960 -2.562611 -3.131155 0
M  V30 33 H -1.172545 -0.524909 -1.283103 0
M  V30 34 H -1.392336 0.630567 1.294453 0
M  V30 35 H 2.946542 3.729145 2.035570 0
M  V30 36 H 1.313490 5.606098 3.550007 0
M  V30 37 H -0.987674 6.103639 4.416296 0
M  V30 38 H -2.355858 2.478712 2.606338 0
M  V30 39 H 2.001976 -1.137106 1.506599 0
M  V30 40 H 2.695506 -3.145582 -1.617424 0
M  V30 41 H 3.014461 -3.551562 0.136195 0
M  V30 END ATOM
M  V30 BEGIN BOND
M  V30 1 1 1 2
M  V30 2 2 2 3
M  V30 3 1 2 4
M  V30 4 1 4 5
M  V30 5 1 5 6
M  V30 6 1 6 7
M  V30 7 1 7 8
M  V30 8 1 8 9
M  V30 9 1 9 10
M  V30 10 2 10 11
M  V30 11 1 11 12
M  V30 12 2 12 13
M  V30 13 1 12 14
M  V30 14 1 14 15
M  V30 15 2 15 16
M  V30 16 1 16 17
M  V30 17 2 17 18
M  V30 18 1 18 19
M  V30 19 3 19 20
M  V30 20 1 18 21
M  V30 21 2 21 22
M  V30 22 2 9 23
M  V30 23 1 23 24
M  V30 24 1 24 25
M  V30 25 1 25 4
M  V30 26 2 24 7
M  V30 27 1 22 11
M  V30 28 1 22 15
M  V30 29 1 1 26
M  V30 30 1 1 27
M  V30 31 1 1 28
M  V30 32 1 5 29
M  V30 33 1 5 30
M  V30 34 1 6 31
M  V30 35 1 6 32
M  V30 36 1 8 33
M  V30 37 1 10 34
M  V30 38 1 14 35
M  V30 39 1 16 36
M  V30 40 1 17 37
M  V30 41 1 21 38
M  V30 42 1 23 39
M  V30 43 1 25 40
M  V30 44 1 25 41
M  V30 END BOND
M  V30 END CTAB
M  END
>  <Dataset>  (20) 
ChEMBL_Kinases

>  <Ligand_Instance>  (20) 
nan

>  <PDB_ID>  (20) 
nan

>  <Standardized_SMILES>  (20) 
CC(=O)N1CCc2[nH]c(/C=C3\C(=O)Nc4ccc(C#N)cc43)cc2C1

>  <Name>  (20) 
nan

>  <Pocket>  (20) 
nan

>  <ATP_Site>  (20) 
nan

>  <Peripheral>  (20) 
nan

>  <Num_H_Atoms_ProtBoundConf>  (20) 
nan

>  <Num_Resolved_Atoms>  (20) 
nan

>  <Num_Not_Resolved_Atoms>  (20) 
nan

$$$$
CHEMBL240714
     RDKit          3D

  0  0  0  0  0  0  0  0  0  0999 V3000
M  V30 BEGIN CTAB
M  V30 COUNTS 19 19 0 0 0
M  V30 BEGIN ATOM
M  V30 1 O 1.457661 -2.867832 3.124095 0
M  V30 2 C 1.369393 -1.733430 2.513792 0
M  V30 3 O 0.108834 -1.234765 2.858256 0
M  V30 4 C 2.223792 -0.886807 1.592062 0
M  V30 5 C 1.313432 -0.026299 0.795357 0
M  V30 6 C 1.175353 1.260533 1.273721 0
M  V30 7 C 0.357976 2.198075 0.681765 0
M  V30 8 C -0.338851 1.787250 -0.435601 0
M  V30 9 C -0.217953 0.496052 -0.934226 0
M  V30 10 C 0.624914 -0.429928 -0.309599 0
M  V30 11 O 0.793090 -1.744625 -0.760119 0
M  V30 12 H -0.343117 -1.316061 3.726760 0
M  V30 13 H 2.903391 -0.299322 2.211470 0
M  V30 14 H 2.846925 -1.558118 0.946273 0
M  V30 15 H 1.719275 1.607714 2.170484 0
M  V30 16 H 0.255591 3.189712 1.068743 0
M  V30 17 H -0.998836 2.501830 -0.922230 0
M  V30 18 H -0.767856 0.154463 -1.819050 0
M  V30 19 H 1.315483 -1.806814 -1.651024 0
M  V30 END ATOM
M  V30 BEGIN BOND
M  V30 1 2 1 2
M  V30 2 1 2 3
M  V30 3 1 2 4
M  V30 4 1 4 5
M  V30 5 2 5 6
M  V30 6 1 6 7
M  V30 7 2 7 8
M  V30 8 1 8 9
M  V30 9 2 9 10
M  V30 10 1 10 11
M  V30 11 1 10 5
M  V30 12 1 3 12
M  V30 13 1 4 13
M  V30 14 1 4 14
M  V30 15 1 6 15
M  V30 16 1 7 16
M  V30 17 1 8 17
M  V30 18 1 9 18
M  V30 19 1 11 19
M  V30 END BOND
M  V30 END CTAB
M  END
>  <Dataset>  (21) 
ChEMBL_Kinases

>  <Ligand_Instance>  (21) 
nan

>  <PDB_ID>  (21) 
nan

>  <Standardized_SMILES>  (21) 
O=C(O)Cc1ccccc1O

>  <Name>  (21) 
nan

>  <Pocket>  (21) 
nan

>  <ATP_Site>  (21) 
nan

>  <Peripheral>  (21) 
nan

>  <Num_H_Atoms_ProtBoundConf>  (21) 
nan

>  <Num_Resolved_Atoms>  (21) 
nan

>  <Num_Not_Resolved_Atoms>  (21) 
nan

$$$$
CHEMBL240747
     RDKit          3D

  0  0  0  0  0  0  0  0  0  0999 V3000
M  V30 BEGIN CTAB
M  V30 COUNTS 29 33 0 0 0
M  V30 BEGIN ATOM
M  V30 1 O 3.922485 -0.747623 3.557198 0
M  V30 2 C 2.722903 -0.942587 3.235244 0
M  V30 3 N 1.670898 -1.529811 3.991543 0
M  V30 4 C 0.483394 -1.541172 3.219594 0
M  V30 5 O -0.510984 -2.030051 3.769333 0
M  V30 6 C 0.744790 -0.955006 1.933107 0
M  V30 7 C 2.071323 -0.606731 1.958065 0
M  V30 8 C 2.687481 -0.000867 0.861551 0
M  V30 9 N 3.915462 0.451254 0.560946 0
M  V30 10 C 3.950137 0.959308 -0.683433 0
M  V30 11 N 2.707016 0.820827 -1.175653 0
M  V30 12 C 1.910504 0.235852 -0.252751 0
M  V30 13 C 0.578481 -0.119102 -0.264738 0
M  V30 14 N -0.361251 0.000401 -1.196214 0
M  V30 15 C -1.527189 -0.512182 -0.702943 0
M  V30 16 C -2.748246 -0.586307 -1.340847 0
M  V30 17 C -3.834470 -1.138466 -0.695091 0
M  V30 18 C -3.654675 -1.609586 0.601617 0
M  V30 19 C -2.409100 -1.501983 1.172505 0
M  V30 20 C -1.308112 -0.966537 0.578403 0
M  V30 21 C 0.005086 -0.714718 0.835031 0
M  V30 22 H 1.889933 -1.865332 4.976375 0
M  V30 23 H 4.694348 0.385066 1.251023 0
M  V30 24 H 4.853985 1.385715 -1.138318 0
M  V30 25 H -0.196665 0.424985 -2.144715 0
M  V30 26 H -2.857910 -0.212293 -2.347988 0
M  V30 27 H -4.804718 -1.211777 -1.166004 0
M  V30 28 H -4.513830 -2.040358 1.097512 0
M  V30 29 H -2.358180 -1.883320 2.158341 0
M  V30 END ATOM
M  V30 BEGIN BOND
M  V30 1 2 1 2
M  V30 2 1 2 3
M  V30 3 1 3 4
M  V30 4 2 4 5
M  V30 5 1 4 6
M  V30 6 2 6 7
M  V30 7 1 7 8
M  V30 8 1 8 9
M  V30 9 1 9 10
M  V30 10 2 10 11
M  V30 11 1 11 12
M  V30 12 1 12 13
M  V30 13 1 13 14
M  V30 14 1 14 15
M  V30 15 2 15 16
M  V30 16 1 16 17
M  V30 17 2 17 18
M  V30 18 1 18 19
M  V30 19 2 19 20
M  V30 20 1 20 21
M  V30 21 1 7 2
M  V30 22 2 12 8
M  V30 23 2 21 13
M  V30 24 1 21 6
M  V30 25 1 20 15
M  V30 26 1 3 22
M  V30 27 1 9 23
M  V30 28 1 10 24
M  V30 29 1 14 25
M  V30 30 1 16 26
M  V30 31 1 17 27
M  V30 32 1 18 28
M  V30 33 1 19 29
M  V30 END BOND
M  V30 END CTAB
M  END
>  <Dataset>  (22) 
ChEMBL_Kinases

>  <Ligand_Instance>  (22) 
nan

>  <PDB_ID>  (22) 
nan

>  <Standardized_SMILES>  (22) 
O=C1NC(=O)c2c1c1[nH]cnc1c1[nH]c3ccccc3c21

>  <Name>  (22) 
GRANULATIMIDE

>  <Pocket>  (22) 
nan

>  <ATP_Site>  (22) 
nan

>  <Peripheral>  (22) 
nan

>  <Num_H_Atoms_ProtBoundConf>  (22) 
nan

>  <Num_Resolved_Atoms>  (22) 
nan

>  <Num_Not_Resolved_Atoms>  (22) 
nan

$$$$
CHEMBL2407744
     RDKit          3D

  0  0  0  0  0  0  0  0  0  0999 V3000
M  V30 BEGIN CTAB
M  V30 COUNTS 48 52 0 0 0
M  V30 BEGIN ATOM
M  V30 1 O 3.077861 4.723226 -3.581632 0
M  V30 2 C 3.639233 3.908981 -2.816935 0
M  V30 3 N 5.025519 3.689451 -2.618846 0
M  V30 4 C 5.121430 2.666376 -1.655777 0
M  V30 5 C 6.280819 2.106100 -1.159011 0
M  V30 6 C 6.232706 1.092173 -0.229786 0
M  V30 7 C 4.976944 0.643784 0.197866 0
M  V30 8 C 3.839872 1.221115 -0.314416 0
M  V30 9 C 3.898851 2.230691 -1.237430 0
M  V30 10 C 2.919400 2.992977 -1.947767 0
M  V30 11 C 1.630930 2.786220 -1.804157 0
M  V30 12 C 0.898971 1.884289 -0.934946 0
M  V30 13 C 0.184637 0.727400 -1.261669 0
M  V30 14 C -0.502997 0.081809 -0.265151 0
M  V30 15 C -0.521426 0.519191 1.031868 0
M  V30 16 C -1.174675 -0.048018 2.094678 0
M  V30 17 C -2.003739 -1.195442 2.346011 0
M  V30 18 C -2.479141 -2.209865 1.693691 0
M  V30 19 C -3.322928 -3.304103 2.110559 0
M  V30 20 C -3.678684 -4.256795 1.182092 0
M  V30 21 C -4.473620 -5.325924 1.504492 0
M  V30 22 C -4.940513 -5.470067 2.790356 0
M  V30 23 C -5.785312 -6.622039 3.101694 0
M  V30 24 O -6.072023 -7.442620 2.215959 0
M  V30 25 O -6.271499 -6.795809 4.408893 0
M  V30 26 C -4.619671 -4.545843 3.775381 0
M  V30 27 C -3.813433 -3.500887 3.357543 0
M  V30 28 N -0.851769 0.795043 3.121294 0
M  V30 29 N -0.082613 1.755705 2.679520 0
M  V30 30 C 0.176429 1.656248 1.365700 0
M  V30 31 C 0.884263 2.340489 0.398025 0
M  V30 32 H 5.793747 4.204566 -3.108097 0
M  V30 33 H 7.265878 2.443474 -1.481878 0
M  V30 34 H 7.155860 0.677010 0.137896 0
M  V30 35 H 5.056030 -0.161325 0.933080 0
M  V30 36 H 3.000883 0.745604 0.103898 0
M  V30 37 H 0.936325 3.354872 -2.408105 0
M  V30 38 H 0.257506 0.466052 -2.287255 0
M  V30 39 H -1.026048 -0.790737 -0.590298 0
M  V30 40 H -2.401704 -1.342866 3.364192 0
M  V30 41 H -2.154305 -2.183434 0.665435 0
M  V30 42 H -3.339194 -4.197182 0.141944 0
M  V30 43 H -4.729088 -6.054560 0.740276 0
M  V30 44 H -6.400552 -7.735748 4.756326 0
M  V30 45 H -4.981507 -4.649197 4.789326 0
M  V30 46 H -3.574906 -2.790799 4.143384 0
M  V30 47 H 0.283651 2.512186 3.294375 0
M  V30 48 H 1.407625 3.231013 0.752128 0
M  V30 END ATOM
M  V30 BEGIN BOND
M  V30 1 2 1 2
M  V30 2 1 2 3
M  V30 3 1 3 4
M  V30 4 2 4 5
M  V30 5 1 5 6
M  V30 6 2 6 7
M  V30 7 1 7 8
M  V30 8 2 8 9
M  V30 9 1 9 10
M  V30 10 2 10 11
M  V30 11 1 11 12
M  V30 12 2 12 13
M  V30 13 1 13 14
M  V30 14 2 14 15
M  V30 15 1 15 16
M  V30 16 1 16 17
M  V30 17 2 17 18
M  V30 18 1 18 19
M  V30 19 2 19 20
M  V30 20 1 20 21
M  V30 21 2 21 22
M  V30 22 1 22 23
M  V30 23 2 23 24
M  V30 24 1 23 25
M  V30 25 1 22 26
M  V30 26 2 26 27
M  V30 27 2 16 28
M  V30 28 1 28 29
M  V30 29 1 29 30
M  V30 30 2 30 31
M  V30 31 1 10 2
M  V30 32 1 31 12
M  V30 33 1 9 4
M  V30 34 1 30 15
M  V30 35 1 27 19
M  V30 36 1 3 32
M  V30 37 1 5 33
M  V30 38 1 6 34
M  V30 39 1 7 35
M  V30 40 1 8 36
M  V30 41 1 11 37
M  V30 42 1 13 38
M  V30 43 1 14 39
M  V30 44 1 17 40
M  V30 45 1 18 41
M  V30 46 1 20 42
M  V30 47 1 21 43
M  V30 48 1 25 44
M  V30 49 1 26 45
M  V30 50 1 27 46
M  V30 51 1 29 47
M  V30 52 1 31 48
M  V30 END BOND
M  V30 END CTAB
M  END
>  <Dataset>  (23) 
ChEMBL_Kinases

>  <Ligand_Instance>  (23) 
nan

>  <PDB_ID>  (23) 
nan

>  <Standardized_SMILES>  (23) 
O=C1Nc2ccccc2/C1=C\c1ccc2c(/C=C/c3ccc(C(=O)O)cc3)n[nH]c2c1

>  <Name>  (23) 
nan

>  <Pocket>  (23) 
nan

>  <ATP_Site>  (23) 
nan

>  <Peripheral>  (23) 
nan

>  <Num_H_Atoms_ProtBoundConf>  (23) 
nan

>  <Num_Resolved_Atoms>  (23) 
nan

>  <Num_Not_Resolved_Atoms>  (23) 
nan

$$$$
CHEMBL2407745
     RDKit          3D

  0  0  0  0  0  0  0  0  0  0999 V3000
M  V30 BEGIN CTAB
M  V30 COUNTS 44 48 0 0 0
M  V30 BEGIN ATOM
M  V30 1 O 3.666548 4.009197 -3.107629 0
M  V30 2 C 3.259143 2.852547 -3.354842 0
M  V30 3 N 3.387254 2.061106 -4.527341 0
M  V30 4 C 2.739908 0.809698 -4.289404 0
M  V30 5 C 2.599296 -0.246781 -5.134290 0
M  V30 6 C 1.925435 -1.356637 -4.732693 0
M  V30 7 C 1.372371 -1.419418 -3.449846 0
M  V30 8 C 1.544268 -0.323629 -2.635671 0
M  V30 9 C 2.220747 0.790564 -3.032848 0
M  V30 10 C 2.520481 2.045838 -2.406366 0
M  V30 11 C 2.108790 2.325751 -1.199672 0
M  V30 12 C 1.390433 1.614391 -0.184674 0
M  V30 13 C 1.638974 0.459838 0.566139 0
M  V30 14 C 0.765623 -0.037787 1.492917 0
M  V30 15 C -0.423053 0.600486 1.724614 0
M  V30 16 C -1.409158 0.246693 2.606760 0
M  V30 17 C -1.637798 -0.800435 3.566012 0
M  V30 18 C -1.036154 -1.844410 4.015644 0
M  V30 19 C -1.452967 -2.809996 5.025992 0
M  V30 20 C -0.613284 -3.855824 5.331949 0
M  V30 21 C -1.052578 -4.739410 6.291680 0
M  V30 22 C -2.261789 -4.593297 6.915488 0
M  V30 23 C -3.086080 -3.534728 6.590166 0
M  V30 24 N -2.646673 -2.683563 5.655745 0
M  V30 25 N -2.343538 1.220464 2.418895 0
M  V30 26 N -1.931558 2.063766 1.506351 0
M  V30 27 C -0.725352 1.740408 1.018540 0
M  V30 28 C 0.165484 2.231372 0.086281 0
M  V30 29 H 3.886501 2.387570 -5.402605 0
M  V30 30 H 3.019654 -0.207377 -6.119873 0
M  V30 31 H 1.839268 -2.169138 -5.434959 0
M  V30 32 H 0.860917 -2.359925 -3.257880 0
M  V30 33 H 1.043798 -0.537569 -1.722298 0
M  V30 34 H 2.379928 3.348559 -0.879773 0
M  V30 35 H 2.599475 0.050897 0.295294 0
M  V30 36 H 1.056986 -0.915620 2.000622 0
M  V30 37 H -2.586683 -0.779951 4.128273 0
M  V30 38 H -0.081392 -1.981652 3.540278 0
M  V30 39 H 0.357119 -3.997692 4.850588 0
M  V30 40 H -0.368046 -5.568574 6.522711 0
M  V30 41 H -2.552017 -5.333135 7.671717 0
M  V30 42 H -4.023138 -3.459614 7.103373 0
M  V30 43 H -2.492289 2.889391 1.204925 0
M  V30 44 H -0.226966 3.136808 -0.380705 0
M  V30 END ATOM
M  V30 BEGIN BOND
M  V30 1 2 1 2
M  V30 2 1 2 3
M  V30 3 1 3 4
M  V30 4 2 4 5
M  V30 5 1 5 6
M  V30 6 2 6 7
M  V30 7 1 7 8
M  V30 8 2 8 9
M  V30 9 1 9 10
M  V30 10 2 10 11
M  V30 11 1 11 12
M  V30 12 2 12 13
M  V30 13 1 13 14
M  V30 14 2 14 15
M  V30 15 1 15 16
M  V30 16 1 16 17
M  V30 17 2 17 18
M  V30 18 1 18 19
M  V30 19 2 19 20
M  V30 20 1 20 21
M  V30 21 2 21 22
M  V30 22 1 22 23
M  V30 23 2 23 24
M  V30 24 2 16 25
M  V30 25 1 25 26
M  V30 26 1 26 27
M  V30 27 2 27 28
M  V30 28 1 10 2
M  V30 29 1 28 12
M  V30 30 1 9 4
M  V30 31 1 27 15
M  V30 32 1 24 19
M  V30 33 1 3 29
M  V30 34 1 5 30
M  V30 35 1 6 31
M  V30 36 1 7 32
M  V30 37 1 8 33
M  V30 38 1 11 34
M  V30 39 1 13 35
M  V30 40 1 14 36
M  V30 41 1 17 37
M  V30 42 1 18 38
M  V30 43 1 20 39
M  V30 44 1 21 40
M  V30 45 1 22 41
M  V30 46 1 23 42
M  V30 47 1 26 43
M  V30 48 1 28 44
M  V30 END BOND
M  V30 END CTAB
M  END
>  <Dataset>  (24) 
ChEMBL_Kinases

>  <Ligand_Instance>  (24) 
nan

>  <PDB_ID>  (24) 
nan

>  <Standardized_SMILES>  (24) 
O=C1Nc2ccccc2/C1=C\c1ccc2c(/C=C/c3ccccn3)n[nH]c2c1

>  <Name>  (24) 
nan

>  <Pocket>  (24) 
nan

>  <ATP_Site>  (24) 
nan

>  <Peripheral>  (24) 
nan

>  <Num_H_Atoms_ProtBoundConf>  (24) 
nan

>  <Num_Resolved_Atoms>  (24) 
nan

>  <Num_Not_Resolved_Atoms>  (24) 
nan

$$$$
CHEMBL2407746
     RDKit          3D

  0  0  0  0  0  0  0  0  0  0999 V3000
M  V30 BEGIN CTAB
M  V30 COUNTS 44 48 0 0 0
M  V30 BEGIN ATOM
M  V30 1 O 4.843713 1.908160 -3.681083 0
M  V30 2 C 4.162651 0.857290 -3.665828 0
M  V30 3 N 4.157493 -0.210019 -4.604037 0
M  V30 4 C 3.212314 -1.164209 -4.139211 0
M  V30 5 C 2.825132 -2.361555 -4.694851 0
M  V30 6 C 1.866671 -3.149100 -4.100860 0
M  V30 7 C 1.271739 -2.725251 -2.907421 0
M  V30 8 C 1.687842 -1.522201 -2.384575 0
M  V30 9 C 2.638215 -0.743358 -2.971192 0
M  V30 10 C 3.214751 0.532275 -2.636931 0
M  V30 11 C 2.833573 1.203631 -1.587609 0
M  V30 12 C 1.917622 0.970720 -0.512378 0
M  V30 13 C 1.838049 0.023673 0.503876 0
M  V30 14 C 0.845793 -0.015465 1.443091 0
M  V30 15 C -0.146098 0.924963 1.405578 0
M  V30 16 C -1.217017 1.052259 2.251151 0
M  V30 17 C -1.744715 0.369765 3.401508 0
M  V30 18 C -1.450516 -0.663261 4.137238 0
M  V30 19 C -2.120316 -1.223194 5.299403 0
M  V30 20 C -3.266580 -0.721901 5.874193 0
M  V30 21 C -3.879170 -1.277344 6.978663 0
M  V30 22 C -3.278162 -2.401342 7.511328 0
M  V30 23 N -2.158044 -2.898539 6.956723 0
M  V30 24 C -1.574026 -2.344479 5.879967 0
M  V30 25 N -1.871622 2.143664 1.758686 0
M  V30 26 N -1.227888 2.606667 0.712832 0
M  V30 27 C -0.129528 1.892455 0.426689 0
M  V30 28 C 0.892302 1.896638 -0.504676 0
M  V30 29 H 4.756363 -0.232507 -5.453766 0
M  V30 30 H 3.291974 -2.676397 -5.616116 0
M  V30 31 H 1.623779 -4.071694 -4.603456 0
M  V30 32 H 0.540665 -3.441155 -2.559640 0
M  V30 33 H 1.106610 -1.372284 -1.506464 0
M  V30 34 H 3.340139 2.184630 -1.503791 0
M  V30 35 H 2.670627 -0.670848 0.440182 0
M  V30 36 H 0.885451 -0.787756 2.178283 0
M  V30 37 H -2.661759 0.761988 3.863221 0
M  V30 38 H -0.558240 -1.141751 3.780565 0
M  V30 39 H -3.728484 0.148656 5.458589 0
M  V30 40 H -4.784919 -0.851471 7.404266 0
M  V30 41 H -3.771315 -2.837541 8.390097 0
M  V30 42 H -0.670679 -2.796699 5.481807 0
M  V30 43 H -1.543988 3.433851 0.175504 0
M  V30 44 H 0.757480 2.719218 -1.201967 0
M  V30 END ATOM
M  V30 BEGIN BOND
M  V30 1 2 1 2
M  V30 2 1 2 3
M  V30 3 1 3 4
M  V30 4 2 4 5
M  V30 5 1 5 6
M  V30 6 2 6 7
M  V30 7 1 7 8
M  V30 8 2 8 9
M  V30 9 1 9 10
M  V30 10 2 10 11
M  V30 11 1 11 12
M  V30 12 2 12 13
M  V30 13 1 13 14
M  V30 14 2 14 15
M  V30 15 1 15 16
M  V30 16 1 16 17
M  V30 17 2 17 18
M  V30 18 1 18 19
M  V30 19 2 19 20
M  V30 20 1 20 21
M  V30 21 2 21 22
M  V30 22 1 22 23
M  V30 23 2 23 24
M  V30 24 2 16 25
M  V30 25 1 25 26
M  V30 26 1 26 27
M  V30 27 2 27 28
M  V30 28 1 10 2
M  V30 29 1 28 12
M  V30 30 1 9 4
M  V30 31 1 27 15
M  V30 32 1 24 19
M  V30 33 1 3 29
M  V30 34 1 5 30
M  V30 35 1 6 31
M  V30 36 1 7 32
M  V30 37 1 8 33
M  V30 38 1 11 34
M  V30 39 1 13 35
M  V30 40 1 14 36
M  V30 41 1 17 37
M  V30 42 1 18 38
M  V30 43 1 20 39
M  V30 44 1 21 40
M  V30 45 1 22 41
M  V30 46 1 24 42
M  V30 47 1 26 43
M  V30 48 1 28 44
M  V30 END BOND
M  V30 END CTAB
M  END
>  <Dataset>  (25) 
ChEMBL_Kinases

>  <Ligand_Instance>  (25) 
nan

>  <PDB_ID>  (25) 
nan

>  <Standardized_SMILES>  (25) 
O=C1Nc2ccccc2/C1=C\c1ccc2c(/C=C/c3cccnc3)n[nH]c2c1

>  <Name>  (25) 
nan

>  <Pocket>  (25) 
nan

>  <ATP_Site>  (25) 
nan

>  <Peripheral>  (25) 
nan

>  <Num_H_Atoms_ProtBoundConf>  (25) 
nan

>  <Num_Resolved_Atoms>  (25) 
nan

>  <Num_Not_Resolved_Atoms>  (25) 
nan

$$$$
CHEMBL2407747
     RDKit          3D

  0  0  0  0  0  0  0  0  0  0999 V3000
M  V30 BEGIN CTAB
M  V30 COUNTS 50 54 0 0 0
M  V30 BEGIN ATOM
M  V30 1 C 2.481415 2.010789 3.472772 0
M  V30 2 C 2.570809 0.517929 3.640775 0
M  V30 3 C 3.530365 -0.057435 2.631807 0
M  V30 4 C 4.868839 -0.139116 3.041201 0
M  V30 5 C 5.846640 -0.645501 2.212119 0
M  V30 6 C 5.535311 -1.090929 0.945998 0
M  V30 7 C 4.233759 -0.999973 0.581284 0
M  V30 8 C 3.227350 -0.505355 1.363077 0
M  V30 9 C 4.138762 -1.499053 -0.771740 0
M  V30 10 C 3.059621 -1.665475 -1.486486 0
M  V30 11 C 1.672179 -1.423344 -1.157538 0
M  V30 12 C 0.758967 -0.553218 -1.657907 0
M  V30 13 C -0.561230 -0.558061 -1.257992 0
M  V30 14 C -0.980073 -1.460989 -0.329418 0
M  V30 15 C -2.237369 -1.638411 0.205270 0
M  V30 16 C -3.463475 -0.881606 -0.097915 0
M  V30 17 C -4.635170 -1.106040 0.450902 0
M  V30 18 C -5.848673 -0.359638 0.153334 0
M  V30 19 C -5.899736 0.680053 -0.748347 0
M  V30 20 C -7.074014 1.384831 -1.021650 0
M  V30 21 C -8.207288 0.996777 -0.343360 0
M  V30 22 N -8.180561 -0.030668 0.554768 0
M  V30 23 C -7.028220 -0.684488 0.789662 0
M  V30 24 N -2.116003 -2.659860 1.077045 0
M  V30 25 N -0.860797 -3.074576 1.069618 0
M  V30 26 C -0.109335 -2.375014 0.222450 0
M  V30 27 C 1.214358 -2.347660 -0.198282 0
M  V30 28 C 5.459960 -1.900609 -1.226748 0
M  V30 29 O 5.757831 -2.371305 -2.335444 0
M  V30 30 N 6.307957 -1.628619 -0.116976 0
M  V30 31 H 3.439266 2.493127 3.235836 0
M  V30 32 H 2.078085 2.517600 4.368647 0
M  V30 33 H 1.784322 2.220533 2.637565 0
M  V30 34 H 2.920960 0.206900 4.637672 0
M  V30 35 H 1.583740 0.093640 3.361020 0
M  V30 36 H 5.210011 0.182155 4.010090 0
M  V30 37 H 6.891629 -0.718511 2.506518 0
M  V30 38 H 2.182567 -0.346230 1.207819 0
M  V30 39 H 2.976431 -2.028985 -2.502587 0
M  V30 40 H 1.201080 0.121578 -2.390416 0
M  V30 41 H -1.180372 0.187052 -1.734825 0
M  V30 42 H -3.374093 -0.087927 -0.826387 0
M  V30 43 H -4.660406 -1.907985 1.168333 0
M  V30 44 H -5.033322 0.985726 -1.274712 0
M  V30 45 H -7.067476 2.198831 -1.740625 0
M  V30 46 H -9.131296 1.547456 -0.554870 0
M  V30 47 H -7.093635 -1.484371 1.514427 0
M  V30 48 H -0.451990 -3.862648 1.647810 0
M  V30 49 H 1.815812 -3.104158 0.294105 0
M  V30 50 H 7.348034 -1.788660 -0.058436 0
M  V30 END ATOM
M  V30 BEGIN BOND
M  V30 1 1 1 2
M  V30 2 1 2 3
M  V30 3 2 3 4
M  V30 4 1 4 5
M  V30 5 2 5 6
M  V30 6 1 6 7
M  V30 7 2 7 8
M  V30 8 1 7 9
M  V30 9 2 9 10
M  V30 10 1 10 11
M  V30 11 2 11 12
M  V30 12 1 12 13
M  V30 13 2 13 14
M  V30 14 1 14 15
M  V30 15 1 15 16
M  V30 16 2 16 17
M  V30 17 1 17 18
M  V30 18 2 18 19
M  V30 19 1 19 20
M  V30 20 2 20 21
M  V30 21 1 21 22
M  V30 22 2 22 23
M  V30 23 2 15 24
M  V30 24 1 24 25
M  V30 25 1 25 26
M  V30 26 2 26 27
M  V30 27 1 9 28
M  V30 28 2 28 29
M  V30 29 1 28 30
M  V30 30 1 8 3
M  V30 31 1 27 11
M  V30 32 1 30 6
M  V30 33 1 26 14
M  V30 34 1 23 18
M  V30 35 1 1 31
M  V30 36 1 1 32
M  V30 37 1 1 33
M  V30 38 1 2 34
M  V30 39 1 2 35
M  V30 40 1 4 36
M  V30 41 1 5 37
M  V30 42 1 8 38
M  V30 43 1 10 39
M  V30 44 1 12 40
M  V30 45 1 13 41
M  V30 46 1 16 42
M  V30 47 1 17 43
M  V30 48 1 19 44
M  V30 49 1 20 45
M  V30 50 1 21 46
M  V30 51 1 23 47
M  V30 52 1 25 48
M  V30 53 1 27 49
M  V30 54 1 30 50
M  V30 END BOND
M  V30 END CTAB
M  END
>  <Dataset>  (26) 
ChEMBL_Kinases

>  <Ligand_Instance>  (26) 
nan

>  <PDB_ID>  (26) 
nan

>  <Standardized_SMILES>  (26) 
CCc1ccc2c(c1)/C(=C\c1ccc3c(/C=C/c4cccnc4)n[nH]c3c1)C(=O)N2

>  <Name>  (26) 
nan

>  <Pocket>  (26) 
nan

>  <ATP_Site>  (26) 
nan

>  <Peripheral>  (26) 
nan

>  <Num_H_Atoms_ProtBoundConf>  (26) 
nan

>  <Num_Resolved_Atoms>  (26) 
nan

>  <Num_Not_Resolved_Atoms>  (26) 
nan

$$$$
CHEMBL2403375
     RDKit          3D

  0  0  0  0  0  0  0  0  0  0999 V3000
M  V30 BEGIN CTAB
M  V30 COUNTS 50 53 0 0 0
M  V30 BEGIN ATOM
M  V30 1 C 1.947712 -7.165612 -2.064517 0
M  V30 2 C 2.472158 -5.808612 -2.361890 0
M  V30 3 O 3.730498 -5.630446 -2.228016 0
M  V30 4 N 1.610930 -4.765529 -2.774428 0
M  V30 5 C 0.200886 -4.935251 -2.932938 0
M  V30 6 C -0.539070 -3.629193 -3.089097 0
M  V30 7 C 0.086679 -2.636576 -2.176212 0
M  V30 8 N -0.405092 -1.760262 -1.318979 0
M  V30 9 C 0.570976 -1.039142 -0.686742 0
M  V30 10 C 0.236716 -0.042408 0.313822 0
M  V30 11 C 0.671054 1.197393 0.432486 0
M  V30 12 C 1.616913 1.828949 -0.474449 0
M  V30 13 O 2.122020 1.295038 -1.473923 0
M  V30 14 N 1.814650 3.131731 0.024394 0
M  V30 15 C 1.032123 3.324409 1.194012 0
M  V30 16 C 0.841161 4.393476 2.077656 0
M  V30 17 C -0.025179 4.268071 3.172749 0
M  V30 18 C -0.723269 3.076313 3.416120 0
M  V30 19 O -1.488914 3.244991 4.548492 0
M  V30 20 C -2.314378 2.238654 5.077956 0
M  V30 21 C -1.897455 1.828922 6.471153 0
M  V30 22 C -3.773852 2.635328 5.089990 0
M  V30 23 C -0.526736 2.039093 2.543007 0
M  V30 24 C 0.327473 2.170031 1.467503 0
M  V30 25 C 1.734339 -1.538256 -1.220075 0
M  V30 26 C 1.462062 -2.524000 -2.141349 0
M  V30 27 C 2.197116 -3.444747 -3.050127 0
M  V30 28 H 2.573180 -7.677522 -1.277252 0
M  V30 29 H 2.050341 -7.821407 -2.965938 0
M  V30 30 H 0.915715 -7.170324 -1.668293 0
M  V30 31 H -0.209255 -5.515755 -2.060007 0
M  V30 32 H -0.011370 -5.608023 -3.808352 0
M  V30 33 H -0.385728 -3.251268 -4.120382 0
M  V30 34 H -1.608123 -3.762472 -2.816800 0
M  V30 35 H -1.454059 -1.659025 -1.167496 0
M  V30 36 H -0.481723 -0.370128 1.084111 0
M  V30 37 H 2.445756 3.823530 -0.421085 0
M  V30 38 H 1.401068 5.270791 1.835415 0
M  V30 39 H -0.042509 5.201110 3.743282 0
M  V30 40 H -2.250761 1.333339 4.447287 0
M  V30 41 H -0.893492 2.318309 6.644415 0
M  V30 42 H -2.601200 2.289544 7.178206 0
M  V30 43 H -1.839216 0.732850 6.581526 0
M  V30 44 H -4.347980 2.180724 4.234787 0
M  V30 45 H -3.856353 3.751381 5.071291 0
M  V30 46 H -4.273852 2.261087 6.007392 0
M  V30 47 H -1.101453 1.170192 2.809017 0
M  V30 48 H 2.730288 -1.227148 -0.957345 0
M  V30 49 H 1.875167 -3.238273 -4.112887 0
M  V30 50 H 3.285561 -3.425315 -2.928223 0
M  V30 END ATOM
M  V30 BEGIN BOND
M  V30 1 1 1 2
M  V30 2 2 2 3
M  V30 3 1 2 4
M  V30 4 1 4 5
M  V30 5 1 5 6
M  V30 6 1 6 7
M  V30 7 1 7 8
M  V30 8 1 8 9
M  V30 9 1 9 10
M  V30 10 2 10 11
M  V30 11 1 11 12
M  V30 12 2 12 13
M  V30 13 1 12 14
M  V30 14 1 14 15
M  V30 15 2 15 16
M  V30 16 1 16 17
M  V30 17 2 17 18
M  V30 18 1 18 19
M  V30 19 1 19 20
M  V30 20 1 20 21
M  V30 21 1 20 22
M  V30 22 1 18 23
M  V30 23 2 23 24
M  V30 24 2 9 25
M  V30 25 1 25 26
M  V30 26 1 26 27
M  V30 27 1 27 4
M  V30 28 2 26 7
M  V30 29 1 24 11
M  V30 30 1 24 15
M  V30 31 1 1 28
M  V30 32 1 1 29
M  V30 33 1 1 30
M  V30 34 1 5 31
M  V30 35 1 5 32
M  V30 36 1 6 33
M  V30 37 1 6 34
M  V30 38 1 8 35
M  V30 39 1 10 36
M  V30 40 1 14 37
M  V30 41 1 16 38
M  V30 42 1 17 39
M  V30 43 1 20 40
M  V30 44 1 21 41
M  V30 45 1 21 42
M  V30 46 1 21 43
M  V30 47 1 22 44
M  V30 48 1 22 45
M  V30 49 1 22 46
M  V30 50 1 23 47
M  V30 51 1 25 48
M  V30 52 1 27 49
M  V30 53 1 27 50
M  V30 END BOND
M  V30 END CTAB
M  END
>  <Dataset>  (27) 
ChEMBL_Kinases

>  <Ligand_Instance>  (27) 
nan

>  <PDB_ID>  (27) 
nan

>  <Standardized_SMILES>  (27) 
CC(=O)N1CCc2[nH]c(/C=C3\C(=O)Nc4ccc(OC(C)C)cc43)cc2C1

>  <Name>  (27) 
nan

>  <Pocket>  (27) 
nan

>  <ATP_Site>  (27) 
nan

>  <Peripheral>  (27) 
nan

>  <Num_H_Atoms_ProtBoundConf>  (27) 
nan

>  <Num_Resolved_Atoms>  (27) 
nan

>  <Num_Not_Resolved_Atoms>  (27) 
nan

$$$$
CHEMBL2420560
     RDKit          3D

  0  0  0  0  0  0  0  0  0  0999 V3000
M  V30 BEGIN CTAB
M  V30 COUNTS 59 63 0 0 0
M  V30 BEGIN ATOM
M  V30 1 C 3.452946 -6.509847 0.360918 0
M  V30 2 C 3.207670 -5.383385 1.322726 0 CFG=2
M  V30 3 N 2.472701 -4.285148 0.756219 0
M  V30 4 C 1.237581 -3.822970 1.294170 0
M  V30 5 O 0.836259 -4.448628 2.304952 0
M  V30 6 C 0.501624 -2.706471 0.708249 0
M  V30 7 C 0.899382 -1.986387 -0.398703 0
M  V30 8 C 0.161167 -0.939544 -0.908688 0
M  V30 9 C -1.021122 -0.626467 -0.258381 0
M  V30 10 N -1.754544 0.374967 -0.724089 0
M  V30 11 C -2.927311 0.794821 -0.197211 0
M  V30 12 N -3.670976 1.884817 -0.748316 0
M  V30 13 C -3.089283 2.518678 -1.906005 0 CFG=1
M  V30 14 C -3.995441 3.645149 -2.371018 0
M  V30 15 C -3.696483 4.957806 -1.683583 0
M  V30 16 C -3.151908 4.789207 -0.298045 0 CFG=2
M  V30 17 O -2.928191 6.070203 0.209010 0
M  V30 18 C -1.839475 4.057571 -0.364964 0
M  V30 19 C -1.758053 3.168566 -1.596098 0
M  V30 20 C -3.332416 0.079563 0.910845 0
M  V30 21 N -4.440044 0.235316 1.669005 0
M  V30 22 C -4.432042 -0.685990 2.654857 0
M  V30 23 C -3.283452 -1.444428 2.511748 0
M  V30 24 N -2.642025 -0.945270 1.437787 0
M  V30 25 C -1.482803 -1.306122 0.858512 0
M  V30 26 C -0.685880 -2.341449 1.307140 0
M  V30 27 C 4.509237 -4.859478 1.831271 0
M  V30 28 C 5.203511 -3.994637 1.010813 0
M  V30 29 C 6.412506 -3.487283 1.444204 0
M  V30 30 C 6.985764 -3.796019 2.674008 0
M  V30 31 C 6.240329 -4.671114 3.455323 0
M  V30 32 C 5.017727 -5.214958 3.074425 0
M  V30 33 H 2.729709 -7.333115 0.440136 0
M  V30 34 H 3.506230 -6.187691 -0.699241 0
M  V30 35 H 4.439164 -6.957519 0.611538 0
M  V30 36 H 2.695446 -5.817832 2.214028 0
M  V30 37 H 2.879287 -3.820723 -0.085155 0
M  V30 38 H 1.816232 -2.264384 -0.865371 0
M  V30 39 H 0.489216 -0.385711 -1.778307 0
M  V30 40 H -4.563931 2.112093 -0.254993 0
M  V30 41 H -2.925591 1.787000 -2.699139 0
M  V30 42 H -5.033670 3.361360 -2.103053 0
M  V30 43 H -3.972036 3.750040 -3.477785 0
M  V30 44 H -4.620881 5.583614 -1.611453 0
M  V30 45 H -2.926439 5.467924 -2.280007 0
M  V30 46 H -3.872944 4.311253 0.395870 0
M  V30 47 H -3.535606 6.322015 0.944279 0
M  V30 48 H -1.692438 3.461538 0.580526 0
M  V30 49 H -1.030591 4.815862 -0.378697 0
M  V30 50 H -1.525501 3.842647 -2.454837 0
M  V30 51 H -0.922628 2.452054 -1.528891 0
M  V30 52 H -5.190044 -0.790114 3.400701 0
M  V30 53 H -2.947443 -2.266060 3.116038 0
M  V30 54 H -1.043277 -2.874299 2.179494 0
M  V30 55 H 4.906692 -3.652983 0.034817 0
M  V30 56 H 7.003662 -2.793782 0.825471 0
M  V30 57 H 7.926598 -3.400139 3.009228 0
M  V30 58 H 6.597817 -4.973101 4.426865 0
M  V30 59 H 4.474884 -5.885953 3.706403 0
M  V30 END ATOM
M  V30 BEGIN BOND
M  V30 1 1 1 2
M  V30 2 1 2 3
M  V30 3 1 3 4
M  V30 4 2 4 5
M  V30 5 1 4 6
M  V30 6 2 6 7
M  V30 7 1 7 8
M  V30 8 2 8 9
M  V30 9 1 9 10
M  V30 10 2 10 11
M  V30 11 1 11 12
M  V30 12 1 12 13
M  V30 13 1 13 14
M  V30 14 1 14 15
M  V30 15 1 15 16
M  V30 16 1 16 17
M  V30 17 1 16 18
M  V30 18 1 18 19
M  V30 19 1 11 20
M  V30 20 2 20 21
M  V30 21 1 21 22
M  V30 22 2 22 23
M  V30 23 1 23 24
M  V30 24 1 24 25
M  V30 25 2 25 26
M  V30 26 1 2 27
M  V30 27 2 27 28
M  V30 28 1 28 29
M  V30 29 2 29 30
M  V30 30 1 30 31
M  V30 31 2 31 32
M  V30 32 1 26 6
M  V30 33 1 32 27
M  V30 34 1 25 9
M  V30 35 1 19 13
M  V30 36 1 24 20
M  V30 37 1 1 33
M  V30 38 1 1 34
M  V30 39 1 1 35
M  V30 40 1 2 36 CFG=1
M  V30 41 1 3 37
M  V30 42 1 7 38
M  V30 43 1 8 39
M  V30 44 1 12 40
M  V30 45 1 13 41 CFG=3
M  V30 46 1 14 42
M  V30 47 1 14 43
M  V30 48 1 15 44
M  V30 49 1 15 45
M  V30 50 1 16 46 CFG=1
M  V30 51 1 17 47
M  V30 52 1 18 48
M  V30 53 1 18 49
M  V30 54 1 19 50
M  V30 55 1 19 51
M  V30 56 1 22 52
M  V30 57 1 23 53
M  V30 58 1 26 54
M  V30 59 1 28 55
M  V30 60 1 29 56
M  V30 61 1 30 57
M  V30 62 1 31 58
M  V30 63 1 32 59
M  V30 END BOND
M  V30 END CTAB
M  END
>  <Dataset>  (28) 
ChEMBL_Kinases

>  <Ligand_Instance>  (28) 
nan

>  <PDB_ID>  (28) 
nan

>  <Standardized_SMILES>  (28) 
C[C@H](NC(=O)c1ccc2nc(N[C@H]3CC[C@H](O)CC3)c3nccn3c2c1)c1ccccc1

>  <Name>  (28) 
nan

>  <Pocket>  (28) 
nan

>  <ATP_Site>  (28) 
nan

>  <Peripheral>  (28) 
nan

>  <Num_H_Atoms_ProtBoundConf>  (28) 
nan

>  <Num_Resolved_Atoms>  (28) 
nan

>  <Num_Not_Resolved_Atoms>  (28) 
nan

$$$$
CHEMBL2420559
     RDKit          3D

  0  0  0  0  0  0  0  0  0  0999 V3000
M  V30 BEGIN CTAB
M  V30 COUNTS 56 60 0 0 0
M  V30 BEGIN ATOM
M  V30 1 O 3.635197 1.979068 0.996947 0
M  V30 2 C 2.494842 1.458390 1.081736 0
M  V30 3 N 1.796639 1.514237 2.312415 0
M  V30 4 C 2.215331 2.102702 3.541881 0
M  V30 5 C 3.201281 1.277436 4.276003 0
M  V30 6 C 4.574098 1.322639 4.186507 0
M  V30 7 C 5.378628 0.486741 4.930929 0
M  V30 8 C 4.821835 -0.443725 5.810092 0
M  V30 9 C 3.444296 -0.533735 5.941187 0
M  V30 10 C 2.690090 0.329689 5.169586 0
M  V30 11 C 1.982499 0.829095 -0.125233 0
M  V30 12 C 2.727159 0.887903 -1.281772 0
M  V30 13 C 2.296831 0.301672 -2.477451 0
M  V30 14 C 1.097978 -0.364567 -2.544623 0
M  V30 15 C 0.360396 -0.424570 -1.404485 0
M  V30 16 C 0.792539 0.156128 -0.230777 0
M  V30 17 N -0.823336 -1.057355 -1.384611 0
M  V30 18 C -1.363795 -1.665013 -2.452551 0
M  V30 19 N -2.622531 -2.310966 -2.324998 0
M  V30 20 C -3.314518 -2.323900 -1.077431 0 CFG=1
M  V30 21 C -3.691813 -0.958958 -0.547674 0
M  V30 22 C -4.101484 -1.133420 0.895050 0
M  V30 23 C -4.554952 -2.505966 1.251692 0 CFG=2
M  V30 24 O -3.539549 -3.273128 1.869784 0
M  V30 25 C -5.257737 -3.263570 0.175216 0
M  V30 26 C -4.615852 -3.098178 -1.182343 0
M  V30 27 C -0.614214 -1.599850 -3.598884 0
M  V30 28 N -0.862778 -2.097047 -4.826987 0
M  V30 29 C 0.176810 -1.777499 -5.642255 0
M  V30 30 C 1.092989 -1.055277 -4.870857 0
M  V30 31 N 0.589164 -0.958349 -3.624171 0
M  V30 32 H 0.859580 1.053352 2.270123 0
M  V30 33 H 1.339394 2.251446 4.201281 0
M  V30 34 H 2.596998 3.123481 3.323930 0
M  V30 35 H 4.957794 2.058085 3.494502 0
M  V30 36 H 6.453484 0.545137 4.840156 0
M  V30 37 H 5.394910 -1.117393 6.411972 0
M  V30 38 H 2.940968 -1.233292 6.604746 0
M  V30 39 H 1.598609 0.247522 5.283393 0
M  V30 40 H 3.703590 1.391909 -1.358067 0
M  V30 41 H 2.894157 0.352055 -3.395065 0
M  V30 42 H 0.166959 0.078428 0.646174 0
M  V30 43 H -3.034883 -2.776394 -3.156845 0
M  V30 44 H -2.733038 -2.826476 -0.270503 0
M  V30 45 H -4.576908 -0.607920 -1.159467 0
M  V30 46 H -2.883683 -0.221415 -0.614313 0
M  V30 47 H -3.166105 -0.946445 1.500911 0
M  V30 48 H -4.819718 -0.340401 1.176068 0
M  V30 49 H -5.316716 -2.372118 2.078466 0
M  V30 50 H -2.797458 -2.688677 2.165831 0
M  V30 51 H -6.348748 -3.054263 0.168018 0
M  V30 52 H -5.164176 -4.354466 0.456309 0
M  V30 53 H -4.449328 -4.048553 -1.685460 0
M  V30 54 H -5.298001 -2.426615 -1.781125 0
M  V30 55 H 0.268287 -2.038405 -6.690321 0
M  V30 56 H 2.031492 -0.655070 -5.229787 0
M  V30 END ATOM
M  V30 BEGIN BOND
M  V30 1 2 1 2
M  V30 2 1 2 3
M  V30 3 1 3 4
M  V30 4 1 4 5
M  V30 5 2 5 6
M  V30 6 1 6 7
M  V30 7 2 7 8
M  V30 8 1 8 9
M  V30 9 2 9 10
M  V30 10 1 2 11
M  V30 11 2 11 12
M  V30 12 1 12 13
M  V30 13 2 13 14
M  V30 14 1 14 15
M  V30 15 2 15 16
M  V30 16 1 15 17
M  V30 17 2 17 18
M  V30 18 1 18 19
M  V30 19 1 19 20
M  V30 20 1 20 21
M  V30 21 1 21 22
M  V30 22 1 22 23
M  V30 23 1 23 24
M  V30 24 1 23 25
M  V30 25 1 25 26
M  V30 26 1 18 27
M  V30 27 2 27 28
M  V30 28 1 28 29
M  V30 29 2 29 30
M  V30 30 1 30 31
M  V30 31 1 10 5
M  V30 32 1 16 11
M  V30 33 1 26 20
M  V30 34 1 31 27
M  V30 35 1 31 14
M  V30 36 1 3 32
M  V30 37 1 4 33
M  V30 38 1 4 34
M  V30 39 1 6 35
M  V30 40 1 7 36
M  V30 41 1 8 37
M  V30 42 1 9 38
M  V30 43 1 10 39
M  V30 44 1 12 40
M  V30 45 1 13 41
M  V30 46 1 16 42
M  V30 47 1 19 43
M  V30 48 1 20 44 CFG=1
M  V30 49 1 21 45
M  V30 50 1 21 46
M  V30 51 1 22 47
M  V30 52 1 22 48
M  V30 53 1 23 49 CFG=1
M  V30 54 1 24 50
M  V30 55 1 25 51
M  V30 56 1 25 52
M  V30 57 1 26 53
M  V30 58 1 26 54
M  V30 59 1 29 55
M  V30 60 1 30 56
M  V30 END BOND
M  V30 END CTAB
M  END
>  <Dataset>  (29) 
ChEMBL_Kinases

>  <Ligand_Instance>  (29) 
nan

>  <PDB_ID>  (29) 
nan

>  <Standardized_SMILES>  (29) 
O=C(NCc1ccccc1)c1ccc2c(c1)nc(N[C@H]1CC[C@H](O)CC1)c1nccn12

>  <Name>  (29) 
nan

>  <Pocket>  (29) 
nan

>  <ATP_Site>  (29) 
nan

>  <Peripheral>  (29) 
nan

>  <Num_H_Atoms_ProtBoundConf>  (29) 
nan

>  <Num_Resolved_Atoms>  (29) 
nan

>  <Num_Not_Resolved_Atoms>  (29) 
nan

$$$$
CHEMBL2420558
     RDKit          3D

  0  0  0  0  0  0  0  0  0  0999 V3000
M  V30 BEGIN CTAB
M  V30 COUNTS 56 60 0 0 0
M  V30 BEGIN ATOM
M  V30 1 O 2.865878 2.242742 0.926214 0
M  V30 2 C 2.931771 1.012458 0.599896 0
M  V30 3 N 4.192129 0.388700 0.558302 0
M  V30 4 C 5.489170 0.968829 0.847949 0
M  V30 5 C 5.612065 1.070394 2.331689 0
M  V30 6 C 6.137111 -0.037736 2.997988 0
M  V30 7 C 6.329953 -0.133419 4.358796 0
M  V30 8 C 5.975850 0.956673 5.139393 0
M  V30 9 C 5.454967 2.060252 4.494402 0
M  V30 10 C 5.269577 2.137736 3.132535 0
M  V30 11 C 1.662971 0.363855 0.296178 0
M  V30 12 C 0.514722 1.123445 0.361857 0
M  V30 13 C -0.754600 0.596541 0.090523 0
M  V30 14 C -0.825715 -0.738151 -0.252658 0
M  V30 15 N -2.019350 -1.293714 -0.520790 0
M  V30 16 C -2.170817 -2.581119 -0.858773 0
M  V30 17 N -3.450701 -3.161502 -1.142430 0
M  V30 18 C -4.647498 -2.345865 -1.076629 0 CFG=1
M  V30 19 C -4.782256 -1.789529 0.279682 0
M  V30 20 C -5.285441 -0.375140 0.347837 0
M  V30 21 C -6.202057 -0.039001 -0.806807 0 CFG=2
M  V30 22 O -7.273247 -0.922312 -0.894528 0
M  V30 23 C -5.341175 -0.113738 -2.047394 0
M  V30 24 C -4.588218 -1.375636 -2.206544 0
M  V30 25 C -1.022312 -3.343628 -0.925176 0
M  V30 26 N -0.875076 -4.626122 -1.230028 0
M  V30 27 C 0.421629 -4.974097 -1.177554 0
M  V30 28 C 1.089187 -3.820913 -0.816747 0
M  V30 29 N 0.202815 -2.808230 -0.658852 0
M  V30 30 C 0.321750 -1.502607 -0.319500 0
M  V30 31 C 1.572371 -0.967160 -0.048349 0
M  V30 32 H 4.158574 -0.604846 0.282518 0
M  V30 33 H 6.286711 0.309703 0.488208 0
M  V30 34 H 5.570612 1.978406 0.378761 0
M  V30 35 H 6.428308 -0.918956 2.409856 0
M  V30 36 H 6.748908 -1.046163 4.783542 0
M  V30 37 H 6.126996 0.881717 6.207013 0
M  V30 38 H 5.173634 2.924623 5.107422 0
M  V30 39 H 4.870376 2.987686 2.625753 0
M  V30 40 H 0.486563 2.184171 0.625301 0
M  V30 41 H -1.652926 1.205347 0.145358 0
M  V30 42 H -3.477445 -4.174017 -1.392267 0
M  V30 43 H -5.514635 -3.047638 -1.259566 0
M  V30 44 H -5.519144 -2.392849 0.889004 0
M  V30 45 H -3.851334 -1.852766 0.879935 0
M  V30 46 H -5.798150 -0.136970 1.296702 0
M  V30 47 H -4.416314 0.328760 0.265335 0
M  V30 48 H -6.515702 1.017947 -0.677970 0
M  V30 49 H -7.722041 -0.991238 -0.017662 0
M  V30 50 H -5.936996 0.122221 -2.956064 0
M  V30 51 H -4.631748 0.752298 -1.955695 0
M  V30 52 H -4.982140 -1.904872 -3.124125 0
M  V30 53 H -3.535035 -1.129555 -2.501449 0
M  V30 54 H 0.916420 -5.932946 -1.364384 0
M  V30 55 H 2.163122 -3.742495 -0.681541 0
M  V30 56 H 2.441435 -1.595436 -0.111621 0
M  V30 END ATOM
M  V30 BEGIN BOND
M  V30 1 2 1 2
M  V30 2 1 2 3
M  V30 3 1 3 4
M  V30 4 1 4 5
M  V30 5 2 5 6
M  V30 6 1 6 7
M  V30 7 2 7 8
M  V30 8 1 8 9
M  V30 9 2 9 10
M  V30 10 1 2 11
M  V30 11 2 11 12
M  V30 12 1 12 13
M  V30 13 2 13 14
M  V30 14 1 14 15
M  V30 15 2 15 16
M  V30 16 1 16 17
M  V30 17 1 17 18
M  V30 18 1 18 19
M  V30 19 1 19 20
M  V30 20 1 20 21
M  V30 21 1 21 22
M  V30 22 1 21 23
M  V30 23 1 23 24
M  V30 24 1 16 25
M  V30 25 2 25 26
M  V30 26 1 26 27
M  V30 27 2 27 28
M  V30 28 1 28 29
M  V30 29 1 29 30
M  V30 30 2 30 31
M  V30 31 1 10 5
M  V30 32 1 31 11
M  V30 33 1 30 14
M  V30 34 1 24 18
M  V30 35 1 29 25
M  V30 36 1 3 32
M  V30 37 1 4 33
M  V30 38 1 4 34
M  V30 39 1 6 35
M  V30 40 1 7 36
M  V30 41 1 8 37
M  V30 42 1 9 38
M  V30 43 1 10 39
M  V30 44 1 12 40
M  V30 45 1 13 41
M  V30 46 1 17 42
M  V30 47 1 18 43 CFG=3
M  V30 48 1 19 44
M  V30 49 1 19 45
M  V30 50 1 20 46
M  V30 51 1 20 47
M  V30 52 1 21 48 CFG=1
M  V30 53 1 22 49
M  V30 54 1 23 50
M  V30 55 1 23 51
M  V30 56 1 24 52
M  V30 57 1 24 53
M  V30 58 1 27 54
M  V30 59 1 28 55
M  V30 60 1 31 56
M  V30 END BOND
M  V30 END CTAB
M  END
>  <Dataset>  (30) 
ChEMBL_Kinases

>  <Ligand_Instance>  (30) 
nan

>  <PDB_ID>  (30) 
nan

>  <Standardized_SMILES>  (30) 
O=C(NCc1ccccc1)c1ccc2nc(N[C@H]3CC[C@H](O)CC3)c3nccn3c2c1

>  <Name>  (30) 
nan

>  <Pocket>  (30) 
nan

>  <ATP_Site>  (30) 
nan

>  <Peripheral>  (30) 
nan

>  <Num_H_Atoms_ProtBoundConf>  (30) 
nan

>  <Num_Resolved_Atoms>  (30) 
nan

>  <Num_Not_Resolved_Atoms>  (30) 
nan

$$$$
CHEMBL2420557
     RDKit          3D

  0  0  0  0  0  0  0  0  0  0999 V3000
M  V30 BEGIN CTAB
M  V30 COUNTS 59 63 0 0 0
M  V30 BEGIN ATOM
M  V30 1 C 3.142899 -6.008265 0.720910 0
M  V30 2 C 4.050297 -4.772711 0.728114 0 CFG=1
M  V30 3 N 3.221587 -3.672635 0.311399 0
M  V30 4 C 3.343269 -2.863990 -0.847782 0
M  V30 5 O 4.264306 -3.053716 -1.683469 0
M  V30 6 C 2.416351 -1.776407 -1.134663 0
M  V30 7 C 2.592088 -1.026787 -2.278988 0
M  V30 8 C 1.762974 0.025352 -2.636372 0
M  V30 9 C 0.700285 0.369326 -1.835030 0
M  V30 10 C 0.515075 -0.373251 -0.688651 0
M  V30 11 C 1.348785 -1.424465 -0.337314 0
M  V30 12 N -0.486887 -0.124965 0.159365 0
M  V30 13 C -1.379198 0.869492 -0.056380 0
M  V30 14 N -2.418589 1.106971 0.874541 0
M  V30 15 C -3.474615 2.092360 0.781879 0 CFG=1
M  V30 16 C -4.408941 1.763240 -0.345879 0
M  V30 17 C -5.734989 1.225473 0.167513 0
M  V30 18 C -6.430727 2.309391 0.931493 0 CFG=2
M  V30 19 O -6.995214 3.243065 0.088051 0
M  V30 20 C -5.501267 3.022770 1.886726 0
M  V30 21 C -4.207566 2.253691 2.072842 0
M  V30 22 C -1.185510 1.606126 -1.204506 0
M  V30 23 N -1.852192 2.647662 -1.728067 0
M  V30 24 C -1.291346 3.054459 -2.880744 0
M  V30 25 C -0.208469 2.218266 -3.093000 0
M  V30 26 N -0.179187 1.360366 -2.060584 0
M  V30 27 C 4.630772 -4.581863 2.101237 0
M  V30 28 C 3.779732 -4.131635 3.105311 0
M  V30 29 C 4.276456 -3.937860 4.397246 0
M  V30 30 C 5.602236 -4.189441 4.683534 0
M  V30 31 C 6.445872 -4.634256 3.693906 0
M  V30 32 C 5.947313 -4.822464 2.422854 0
M  V30 33 H 3.733825 -6.920165 0.642579 0
M  V30 34 H 2.436623 -5.977342 1.575508 0
M  V30 35 H 2.510338 -5.903757 -0.187612 0
M  V30 36 H 4.871383 -4.998387 0.019172 0
M  V30 37 H 2.457633 -3.515610 1.004347 0
M  V30 38 H 3.397632 -1.218015 -2.974569 0
M  V30 39 H 1.909174 0.606340 -3.535333 0
M  V30 40 H 1.186664 -1.988845 0.558960 0
M  V30 41 H -2.443091 0.510158 1.736233 0
M  V30 42 H -2.954139 3.045051 0.481802 0
M  V30 43 H -3.956184 1.014843 -1.034242 0
M  V30 44 H -4.637227 2.669559 -0.938907 0
M  V30 45 H -5.543018 0.317020 0.745710 0
M  V30 46 H -6.326859 0.933581 -0.725221 0
M  V30 47 H -7.230116 1.800512 1.546743 0
M  V30 48 H -6.988170 2.916100 -0.853418 0
M  V30 49 H -5.986504 3.093340 2.877886 0
M  V30 50 H -5.279126 4.035835 1.488757 0
M  V30 51 H -4.444461 1.291576 2.567072 0
M  V30 52 H -3.570702 2.876658 2.753298 0
M  V30 53 H -1.597645 3.863689 -3.531492 0
M  V30 54 H 0.448043 2.288165 -3.938381 0
M  V30 55 H 2.729454 -3.908176 2.979772 0
M  V30 56 H 3.617269 -3.581684 5.204119 0
M  V30 57 H 5.928060 -4.022675 5.696223 0
M  V30 58 H 7.503497 -4.838640 3.908118 0
M  V30 59 H 6.610918 -5.177367 1.626930 0
M  V30 END ATOM
M  V30 BEGIN BOND
M  V30 1 1 1 2
M  V30 2 1 2 3
M  V30 3 1 3 4
M  V30 4 2 4 5
M  V30 5 1 4 6
M  V30 6 2 6 7
M  V30 7 1 7 8
M  V30 8 2 8 9
M  V30 9 1 9 10
M  V30 10 2 10 11
M  V30 11 1 10 12
M  V30 12 2 12 13
M  V30 13 1 13 14
M  V30 14 1 14 15
M  V30 15 1 15 16
M  V30 16 1 16 17
M  V30 17 1 17 18
M  V30 18 1 18 19
M  V30 19 1 18 20
M  V30 20 1 20 21
M  V30 21 1 13 22
M  V30 22 2 22 23
M  V30 23 1 23 24
M  V30 24 2 24 25
M  V30 25 1 25 26
M  V30 26 1 2 27
M  V30 27 2 27 28
M  V30 28 1 28 29
M  V30 29 2 29 30
M  V30 30 1 30 31
M  V30 31 2 31 32
M  V30 32 1 11 6
M  V30 33 1 21 15
M  V30 34 1 26 22
M  V30 35 1 32 27
M  V30 36 1 26 9
M  V30 37 1 1 33
M  V30 38 1 1 34
M  V30 39 1 1 35
M  V30 40 1 2 36 CFG=3
M  V30 41 1 3 37
M  V30 42 1 7 38
M  V30 43 1 8 39
M  V30 44 1 11 40
M  V30 45 1 14 41
M  V30 46 1 15 42 CFG=3
M  V30 47 1 16 43
M  V30 48 1 16 44
M  V30 49 1 17 45
M  V30 50 1 17 46
M  V30 51 1 18 47 CFG=1
M  V30 52 1 19 48
M  V30 53 1 20 49
M  V30 54 1 20 50
M  V30 55 1 21 51
M  V30 56 1 21 52
M  V30 57 1 24 53
M  V30 58 1 25 54
M  V30 59 1 28 55
M  V30 60 1 29 56
M  V30 61 1 30 57
M  V30 62 1 31 58
M  V30 63 1 32 59
M  V30 END BOND
M  V30 END CTAB
M  END
>  <Dataset>  (31) 
ChEMBL_Kinases

>  <Ligand_Instance>  (31) 
nan

>  <PDB_ID>  (31) 
nan

>  <Standardized_SMILES>  (31) 
C[C@@H](NC(=O)c1ccc2c(c1)nc(N[C@H]1CC[C@H](O)CC1)c1nccn12)c1ccccc1

>  <Name>  (31) 
nan

>  <Pocket>  (31) 
nan

>  <ATP_Site>  (31) 
nan

>  <Peripheral>  (31) 
nan

>  <Num_H_Atoms_ProtBoundConf>  (31) 
nan

>  <Num_Resolved_Atoms>  (31) 
nan

>  <Num_Not_Resolved_Atoms>  (31) 
nan

$$$$
CHEMBL2420554
     RDKit          3D

  0  0  0  0  0  0  0  0  0  0999 V3000
M  V30 BEGIN CTAB
M  V30 COUNTS 60 65 0 0 0
M  V30 BEGIN ATOM
M  V30 1 O 3.499872 0.298096 2.006033 0
M  V30 2 C 3.108796 0.040372 0.844264 0
M  V30 3 N 4.113618 0.169405 -0.150462 0
M  V30 4 C 5.400313 0.577422 0.388615 0
M  V30 5 C 5.410848 1.533599 1.528392 0
M  V30 6 C 6.082495 1.311957 2.716153 0
M  V30 7 C 6.049688 2.245198 3.734708 0
M  V30 8 C 5.325094 3.399407 3.521285 0
M  V30 9 Cl 5.296394 4.581159 4.838673 0
M  V30 10 C 4.649365 3.635427 2.341527 0
M  V30 11 C 4.672871 2.700184 1.300615 0
M  V30 12 C 6.507937 0.722401 -0.677724 0
M  V30 13 C 6.559446 -0.409901 0.272915 0
M  V30 14 C 1.738072 -0.358578 0.538346 0
M  V30 15 C 1.289001 -0.649457 -0.733855 0
M  V30 16 C -0.006928 -1.026671 -1.023299 0
M  V30 17 C -0.857802 -1.097283 0.082025 0
M  V30 18 N -2.132927 -1.460119 -0.142025 0
M  V30 19 C -3.069415 -1.573509 0.813664 0
M  V30 20 N -4.403333 -1.958500 0.545402 0
M  V30 21 C -4.891241 -2.271087 -0.763866 0 CFG=1
M  V30 22 C -4.169832 -3.452315 -1.373460 0
M  V30 23 C -4.526018 -3.536254 -2.842833 0
M  V30 24 C -5.993999 -3.392555 -3.068639 0 CFG=2
M  V30 25 O -6.296184 -2.235268 -3.756905 0
M  V30 26 C -6.801589 -3.551354 -1.806427 0
M  V30 27 C -6.352349 -2.676905 -0.678283 0
M  V30 28 C -2.635724 -1.285796 2.091284 0
M  V30 29 N -3.327006 -1.307165 3.251155 0
M  V30 30 C -2.509940 -0.955024 4.268739 0
M  V30 31 C -1.270116 -0.712042 3.684224 0
M  V30 32 N -1.368505 -0.919251 2.357364 0
M  V30 33 C -0.458167 -0.816745 1.372693 0
M  V30 34 C 0.854295 -0.443675 1.600511 0
M  V30 35 H 3.893247 -0.022326 -1.152255 0
M  V30 36 H 6.632274 0.399153 2.834953 0
M  V30 37 H 6.600420 1.994583 4.628283 0
M  V30 38 H 4.084432 4.561209 2.205312 0
M  V30 39 H 4.130198 2.946048 0.418790 0
M  V30 40 H 6.275168 0.489700 -1.719423 0
M  V30 41 H 7.233867 1.546182 -0.518885 0
M  V30 42 H 7.325665 -0.388808 1.086144 0
M  V30 43 H 6.257767 -1.394132 -0.092661 0
M  V30 44 H 1.978065 -0.583293 -1.562984 0
M  V30 45 H -0.327581 -1.247450 -2.027391 0
M  V30 46 H -5.061878 -2.011398 1.378940 0
M  V30 47 H -4.778807 -1.371276 -1.406336 0
M  V30 48 H -4.584672 -4.369419 -0.895893 0
M  V30 49 H -3.103060 -3.341130 -1.198709 0
M  V30 50 H -4.150133 -4.515129 -3.219117 0
M  V30 51 H -3.973600 -2.756651 -3.433258 0
M  V30 52 H -6.326137 -4.238658 -3.737549 0
M  V30 53 H -5.569237 -1.588951 -3.678666 0
M  V30 54 H -7.864288 -3.345157 -2.083953 0
M  V30 55 H -6.801418 -4.632567 -1.513598 0
M  V30 56 H -7.008600 -1.803780 -0.532110 0
M  V30 57 H -6.430525 -3.291042 0.265044 0
M  V30 58 H -2.708969 -0.860242 5.340533 0
M  V30 59 H -0.343738 -0.404827 4.165791 0
M  V30 60 H 1.091186 -0.240778 2.633056 0
M  V30 END ATOM
M  V30 BEGIN BOND
M  V30 1 2 1 2
M  V30 2 1 2 3
M  V30 3 1 3 4
M  V30 4 1 4 5
M  V30 5 2 5 6
M  V30 6 1 6 7
M  V30 7 2 7 8
M  V30 8 1 8 9
M  V30 9 1 8 10
M  V30 10 2 10 11
M  V30 11 1 4 12
M  V30 12 1 12 13
M  V30 13 1 2 14
M  V30 14 2 14 15
M  V30 15 1 15 16
M  V30 16 2 16 17
M  V30 17 1 17 18
M  V30 18 2 18 19
M  V30 19 1 19 20
M  V30 20 1 20 21
M  V30 21 1 21 22
M  V30 22 1 22 23
M  V30 23 1 23 24
M  V30 24 1 24 25
M  V30 25 1 24 26
M  V30 26 1 26 27
M  V30 27 1 19 28
M  V30 28 2 28 29
M  V30 29 1 29 30
M  V30 30 2 30 31
M  V30 31 1 31 32
M  V30 32 1 32 33
M  V30 33 2 33 34
M  V30 34 1 13 4
M  V30 35 1 34 14
M  V30 36 1 11 5
M  V30 37 1 33 17
M  V30 38 1 27 21
M  V30 39 1 32 28
M  V30 40 1 3 35
M  V30 41 1 6 36
M  V30 42 1 7 37
M  V30 43 1 10 38
M  V30 44 1 11 39
M  V30 45 1 12 40
M  V30 46 1 12 41
M  V30 47 1 13 42
M  V30 48 1 13 43
M  V30 49 1 15 44
M  V30 50 1 16 45
M  V30 51 1 20 46
M  V30 52 1 21 47 CFG=3
M  V30 53 1 22 48
M  V30 54 1 22 49
M  V30 55 1 23 50
M  V30 56 1 23 51
M  V30 57 1 24 52 CFG=3
M  V30 58 1 25 53
M  V30 59 1 26 54
M  V30 60 1 26 55
M  V30 61 1 27 56
M  V30 62 1 27 57
M  V30 63 1 30 58
M  V30 64 1 31 59
M  V30 65 1 34 60
M  V30 END BOND
M  V30 END CTAB
M  END
>  <Dataset>  (32) 
ChEMBL_Kinases

>  <Ligand_Instance>  (32) 
nan

>  <PDB_ID>  (32) 
nan

>  <Standardized_SMILES>  (32) 
O=C(NC1(c2ccc(Cl)cc2)CC1)c1ccc2nc(N[C@H]3CC[C@H](O)CC3)c3nccn3c2c1

>  <Name>  (32) 
nan

>  <Pocket>  (32) 
nan

>  <ATP_Site>  (32) 
nan

>  <Peripheral>  (32) 
nan

>  <Num_H_Atoms_ProtBoundConf>  (32) 
nan

>  <Num_Resolved_Atoms>  (32) 
nan

>  <Num_Not_Resolved_Atoms>  (32) 
nan

$$$$
CHEMBL2420553
     RDKit          3D

  0  0  0  0  0  0  0  0  0  0999 V3000
M  V30 BEGIN CTAB
M  V30 COUNTS 63 68 0 0 0
M  V30 BEGIN ATOM
M  V30 1 C 4.807128 5.939707 1.453330 0
M  V30 2 C 4.307518 4.832887 2.300267 0
M  V30 3 C 4.714802 3.537491 2.031662 0
M  V30 4 C 4.222427 2.532464 2.849210 0
M  V30 5 C 3.348619 2.836772 3.899675 0
M  V30 6 C 2.943172 1.613850 4.651050 0
M  V30 7 N 2.368764 0.499684 3.894906 0
M  V30 8 C 1.504147 0.680240 2.795359 0
M  V30 9 O 1.270165 1.893122 2.522822 0
M  V30 10 C 0.918191 -0.412342 2.024391 0
M  V30 11 C 1.185884 -1.736191 2.307170 0
M  V30 12 C 0.615620 -2.753832 1.561214 0
M  V30 13 C -0.232597 -2.374111 0.522472 0
M  V30 14 N -0.763242 -3.391486 -0.173299 0
M  V30 15 C -1.606952 -3.182072 -1.211403 0
M  V30 16 N -2.169243 -4.262943 -1.971481 0
M  V30 17 C -3.105755 -4.167292 -3.071685 0 CFG=1
M  V30 18 C -3.283891 -5.556896 -3.645767 0
M  V30 19 C -4.524946 -5.665387 -4.494211 0
M  V30 20 C -5.778866 -5.176165 -3.821362 0 CFG=2
M  V30 21 O -6.347721 -4.097961 -4.516773 0
M  V30 22 C -5.435022 -4.784702 -2.405777 0
M  V30 23 C -4.406749 -3.673296 -2.464123 0
M  V30 24 C -1.888215 -1.872037 -1.511720 0
M  V30 25 N -2.636478 -1.258600 -2.424587 0
M  V30 26 C -2.595866 0.077986 -2.329558 0
M  V30 27 C -1.755057 0.351394 -1.271569 0
M  V30 28 N -1.356777 -0.842257 -0.814698 0
M  V30 29 C -0.523090 -1.063754 0.210960 0
M  V30 30 C 0.071634 -0.081704 0.985966 0
M  V30 31 C 3.843953 1.269077 5.804181 0
M  V30 32 C 2.464464 1.755503 6.053818 0
M  V30 33 C 2.970959 4.151690 4.126815 0
M  V30 34 C 3.452152 5.147444 3.325433 0
M  V30 35 H 5.315984 5.580241 0.530174 0
M  V30 36 H 5.471102 6.636497 2.041752 0
M  V30 37 H 3.964135 6.559929 1.120333 0
M  V30 38 H 5.383544 3.363994 1.216117 0
M  V30 39 H 4.573815 1.545278 2.592545 0
M  V30 40 H 2.616983 -0.472787 4.191270 0
M  V30 41 H 1.838704 -2.010735 3.107189 0
M  V30 42 H 0.831849 -3.789464 1.791123 0
M  V30 43 H -1.831239 -5.221737 -1.653446 0
M  V30 44 H -2.686748 -3.463799 -3.810443 0
M  V30 45 H -3.259979 -6.298500 -2.830931 0
M  V30 46 H -2.420878 -5.753559 -4.314446 0
M  V30 47 H -4.389177 -5.160307 -5.485175 0
M  V30 48 H -4.646414 -6.737074 -4.748770 0
M  V30 49 H -6.506230 -6.039673 -3.811282 0
M  V30 50 H -5.750678 -3.666112 -5.149481 0
M  V30 51 H -4.966487 -5.657158 -1.919429 0
M  V30 52 H -6.312988 -4.409496 -1.842609 0
M  V30 53 H -4.792549 -2.873305 -3.122069 0
M  V30 54 H -4.288805 -3.252106 -1.448625 0
M  V30 55 H -3.090741 0.835931 -2.921644 0
M  V30 56 H -1.494836 1.335593 -0.913460 0
M  V30 57 H -0.171936 0.946992 0.722317 0
M  V30 58 H 4.704664 1.920043 6.035180 0
M  V30 59 H 4.088807 0.181411 5.931364 0
M  V30 60 H 1.754316 1.028145 6.481033 0
M  V30 61 H 2.399104 2.769108 6.514367 0
M  V30 62 H 2.301863 4.253680 4.957092 0
M  V30 63 H 3.110219 6.150121 3.567557 0
M  V30 END ATOM
M  V30 BEGIN BOND
M  V30 1 1 1 2
M  V30 2 2 2 3
M  V30 3 1 3 4
M  V30 4 2 4 5
M  V30 5 1 5 6
M  V30 6 1 6 7
M  V30 7 1 7 8
M  V30 8 2 8 9
M  V30 9 1 8 10
M  V30 10 2 10 11
M  V30 11 1 11 12
M  V30 12 2 12 13
M  V30 13 1 13 14
M  V30 14 2 14 15
M  V30 15 1 15 16
M  V30 16 1 16 17
M  V30 17 1 17 18
M  V30 18 1 18 19
M  V30 19 1 19 20
M  V30 20 1 20 21
M  V30 21 1 20 22
M  V30 22 1 22 23
M  V30 23 1 15 24
M  V30 24 2 24 25
M  V30 25 1 25 26
M  V30 26 2 26 27
M  V30 27 1 27 28
M  V30 28 1 28 29
M  V30 29 2 29 30
M  V30 30 1 6 31
M  V30 31 1 31 32
M  V30 32 1 5 33
M  V30 33 2 33 34
M  V30 34 1 34 2
M  V30 35 1 32 6
M  V30 36 1 30 10
M  V30 37 1 29 13
M  V30 38 1 23 17
M  V30 39 1 28 24
M  V30 40 1 1 35
M  V30 41 1 1 36
M  V30 42 1 1 37
M  V30 43 1 3 38
M  V30 44 1 4 39
M  V30 45 1 7 40
M  V30 46 1 11 41
M  V30 47 1 12 42
M  V30 48 1 16 43
M  V30 49 1 17 44 CFG=3
M  V30 50 1 18 45
M  V30 51 1 18 46
M  V30 52 1 19 47
M  V30 53 1 19 48
M  V30 54 1 20 49 CFG=1
M  V30 55 1 21 50
M  V30 56 1 22 51
M  V30 57 1 22 52
M  V30 58 1 23 53
M  V30 59 1 23 54
M  V30 60 1 26 55
M  V30 61 1 27 56
M  V30 62 1 30 57
M  V30 63 1 31 58
M  V30 64 1 31 59
M  V30 65 1 32 60
M  V30 66 1 32 61
M  V30 67 1 33 62
M  V30 68 1 34 63
M  V30 END BOND
M  V30 END CTAB
M  END
>  <Dataset>  (33) 
ChEMBL_Kinases

>  <Ligand_Instance>  (33) 
nan

>  <PDB_ID>  (33) 
nan

>  <Standardized_SMILES>  (33) 
Cc1ccc(C2(NC(=O)c3ccc4nc(N[C@H]5CC[C@H](O)CC5)c5nccn5c4c3)CC2)cc1

>  <Name>  (33) 
nan

>  <Pocket>  (33) 
nan

>  <ATP_Site>  (33) 
nan

>  <Peripheral>  (33) 
nan

>  <Num_H_Atoms_ProtBoundConf>  (33) 
nan

>  <Num_Resolved_Atoms>  (33) 
nan

>  <Num_Not_Resolved_Atoms>  (33) 
nan

$$$$
CHEMBL2420552
     RDKit          3D

  0  0  0  0  0  0  0  0  0  0999 V3000
M  V30 BEGIN CTAB
M  V30 COUNTS 72 77 0 0 0
M  V30 BEGIN ATOM
M  V30 1 O 2.440353 0.029086 -1.556798 0
M  V30 2 C 1.731460 0.101316 -0.517622 0
M  V30 3 N 2.308065 0.902456 0.512198 0
M  V30 4 C 3.595414 1.585053 0.399224 0
M  V30 5 C 4.599287 0.511383 0.174419 0
M  V30 6 C 4.512377 -0.754103 0.713789 0
M  V30 7 C 5.446137 -1.744551 0.500646 0
M  V30 8 C 6.543160 -1.441812 -0.310506 0
M  V30 9 C 6.638276 -0.178105 -0.854131 0
M  V30 10 C 5.683313 0.789958 -0.619432 0
M  V30 11 C 3.986475 2.355633 1.599373 0
M  V30 12 C 2.876880 2.918986 2.436260 0
M  V30 13 C 1.942456 3.813618 1.695630 0
M  V30 14 C 2.419536 4.312409 0.378130 0
M  V30 15 C 2.296437 3.311505 -0.751918 0
M  V30 16 C 3.587418 2.513117 -0.799476 0
M  V30 17 C 0.439748 -0.557689 -0.348116 0
M  V30 18 C -0.342957 -0.488242 0.787685 0
M  V30 19 C -1.558141 -1.136796 0.880698 0
M  V30 20 C -1.966629 -1.867996 -0.221184 0
M  V30 21 N -3.147000 -2.509498 -0.158339 0
M  V30 22 C -3.667942 -3.254464 -1.151364 0
M  V30 23 N -4.911296 -3.914626 -1.057149 0
M  V30 24 C -5.758251 -3.870797 0.121251 0 CFG=1
M  V30 25 C -5.141894 -4.483707 1.336738 0
M  V30 26 C -4.785687 -3.580889 2.454999 0
M  V30 27 C -5.692310 -2.425881 2.708080 0 CFG=2
M  V30 28 O -6.199930 -2.386661 4.022222 0
M  V30 29 C -6.853342 -2.395067 1.773158 0
M  V30 30 C -6.376682 -2.518665 0.327973 0
M  V30 31 C -2.867368 -3.308111 -2.274209 0
M  V30 32 N -3.099064 -3.968357 -3.443681 0
M  V30 33 C -2.073443 -3.766601 -4.284934 0
M  V30 34 C -1.187580 -2.957172 -3.606808 0
M  V30 35 N -1.680223 -2.686420 -2.389622 0
M  V30 36 C -1.204278 -1.953003 -1.366118 0
M  V30 37 C 0.009281 -1.303445 -1.454804 0
M  V30 38 H 1.818650 1.043058 1.428838 0
M  V30 39 H 3.669748 -0.990846 1.338458 0
M  V30 40 H 5.370660 -2.733855 0.926270 0
M  V30 41 H 7.320897 -2.173710 -0.525204 0
M  V30 42 H 7.497288 0.034734 -1.480244 0
M  V30 43 H 5.774649 1.780260 -1.057263 0
M  V30 44 H 4.651481 1.742623 2.236867 0
M  V30 45 H 4.589533 3.243968 1.272683 0
M  V30 46 H 2.320847 2.200059 3.039615 0
M  V30 47 H 3.390292 3.578441 3.192876 0
M  V30 48 H 0.960003 3.291503 1.512069 0
M  V30 49 H 1.664010 4.719132 2.301205 0
M  V30 50 H 1.760295 5.185135 0.097188 0
M  V30 51 H 3.455791 4.689615 0.388528 0
M  V30 52 H 1.392997 2.698410 -0.697189 0
M  V30 53 H 2.242297 3.885475 -1.704842 0
M  V30 54 H 3.774546 2.024026 -1.754303 0
M  V30 55 H 4.402712 3.265836 -0.619465 0
M  V30 56 H 0.025729 0.097058 1.618270 0
M  V30 57 H -2.131419 -1.046010 1.801973 0
M  V30 58 H -5.192016 -4.459749 -1.929518 0
M  V30 59 H -6.644886 -4.531107 -0.144803 0
M  V30 60 H -4.207338 -5.021460 1.038177 0
M  V30 61 H -5.812590 -5.296741 1.757047 0
M  V30 62 H -4.823128 -4.201464 3.408701 0
M  V30 63 H -3.698741 -3.263562 2.443918 0
M  V30 64 H -5.069209 -1.485562 2.633398 0
M  V30 65 H -5.596283 -1.887269 4.623025 0
M  V30 66 H -7.401499 -1.461287 1.941543 0
M  V30 67 H -7.475229 -3.284833 1.991947 0
M  V30 68 H -5.696835 -1.682448 0.140936 0
M  V30 69 H -7.292186 -2.348505 -0.287441 0
M  V30 70 H -1.994523 -4.177992 -5.293010 0
M  V30 71 H -0.251938 -2.620439 -4.034225 0
M  V30 72 H 0.545608 -1.422484 -2.391657 0
M  V30 END ATOM
M  V30 BEGIN BOND
M  V30 1 2 1 2
M  V30 2 1 2 3
M  V30 3 1 3 4
M  V30 4 1 4 5
M  V30 5 2 5 6
M  V30 6 1 6 7
M  V30 7 2 7 8
M  V30 8 1 8 9
M  V30 9 2 9 10
M  V30 10 1 4 11
M  V30 11 1 11 12
M  V30 12 1 12 13
M  V30 13 1 13 14
M  V30 14 1 14 15
M  V30 15 1 15 16
M  V30 16 1 2 17
M  V30 17 2 17 18
M  V30 18 1 18 19
M  V30 19 2 19 20
M  V30 20 1 20 21
M  V30 21 2 21 22
M  V30 22 1 22 23
M  V30 23 1 23 24
M  V30 24 1 24 25
M  V30 25 1 25 26
M  V30 26 1 26 27
M  V30 27 1 27 28
M  V30 28 1 27 29
M  V30 29 1 29 30
M  V30 30 1 22 31
M  V30 31 2 31 32
M  V30 32 1 32 33
M  V30 33 2 33 34
M  V30 34 1 34 35
M  V30 35 1 35 36
M  V30 36 2 36 37
M  V30 37 1 16 4
M  V30 38 1 37 17
M  V30 39 1 10 5
M  V30 40 1 36 20
M  V30 41 1 30 24
M  V30 42 1 35 31
M  V30 43 1 3 38
M  V30 44 1 6 39
M  V30 45 1 7 40
M  V30 46 1 8 41
M  V30 47 1 9 42
M  V30 48 1 10 43
M  V30 49 1 11 44
M  V30 50 1 11 45
M  V30 51 1 12 46
M  V30 52 1 12 47
M  V30 53 1 13 48
M  V30 54 1 13 49
M  V30 55 1 14 50
M  V30 56 1 14 51
M  V30 57 1 15 52
M  V30 58 1 15 53
M  V30 59 1 16 54
M  V30 60 1 16 55
M  V30 61 1 18 56
M  V30 62 1 19 57
M  V30 63 1 23 58
M  V30 64 1 24 59 CFG=3
M  V30 65 1 25 60
M  V30 66 1 25 61
M  V30 67 1 26 62
M  V30 68 1 26 63
M  V30 69 1 27 64 CFG=3
M  V30 70 1 28 65
M  V30 71 1 29 66
M  V30 72 1 29 67
M  V30 73 1 30 68
M  V30 74 1 30 69
M  V30 75 1 33 70
M  V30 76 1 34 71
M  V30 77 1 37 72
M  V30 END BOND
M  V30 END CTAB
M  END
>  <Dataset>  (34) 
ChEMBL_Kinases

>  <Ligand_Instance>  (34) 
nan

>  <PDB_ID>  (34) 
nan

>  <Standardized_SMILES>  (34) 
O=C(NC1(c2ccccc2)CCCCCC1)c1ccc2nc(N[C@H]3CC[C@H](O)CC3)c3nccn3c2c1

>  <Name>  (34) 
nan

>  <Pocket>  (34) 
nan

>  <ATP_Site>  (34) 
nan

>  <Peripheral>  (34) 
nan

>  <Num_H_Atoms_ProtBoundConf>  (34) 
nan

>  <Num_Resolved_Atoms>  (34) 
nan

>  <Num_Not_Resolved_Atoms>  (34) 
nan

$$$$
CHEMBL242001
     RDKit          3D

  0  0  0  0  0  0  0  0  0  0999 V3000
M  V30 BEGIN CTAB
M  V30 COUNTS 53 57 0 0 0
M  V30 BEGIN ATOM
M  V30 1 C -0.486728 0.040984 5.172519 0
M  V30 2 C 1.016979 -0.016737 5.468265 0
M  V30 3 C 1.421994 -1.415201 5.660578 0
M  V30 4 N 1.763624 0.708777 4.462604 0
M  V30 5 C 2.452881 1.883409 4.541861 0
M  V30 6 C 2.996977 2.162169 3.305992 0
M  V30 7 C 2.610924 1.122792 2.498050 0
M  V30 8 C 2.917017 0.960507 1.162413 0
M  V30 9 C 2.434296 -0.155000 0.519424 0
M  V30 10 C 2.598457 -0.581993 -0.882494 0
M  V30 11 O 3.610346 -1.197029 -1.293887 0
M  V30 12 N 1.499764 -0.233618 -1.738221 0
M  V30 13 C 0.313474 0.476507 -1.306180 0
M  V30 14 C -0.939541 0.073506 -2.008229 0
M  V30 15 C -0.828505 -1.239452 -2.700369 0
M  V30 16 C 0.378588 -1.587323 -3.292746 0
M  V30 17 C 0.158088 -2.825493 -3.833381 0
M  V30 18 N -1.116750 -3.187504 -3.571378 0
M  V30 19 N -1.730456 -2.239359 -2.885705 0
M  V30 20 C -3.065017 -2.166261 -2.384912 0
M  V30 21 C -3.055103 -2.186614 -0.989709 0
M  V30 22 C -4.239257 -2.124977 -0.265398 0
M  V30 23 C -5.418234 -2.043388 -0.972485 0
M  V30 24 C -5.441472 -2.022242 -2.369188 0
M  V30 25 C -4.258888 -2.084150 -3.067456 0
M  V30 26 Cl -4.087569 -2.070164 -4.800036 0
M  V30 27 C 1.461277 -0.566326 -3.159063 0
M  V30 28 C 1.657835 -1.091217 1.205316 0
M  V30 29 C 1.357371 -0.911759 2.556434 0
M  V30 30 C 1.842075 0.206702 3.198685 0
M  V30 31 H -0.936689 -0.936314 5.323361 0
M  V30 32 H -1.009528 0.786983 5.801056 0
M  V30 33 H -0.607264 0.416728 4.116752 0
M  V30 34 H 1.144835 0.546727 6.416025 0
M  V30 35 H 2.291302 -1.747656 5.060655 0
M  V30 36 H 0.545556 -2.111895 5.534129 0
M  V30 37 H 1.732591 -1.592218 6.712602 0
M  V30 38 H 2.517057 2.457678 5.480477 0
M  V30 39 H 3.594839 3.029181 3.068316 0
M  V30 40 H 3.489034 1.582737 0.522140 0
M  V30 41 H 0.497267 1.553980 -1.477909 0
M  V30 42 H 0.228340 0.371653 -0.187434 0
M  V30 43 H -1.762209 0.025420 -1.244115 0
M  V30 44 H -1.245478 0.865891 -2.719429 0
M  V30 45 H 0.938955 -3.349103 -4.365482 0
M  V30 46 H -2.180885 -2.248686 -0.340516 0
M  V30 47 H -4.279939 -2.137837 0.821661 0
M  V30 48 H -6.373609 -1.992745 -0.437504 0
M  V30 49 H -6.344290 -1.959110 -2.959392 0
M  V30 50 H 2.404437 -0.982890 -3.512953 0
M  V30 51 H 1.132534 0.325388 -3.720496 0
M  V30 52 H 1.223352 -2.001599 0.813185 0
M  V30 53 H 0.761409 -1.605843 3.131171 0
M  V30 END ATOM
M  V30 BEGIN BOND
M  V30 1 1 1 2
M  V30 2 1 2 3
M  V30 3 1 2 4
M  V30 4 1 4 5
M  V30 5 2 5 6
M  V30 6 1 6 7
M  V30 7 2 7 8
M  V30 8 1 8 9
M  V30 9 1 9 10
M  V30 10 2 10 11
M  V30 11 1 10 12
M  V30 12 1 12 13
M  V30 13 1 13 14
M  V30 14 1 14 15
M  V30 15 2 15 16
M  V30 16 1 16 17
M  V30 17 2 17 18
M  V30 18 1 18 19
M  V30 19 1 19 20
M  V30 20 2 20 21
M  V30 21 1 21 22
M  V30 22 2 22 23
M  V30 23 1 23 24
M  V30 24 2 24 25
M  V30 25 1 25 26
M  V30 26 1 16 27
M  V30 27 2 9 28
M  V30 28 1 28 29
M  V30 29 2 29 30
M  V30 30 1 30 4
M  V30 31 1 30 7
M  V30 32 1 27 12
M  V30 33 1 19 15
M  V30 34 1 25 20
M  V30 35 1 1 31
M  V30 36 1 1 32
M  V30 37 1 1 33
M  V30 38 1 2 34
M  V30 39 1 3 35
M  V30 40 1 3 36
M  V30 41 1 3 37
M  V30 42 1 5 38
M  V30 43 1 6 39
M  V30 44 1 8 40
M  V30 45 1 13 41
M  V30 46 1 13 42
M  V30 47 1 14 43
M  V30 48 1 14 44
M  V30 49 1 17 45
M  V30 50 1 21 46
M  V30 51 1 22 47
M  V30 52 1 23 48
M  V30 53 1 24 49
M  V30 54 1 27 50
M  V30 55 1 27 51
M  V30 56 1 28 52
M  V30 57 1 29 53
M  V30 END BOND
M  V30 END CTAB
M  END
>  <Dataset>  (35) 
ChEMBL_Kinases

>  <Ligand_Instance>  (35) 
nan

>  <PDB_ID>  (35) 
nan

>  <Standardized_SMILES>  (35) 
CC(C)n1ccc2cc(C(=O)N3CCc4c(cnn4-c4ccccc4Cl)C3)ccc21

>  <Name>  (35) 
nan

>  <Pocket>  (35) 
nan

>  <ATP_Site>  (35) 
nan

>  <Peripheral>  (35) 
nan

>  <Num_H_Atoms_ProtBoundConf>  (35) 
nan

>  <Num_Resolved_Atoms>  (35) 
nan

>  <Num_Not_Resolved_Atoms>  (35) 
nan

$$$$
CHEMBL241990
     RDKit          3D

  0  0  0  0  0  0  0  0  0  0999 V3000
M  V30 BEGIN CTAB
M  V30 COUNTS 46 49 0 0 0
M  V30 BEGIN ATOM
M  V30 1 C 3.538588 -3.341517 -1.279818 0
M  V30 2 O 2.244381 -3.632533 -0.791316 0
M  V30 3 C 1.656023 -2.694280 0.046813 0
M  V30 4 C 2.279101 -1.518614 0.407544 0
M  V30 5 C 1.750521 -0.551721 1.231500 0
M  V30 6 N 2.401808 0.653421 1.584645 0
M  V30 7 C 3.674034 1.146370 1.177444 0
M  V30 8 C 3.654346 1.438954 -0.301395 0
M  V30 9 C 3.234717 2.721803 -0.654349 0
M  V30 10 N 3.253089 2.897955 -1.984048 0
M  V30 11 C 3.685023 1.721973 -2.457346 0
M  V30 12 N 3.925604 0.851447 -1.473071 0
M  V30 13 C 0.490548 -0.848828 1.699344 0
M  V30 14 C -0.173966 -2.006790 1.369973 0
M  V30 15 C -1.441364 -2.206315 1.897634 0
M  V30 16 N -2.079084 -1.291174 2.747490 0
M  V30 17 C -2.909967 -0.234342 2.362630 0
M  V30 18 C -3.177675 -0.003785 1.029622 0
M  V30 19 C -3.990924 1.025978 0.602014 0
M  V30 20 C -4.531499 1.827796 1.607908 0
M  V30 21 F -5.347325 2.871848 1.300295 0
M  V30 22 C -4.277808 1.617952 2.966155 0
M  V30 23 Cl -4.980161 2.651009 4.177238 0
M  V30 24 C -3.455684 0.571633 3.339945 0
M  V30 25 C -2.117479 -3.365436 1.573386 0
M  V30 26 C -3.434897 -3.644171 2.080841 0
M  V30 27 N -4.502681 -3.873305 2.477197 0
M  V30 28 C -1.475016 -4.265798 0.729614 0
M  V30 29 N -0.244718 -4.064795 0.221614 0
M  V30 30 C 0.403275 -2.939083 0.540900 0
M  V30 31 H 4.237136 -3.181215 -0.450359 0
M  V30 32 H 3.878496 -4.084791 -2.027928 0
M  V30 33 H 3.491593 -2.371113 -1.854892 0
M  V30 34 H 3.264681 -1.384836 -0.006122 0
M  V30 35 H 1.868556 1.288445 2.250616 0
M  V30 36 H 4.422322 0.308893 1.313414 0
M  V30 37 H 4.007593 1.999305 1.762425 0
M  V30 38 H 2.904095 3.581531 -0.058187 0
M  V30 39 H 3.017233 3.689886 -2.592931 0
M  V30 40 H 3.870209 1.355918 -3.460032 0
M  V30 41 H -0.011025 -0.132369 2.365880 0
M  V30 42 H -1.851808 -1.499791 3.739079 0
M  V30 43 H -2.761905 -0.621876 0.240656 0
M  V30 44 H -4.218224 1.230253 -0.436083 0
M  V30 45 H -3.281118 0.438801 4.401619 0
M  V30 46 H -2.000352 -5.179165 0.470342 0
M  V30 END ATOM
M  V30 BEGIN BOND
M  V30 1 1 1 2
M  V30 2 1 2 3
M  V30 3 2 3 4
M  V30 4 1 4 5
M  V30 5 1 5 6
M  V30 6 1 6 7
M  V30 7 1 7 8
M  V30 8 2 8 9
M  V30 9 1 9 10
M  V30 10 1 10 11
M  V30 11 2 11 12
M  V30 12 2 5 13
M  V30 13 1 13 14
M  V30 14 2 14 15
M  V30 15 1 15 16
M  V30 16 1 16 17
M  V30 17 2 17 18
M  V30 18 1 18 19
M  V30 19 2 19 20
M  V30 20 1 20 21
M  V30 21 1 20 22
M  V30 22 1 22 23
M  V30 23 2 22 24
M  V30 24 1 15 25
M  V30 25 1 25 26
M  V30 26 3 26 27
M  V30 27 2 25 28
M  V30 28 1 28 29
M  V30 29 2 29 30
M  V30 30 1 30 3
M  V30 31 1 12 8
M  V30 32 1 30 14
M  V30 33 1 24 17
M  V30 34 1 1 31
M  V30 35 1 1 32
M  V30 36 1 1 33
M  V30 37 1 4 34
M  V30 38 1 6 35
M  V30 39 1 7 36
M  V30 40 1 7 37
M  V30 41 1 9 38
M  V30 42 1 10 39
M  V30 43 1 11 40
M  V30 44 1 13 41
M  V30 45 1 16 42
M  V30 46 1 18 43
M  V30 47 1 19 44
M  V30 48 1 24 45
M  V30 49 1 28 46
M  V30 END BOND
M  V30 END CTAB
M  END
>  <Dataset>  (36) 
ChEMBL_Kinases

>  <Ligand_Instance>  (36) 
nan

>  <PDB_ID>  (36) 
nan

>  <Standardized_SMILES>  (36) 
COc1cc(NCc2c[nH]cn2)cc2c(Nc3ccc(F)c(Cl)c3)c(C#N)cnc12

>  <Name>  (36) 
nan

>  <Pocket>  (36) 
nan

>  <ATP_Site>  (36) 
nan

>  <Peripheral>  (36) 
nan

>  <Num_H_Atoms_ProtBoundConf>  (36) 
nan

>  <Num_Resolved_Atoms>  (36) 
nan

>  <Num_Not_Resolved_Atoms>  (36) 
nan

$$$$
CHEMBL241989
     RDKit          3D

  0  0  0  0  0  0  0  0  0  0999 V3000
M  V30 BEGIN CTAB
M  V30 COUNTS 45 48 0 0 0
M  V30 BEGIN ATOM
M  V30 1 N 1.485339 -5.760922 0.301813 0
M  V30 2 C 1.852797 -4.654577 0.258908 0
M  V30 3 C 2.291605 -3.287982 0.187496 0
M  V30 4 C 3.429185 -2.940695 -0.543972 0
M  V30 5 N 3.839153 -1.641046 -0.606787 0
M  V30 6 C 3.086819 -0.755344 0.067653 0
M  V30 7 C 3.517611 0.551230 -0.008455 0
M  V30 8 C 4.731562 0.939378 -0.785881 0
M  V30 9 F 4.969764 2.298733 -0.719128 0
M  V30 10 F 4.604097 0.613189 -2.119870 0
M  V30 11 F 5.850964 0.303112 -0.304396 0
M  V30 12 C 2.833970 1.554062 0.638122 0
M  V30 13 C 1.681761 1.334966 1.401529 0
M  V30 14 N 0.991851 2.356312 2.065632 0
M  V30 15 C -0.193061 2.283897 2.853037 0
M  V30 16 C -1.399973 1.866970 2.091569 0
M  V30 17 C -2.142144 2.883776 1.484698 0
M  V30 18 N -3.206118 2.398935 0.832058 0
M  V30 19 C -3.151529 1.069249 1.017119 0
M  V30 20 N -2.082809 0.771014 1.760538 0
M  V30 21 C 1.304427 0.022765 1.439774 0
M  V30 22 C 1.953117 -1.012443 0.811840 0
M  V30 23 C 1.555566 -2.332742 0.862495 0
M  V30 24 N 0.389228 -2.626313 1.623128 0
M  V30 25 C -0.898016 -2.606266 1.017691 0
M  V30 26 C -1.061314 -2.305995 -0.308800 0
M  V30 27 C -2.280227 -2.268779 -0.958688 0
M  V30 28 C -3.392826 -2.561033 -0.182601 0
M  V30 29 F -4.607404 -2.541868 -0.754987 0
M  V30 30 C -3.250773 -2.866251 1.156050 0
M  V30 31 Cl -4.723151 -3.222473 2.054920 0
M  V30 32 C -2.012214 -2.889470 1.755138 0
M  V30 33 H 3.981301 -3.727313 -1.062288 0
M  V30 34 H 3.198067 2.590511 0.562206 0
M  V30 35 H 1.433561 3.318671 1.951961 0
M  V30 36 H -0.031937 1.491141 3.622014 0
M  V30 37 H -0.355536 3.231104 3.399302 0
M  V30 38 H -2.001975 3.970624 1.456205 0
M  V30 39 H -3.955529 2.869566 0.281493 0
M  V30 40 H -3.815530 0.304435 0.661545 0
M  V30 41 H 0.452027 -0.306219 1.982388 0
M  V30 42 H 0.498118 -2.853713 2.622248 0
M  V30 43 H -0.204092 -2.075160 -0.930537 0
M  V30 44 H -2.374148 -2.024767 -2.020930 0
M  V30 45 H -1.962753 -3.135274 2.806895 0
M  V30 END ATOM
M  V30 BEGIN BOND
M  V30 1 3 1 2
M  V30 2 1 2 3
M  V30 3 2 3 4
M  V30 4 1 4 5
M  V30 5 2 5 6
M  V30 6 1 6 7
M  V30 7 1 7 8
M  V30 8 1 8 9
M  V30 9 1 8 10
M  V30 10 1 8 11
M  V30 11 2 7 12
M  V30 12 1 12 13
M  V30 13 1 13 14
M  V30 14 1 14 15
M  V30 15 1 15 16
M  V30 16 2 16 17
M  V30 17 1 17 18
M  V30 18 1 18 19
M  V30 19 2 19 20
M  V30 20 2 13 21
M  V30 21 1 21 22
M  V30 22 2 22 23
M  V30 23 1 23 24
M  V30 24 1 24 25
M  V30 25 2 25 26
M  V30 26 1 26 27
M  V30 27 2 27 28
M  V30 28 1 28 29
M  V30 29 1 28 30
M  V30 30 1 30 31
M  V30 31 2 30 32
M  V30 32 1 23 3
M  V30 33 1 32 25
M  V30 34 1 22 6
M  V30 35 1 20 16
M  V30 36 1 4 33
M  V30 37 1 12 34
M  V30 38 1 14 35
M  V30 39 1 15 36
M  V30 40 1 15 37
M  V30 41 1 17 38
M  V30 42 1 18 39
M  V30 43 1 19 40
M  V30 44 1 21 41
M  V30 45 1 24 42
M  V30 46 1 26 43
M  V30 47 1 27 44
M  V30 48 1 32 45
M  V30 END BOND
M  V30 END CTAB
M  END
>  <Dataset>  (37) 
ChEMBL_Kinases

>  <Ligand_Instance>  (37) 
nan

>  <PDB_ID>  (37) 
nan

>  <Standardized_SMILES>  (37) 
N#Cc1cnc2c(C(F)(F)F)cc(NCc3c[nH]cn3)cc2c1Nc1ccc(F)c(Cl)c1

>  <Name>  (37) 
nan

>  <Pocket>  (37) 
nan

>  <ATP_Site>  (37) 
nan

>  <Peripheral>  (37) 
nan

>  <Num_H_Atoms_ProtBoundConf>  (37) 
nan

>  <Num_Resolved_Atoms>  (37) 
nan

>  <Num_Not_Resolved_Atoms>  (37) 
nan

$$$$
CHEMBL241988
     RDKit          3D

  0  0  0  0  0  0  0  0  0  0999 V3000
M  V30 BEGIN CTAB
M  V30 COUNTS 42 45 0 0 0
M  V30 BEGIN ATOM
M  V30 1 N 2.187904 -5.216399 3.517057 0
M  V30 2 C 2.358906 -4.245828 2.920734 0
M  V30 3 C 2.553851 -3.032822 2.180195 0
M  V30 4 C 3.831383 -2.641404 1.862109 0
M  V30 5 N 3.971855 -1.499338 1.167671 0
M  V30 6 C 2.890807 -0.773280 0.802422 0
M  V30 7 C 3.075344 0.392405 0.090750 0
M  V30 8 Br 4.850378 0.943964 -0.356023 0
M  V30 9 C 1.971964 1.109243 -0.267557 0
M  V30 10 C 0.676471 0.781304 0.014092 0
M  V30 11 N -0.472250 1.526751 -0.347627 0
M  V30 12 C -0.538919 2.781154 -1.047795 0
M  V30 13 C 0.057375 3.883536 -0.216423 0
M  V30 14 C -0.785630 4.564690 0.675741 0
M  V30 15 N -0.143858 5.517416 1.346847 0
M  V30 16 C 1.098172 5.430090 0.873291 0
M  V30 17 N 1.253861 4.474583 -0.052962 0
M  V30 18 C 0.541450 -0.390454 0.725919 0
M  V30 19 C 1.605355 -1.157672 1.116814 0
M  V30 20 C 1.428463 -2.322249 1.827132 0
M  V30 21 N 0.117754 -2.754246 2.171740 0
M  V30 22 C -0.670147 -3.602545 1.344090 0
M  V30 23 C -0.147103 -4.035173 0.143005 0
M  V30 24 C -0.888533 -4.859699 -0.682012 0
M  V30 25 C -2.143689 -5.198909 -0.221171 0
M  V30 26 F -2.948663 -6.004959 -0.960195 0
M  V30 27 C -2.663077 -4.767533 0.974634 0
M  V30 28 Cl -4.276702 -5.227942 1.524315 0
M  V30 29 C -1.920827 -3.945930 1.793823 0
M  V30 30 H 4.657141 -3.277691 2.190117 0
M  V30 31 H 2.178321 2.003788 -0.827038 0
M  V30 32 H -1.402516 1.127415 -0.077498 0
M  V30 33 H -1.554008 3.049008 -1.324929 0
M  V30 34 H 0.104726 2.657471 -1.971348 0
M  V30 35 H -1.860671 4.402515 0.867421 0
M  V30 36 H -0.507506 6.175596 2.066093 0
M  V30 37 H 1.973728 6.034954 1.151089 0
M  V30 38 H -0.433674 -0.763118 1.013125 0
M  V30 39 H -0.204164 -2.391266 3.081035 0
M  V30 40 H 0.844430 -3.738160 -0.169976 0
M  V30 41 H -0.491623 -5.203797 -1.621223 0
M  V30 42 H -2.311190 -3.598015 2.734231 0
M  V30 END ATOM
M  V30 BEGIN BOND
M  V30 1 3 1 2
M  V30 2 1 2 3
M  V30 3 2 3 4
M  V30 4 1 4 5
M  V30 5 2 5 6
M  V30 6 1 6 7
M  V30 7 1 7 8
M  V30 8 2 7 9
M  V30 9 1 9 10
M  V30 10 1 10 11
M  V30 11 1 11 12
M  V30 12 1 12 13
M  V30 13 2 13 14
M  V30 14 1 14 15
M  V30 15 1 15 16
M  V30 16 2 16 17
M  V30 17 2 10 18
M  V30 18 1 18 19
M  V30 19 2 19 20
M  V30 20 1 20 21
M  V30 21 1 21 22
M  V30 22 2 22 23
M  V30 23 1 23 24
M  V30 24 2 24 25
M  V30 25 1 25 26
M  V30 26 1 25 27
M  V30 27 1 27 28
M  V30 28 2 27 29
M  V30 29 1 20 3
M  V30 30 1 29 22
M  V30 31 1 19 6
M  V30 32 1 17 13
M  V30 33 1 4 30
M  V30 34 1 9 31
M  V30 35 1 11 32
M  V30 36 1 12 33
M  V30 37 1 12 34
M  V30 38 1 14 35
M  V30 39 1 15 36
M  V30 40 1 16 37
M  V30 41 1 18 38
M  V30 42 1 21 39
M  V30 43 1 23 40
M  V30 44 1 24 41
M  V30 45 1 29 42
M  V30 END BOND
M  V30 END CTAB
M  END
>  <Dataset>  (38) 
ChEMBL_Kinases

>  <Ligand_Instance>  (38) 
nan

>  <PDB_ID>  (38) 
nan

>  <Standardized_SMILES>  (38) 
N#Cc1cnc2c(Br)cc(NCc3c[nH]cn3)cc2c1Nc1ccc(F)c(Cl)c1

>  <Name>  (38) 
nan

>  <Pocket>  (38) 
nan

>  <ATP_Site>  (38) 
nan

>  <Peripheral>  (38) 
nan

>  <Num_H_Atoms_ProtBoundConf>  (38) 
nan

>  <Num_Resolved_Atoms>  (38) 
nan

>  <Num_Not_Resolved_Atoms>  (38) 
nan

$$$$
CHEMBL241966
     RDKit          3D

  0  0  0  0  0  0  0  0  0  0999 V3000
M  V30 BEGIN CTAB
M  V30 COUNTS 41 44 0 0 0
M  V30 BEGIN ATOM
M  V30 1 C 0.474943 -6.565052 -0.773905 0
M  V30 2 O 1.539760 -6.282822 0.083423 0
M  V30 3 C 1.670531 -5.018000 0.612565 0
M  V30 4 C 0.874740 -3.904965 0.428220 0
M  V30 5 C 1.170885 -2.709874 1.051431 0
M  V30 6 C 0.294618 -1.563715 0.822209 0
M  V30 7 C -1.060368 -1.788191 0.599689 0
M  V30 8 C -1.917393 -0.703515 0.379478 0
M  V30 9 C -1.370474 0.575251 0.392302 0
M  V30 10 C -0.019835 0.789212 0.614668 0
M  V30 11 C 0.838187 -0.289249 0.834688 0
M  V30 12 N 0.710482 2.019590 0.662646 0
M  V30 13 C 0.204933 3.340033 0.905877 0
M  V30 14 C 1.186804 4.164832 1.411450 0
M  V30 15 C 0.849800 5.479224 1.699615 0
M  V30 16 C -0.445562 5.903595 1.469844 0
M  V30 17 C -1.432888 5.065007 0.958796 0
M  V30 18 C -1.096031 3.747336 0.669587 0
M  V30 19 N -2.231745 3.052554 0.159846 0
M  V30 20 C -2.358324 1.635109 0.151131 0
M  V30 21 O -3.493710 1.184576 -0.102220 0
M  V30 22 C 2.277903 -2.621976 1.871781 0
M  V30 23 C 3.086916 -3.721637 2.070308 0
M  V30 24 C 2.797332 -4.942104 1.442969 0
M  V30 25 O 3.685008 -5.973562 1.721477 0
M  V30 26 H 0.209894 -7.647651 -0.722761 0
M  V30 27 H 0.794224 -6.279334 -1.811846 0
M  V30 28 H -0.450020 -6.025618 -0.526358 0
M  V30 29 H 0.047239 -4.073048 -0.220633 0
M  V30 30 H -1.507578 -2.753609 0.583912 0
M  V30 31 H -2.978910 -0.816932 0.201427 0
M  V30 32 H 1.888852 -0.147433 1.009242 0
M  V30 33 H 1.756081 1.947066 0.498321 0
M  V30 34 H 2.172115 3.751308 1.559689 0
M  V30 35 H 1.616444 6.135579 2.097603 0
M  V30 36 H -0.692264 6.929301 1.699603 0
M  V30 37 H -2.435326 5.400961 0.782815 0
M  V30 38 H -3.006086 3.613000 -0.224736 0
M  V30 39 H 2.495443 -1.677656 2.352347 0
M  V30 40 H 3.964272 -3.630494 2.728228 0
M  V30 41 H 3.441944 -6.693150 2.410354 0
M  V30 END ATOM
M  V30 BEGIN BOND
M  V30 1 1 1 2
M  V30 2 1 2 3
M  V30 3 2 3 4
M  V30 4 1 4 5
M  V30 5 1 5 6
M  V30 6 2 6 7
M  V30 7 1 7 8
M  V30 8 2 8 9
M  V30 9 1 9 10
M  V30 10 2 10 11
M  V30 11 1 10 12
M  V30 12 1 12 13
M  V30 13 2 13 14
M  V30 14 1 14 15
M  V30 15 2 15 16
M  V30 16 1 16 17
M  V30 17 2 17 18
M  V30 18 1 18 19
M  V30 19 1 19 20
M  V30 20 2 20 21
M  V30 21 2 5 22
M  V30 22 1 22 23
M  V30 23 2 23 24
M  V30 24 1 24 25
M  V30 25 1 24 3
M  V30 26 1 11 6
M  V30 27 1 18 13
M  V30 28 1 20 9
M  V30 29 1 1 26
M  V30 30 1 1 27
M  V30 31 1 1 28
M  V30 32 1 4 29
M  V30 33 1 7 30
M  V30 34 1 8 31
M  V30 35 1 11 32
M  V30 36 1 12 33
M  V30 37 1 14 34
M  V30 38 1 15 35
M  V30 39 1 16 36
M  V30 40 1 17 37
M  V30 41 1 19 38
M  V30 42 1 22 39
M  V30 43 1 23 40
M  V30 44 1 25 41
M  V30 END BOND
M  V30 END CTAB
M  END
>  <Dataset>  (39) 
ChEMBL_Kinases

>  <Ligand_Instance>  (39) 
nan

>  <PDB_ID>  (39) 
nan

>  <Standardized_SMILES>  (39) 
COc1cc(-c2ccc3c(c2)Nc2ccccc2NC3=O)ccc1O

>  <Name>  (39) 
nan

>  <Pocket>  (39) 
nan

>  <ATP_Site>  (39) 
nan

>  <Peripheral>  (39) 
nan

>  <Num_H_Atoms_ProtBoundConf>  (39) 
nan

>  <Num_Resolved_Atoms>  (39) 
nan

>  <Num_Not_Resolved_Atoms>  (39) 
nan

$$$$
CHEMBL241447
     RDKit          3D

  0  0  0  0  0  0  0  0  0  0999 V3000
M  V30 BEGIN CTAB
M  V30 COUNTS 57 61 0 0 0
M  V30 BEGIN ATOM
M  V30 1 O 5.018972 -7.771807 -1.412836 0
M  V30 2 C 4.451262 -6.512365 -1.427294 0
M  V30 3 C 4.332933 -5.773681 -0.252971 0
M  V30 4 C 3.751803 -4.500490 -0.308768 0
M  V30 5 C 3.311207 -4.020367 -1.550664 0
M  V30 6 C 2.704587 -2.670441 -1.578351 0
M  V30 7 C 3.110443 -1.815112 -2.602535 0
M  V30 8 C 2.605417 -0.515104 -2.729209 0
M  V30 9 C 1.681986 -0.083556 -1.807913 0
M  V30 10 C 1.102188 1.256776 -1.871522 0
M  V30 11 C 0.193200 1.806798 -0.987341 0
M  V30 12 C -0.136212 3.109652 -1.356971 0
M  V30 13 N -1.049188 3.981424 -0.654594 0
M  V30 14 C -1.545663 3.502965 0.594862 0
M  V30 15 C -0.660400 2.953131 1.542758 0
M  V30 16 C -1.191566 2.461031 2.735330 0
M  V30 17 C -2.563054 2.531814 2.940128 0
M  V30 18 C -3.128125 1.980674 4.202145 0
M  V30 19 N -3.419920 0.557544 4.043537 0
M  V30 20 C -4.307760 0.306385 2.958349 0
M  V30 21 C -4.636541 -1.128201 2.684414 0
M  V30 22 C -5.286497 -2.003019 3.675158 0
M  V30 23 C -3.819473 -2.219732 3.308825 0
M  V30 24 N -3.395241 3.071064 2.004195 0
M  V30 25 C -2.902225 3.554744 0.839751 0
M  V30 26 N 0.589936 3.324079 -2.473235 0
M  V30 27 N 1.305399 2.241722 -2.762949 0
M  V30 28 C 1.284839 -0.935874 -0.797185 0
M  V30 29 C 1.764124 -2.222765 -0.645350 0
M  V30 30 C 3.451108 -4.800752 -2.707896 0
M  V30 31 O 2.964805 -4.174733 -3.837194 0
M  V30 32 C 4.021907 -6.041037 -2.629494 0
M  V30 33 H 5.506655 -8.186259 -0.628134 0
M  V30 34 H 4.675838 -6.151774 0.707208 0
M  V30 35 H 3.681968 -3.971054 0.615310 0
M  V30 36 H 3.832199 -2.052200 -3.378464 0
M  V30 37 H 2.909182 0.160271 -3.514621 0
M  V30 38 H -0.176197 1.225147 -0.138400 0
M  V30 39 H -1.272213 4.885915 -1.114190 0
M  V30 40 H 0.413649 2.909004 1.381002 0
M  V30 41 H -0.503218 2.041908 3.455502 0
M  V30 42 H -2.399542 2.054378 5.031756 0
M  V30 43 H -4.027783 2.551644 4.490226 0
M  V30 44 H -2.534172 0.019716 4.048127 0
M  V30 45 H -3.797619 0.711183 2.034990 0
M  V30 46 H -5.262945 0.837793 3.144774 0
M  V30 47 H -4.858440 -1.333454 1.602285 0
M  V30 48 H -5.958347 -2.813516 3.264244 0
M  V30 49 H -5.548560 -1.688703 4.692236 0
M  V30 50 H -3.137116 -1.901710 4.140528 0
M  V30 51 H -3.542698 -3.133336 2.753975 0
M  V30 52 H -3.588117 3.982794 0.104187 0
M  V30 53 H 1.960419 2.163513 -3.599327 0
M  V30 54 H 0.558627 -0.683456 -0.024577 0
M  V30 55 H 1.466266 -2.904992 0.136850 0
M  V30 56 H 1.979879 -4.130907 -4.069573 0
M  V30 57 H 4.080046 -6.556427 -3.580003 0
M  V30 END ATOM
M  V30 BEGIN BOND
M  V30 1 1 1 2
M  V30 2 2 2 3
M  V30 3 1 3 4
M  V30 4 2 4 5
M  V30 5 1 5 6
M  V30 6 2 6 7
M  V30 7 1 7 8
M  V30 8 2 8 9
M  V30 9 1 9 10
M  V30 10 2 10 11
M  V30 11 1 11 12
M  V30 12 1 12 13
M  V30 13 1 13 14
M  V30 14 2 14 15
M  V30 15 1 15 16
M  V30 16 2 16 17
M  V30 17 1 17 18
M  V30 18 1 18 19
M  V30 19 1 19 20
M  V30 20 1 20 21
M  V30 21 1 21 22
M  V30 22 1 22 23
M  V30 23 1 17 24
M  V30 24 2 24 25
M  V30 25 2 12 26
M  V30 26 1 26 27
M  V30 27 1 9 28
M  V30 28 2 28 29
M  V30 29 1 5 30
M  V30 30 1 30 31
M  V30 31 2 30 32
M  V30 32 1 32 2
M  V30 33 1 29 6
M  V30 34 1 27 10
M  V30 35 1 25 14
M  V30 36 1 23 21
M  V30 37 1 1 33
M  V30 38 1 3 34
M  V30 39 1 4 35
M  V30 40 1 7 36
M  V30 41 1 8 37
M  V30 42 1 11 38
M  V30 43 1 13 39
M  V30 44 1 15 40
M  V30 45 1 16 41
M  V30 46 1 18 42
M  V30 47 1 18 43
M  V30 48 1 19 44
M  V30 49 1 20 45
M  V30 50 1 20 46
M  V30 51 1 21 47
M  V30 52 1 22 48
M  V30 53 1 22 49
M  V30 54 1 23 50
M  V30 55 1 23 51
M  V30 56 1 25 52
M  V30 57 1 27 53
M  V30 58 1 28 54
M  V30 59 1 29 55
M  V30 60 1 31 56
M  V30 61 1 32 57
M  V30 END BOND
M  V30 END CTAB
M  END
>  <Dataset>  (40) 
ChEMBL_Kinases

>  <Ligand_Instance>  (40) 
nan

>  <PDB_ID>  (40) 
nan

>  <Standardized_SMILES>  (40) 
Oc1ccc(-c2ccc(-c3cc(Nc4ccc(CNCC5CC5)nc4)n[nH]3)cc2)c(O)c1

>  <Name>  (40) 
nan

>  <Pocket>  (40) 
nan

>  <ATP_Site>  (40) 
nan

>  <Peripheral>  (40) 
nan

>  <Num_H_Atoms_ProtBoundConf>  (40) 
nan

>  <Num_Resolved_Atoms>  (40) 
nan

>  <Num_Not_Resolved_Atoms>  (40) 
nan

$$$$
CHEMBL2413417
     RDKit          3D

  0  0  0  0  0  0  0  0  0  0999 V3000
M  V30 BEGIN CTAB
M  V30 COUNTS 94 98 0 0 0
M  V30 BEGIN ATOM
M  V30 1 C -0.634123 -1.192449 -7.944663 0
M  V30 2 C -2.094693 -1.140280 -7.781551 0
M  V30 3 C -2.622477 -1.061010 -6.574810 0
M  V30 4 C -4.086223 -1.015591 -6.540835 0
M  V30 5 C -1.837118 -1.020977 -5.357829 0
M  V30 6 O -0.580118 -1.059756 -5.358395 0
M  V30 7 O -2.478969 -0.936457 -4.130107 0
M  V30 8 C -1.733543 -0.895215 -2.898888 0 CFG=2
M  V30 9 C -2.033640 -2.190261 -2.215730 0
M  V30 10 C -3.370783 -2.237937 -1.555809 0
M  V30 11 C -3.393978 -3.443503 -0.617272 0
M  V30 12 C -4.396708 -2.598214 -2.640340 0
M  V30 13 C -3.695557 -0.968734 -0.855031 0
M  V30 14 C -2.616586 0.040249 -0.732361 0 CFG=1
M  V30 15 C -1.565005 -0.209245 0.275335 0
M  V30 16 C -1.629917 -0.921803 1.384888 0
M  V30 17 C -0.648944 -1.231168 2.451814 0
M  V30 18 C 0.649520 -0.547715 2.124679 0 CFG=2
M  V30 19 C 1.658130 -0.556973 3.239571 0 CFG=1
M  V30 20 C 1.059637 -0.291273 4.572193 0
M  V30 21 C 2.200540 -1.994119 3.324316 0
M  V30 22 C 3.589312 -2.087129 2.754205 0
M  V30 23 C 4.571617 -1.220004 3.511385 0 CFG=2
M  V30 24 O 4.805927 -1.794575 4.774824 0
M  V30 25 C 4.056128 0.201695 3.616130 0
M  V30 26 C 4.087726 0.662325 5.014782 0
M  V30 27 C 5.080652 1.056198 2.845721 0
M  V30 28 C 2.790162 0.315299 2.854177 0 CFG=2
M  V30 29 C 2.312789 1.734096 2.656662 0
M  V30 30 C 1.454888 1.720819 1.400776 0
M  V30 31 C 0.318414 0.768302 1.516847 0 CFG=2
M  V30 32 C -0.852260 1.489178 2.137582 0
M  V30 33 C -0.199230 0.415283 0.093927 0 CFG=1
M  V30 34 C 0.801224 -0.421698 -0.590001 0
M  V30 35 C -0.423486 1.666296 -0.712428 0
M  V30 36 C -0.997653 1.366201 -2.045174 0
M  V30 37 C -2.067162 0.336668 -2.093273 0 CFG=1
M  V30 38 C -3.227025 0.991658 -2.830181 0
M  V30 39 O -3.930679 0.794842 -3.853337 0
M  V30 40 O -3.598318 2.148230 -2.147924 0
M  V30 41 H -0.269061 -2.115015 -7.417101 0
M  V30 42 H -0.322229 -1.320275 -9.001676 0
M  V30 43 H -0.081166 -0.346774 -7.524340 0
M  V30 44 H -2.697061 -1.170516 -8.697216 0
M  V30 45 H -4.500172 -1.350058 -5.544642 0
M  V30 46 H -4.480099 -1.755746 -7.266753 0
M  V30 47 H -4.511812 -0.031387 -6.817187 0
M  V30 48 H -0.665102 -0.945733 -3.216167 0
M  V30 49 H -2.040107 -2.978151 -3.004194 0
M  V30 50 H -1.295447 -2.527940 -1.475032 0
M  V30 51 H -2.462692 -3.486592 -0.039941 0
M  V30 52 H -3.600771 -4.387675 -1.149627 0
M  V30 53 H -4.240360 -3.314034 0.096816 0
M  V30 54 H -3.916696 -3.335162 -3.299252 0
M  V30 55 H -5.264387 -3.083512 -2.108788 0
M  V30 56 H -4.806547 -1.708823 -3.131457 0
M  V30 57 H -4.275335 -1.125878 0.094031 0
M  V30 58 H -4.480155 -0.472906 -1.505755 0
M  V30 59 H -3.171542 0.999285 -0.439813 0
M  V30 60 H -2.616909 -1.389393 1.565256 0
M  V30 61 H -0.508777 -2.345819 2.474914 0
M  V30 62 H -1.126315 -0.881026 3.394960 0
M  V30 63 H 1.097493 -1.234656 1.338251 0
M  V30 64 H 0.307487 -1.103806 4.785747 0
M  V30 65 H 0.562732 0.657589 4.728244 0
M  V30 66 H 1.798876 -0.454595 5.414771 0
M  V30 67 H 2.219750 -2.389758 4.337637 0
M  V30 68 H 1.579716 -2.699100 2.724914 0
M  V30 69 H 3.918035 -3.133873 2.944144 0
M  V30 70 H 3.645028 -1.970050 1.656471 0
M  V30 71 H 5.530216 -1.311731 2.976925 0
M  V30 72 H 5.278986 -2.645015 4.587105 0
M  V30 73 H 4.161618 -0.236241 5.696165 0
M  V30 74 H 5.063073 1.189210 5.242326 0
M  V30 75 H 3.324766 1.388364 5.327652 0
M  V30 76 H 4.989712 2.076390 3.272167 0
M  V30 77 H 4.806575 1.133991 1.777233 0
M  V30 78 H 6.111220 0.714828 3.010116 0
M  V30 79 H 3.086338 -0.015102 1.810768 0
M  V30 80 H 3.138019 2.447335 2.502235 0
M  V30 81 H 1.724970 2.116808 3.500634 0
M  V30 82 H 1.012121 2.739083 1.216636 0
M  V30 83 H 2.129902 1.563060 0.539788 0
M  V30 84 H -1.143270 1.123266 3.138641 0
M  V30 85 H -1.758213 1.530136 1.499559 0
M  V30 86 H -0.571670 2.553217 2.300143 0
M  V30 87 H 1.854276 -0.279893 -0.217502 0
M  V30 88 H 0.654334 -1.497555 -0.612637 0
M  V30 89 H 0.925281 -0.124289 -1.674584 0
M  V30 90 H -0.998310 2.435066 -0.156783 0
M  V30 91 H 0.586628 2.136797 -0.862927 0
M  V30 92 H -1.352712 2.355518 -2.500517 0
M  V30 93 H -0.215384 1.054671 -2.771490 0
M  V30 94 H -4.339069 2.773275 -2.431736 0
M  V30 END ATOM
M  V30 BEGIN BOND
M  V30 1 1 1 2
M  V30 2 2 2 3
M  V30 3 1 3 4
M  V30 4 1 3 5
M  V30 5 2 5 6
M  V30 6 1 5 7
M  V30 7 1 7 8
M  V30 8 1 8 9
M  V30 9 1 9 10
M  V30 10 1 10 11
M  V30 11 1 10 12
M  V30 12 1 10 13
M  V30 13 1 13 14
M  V30 14 1 14 15
M  V30 15 2 15 16
M  V30 16 1 16 17
M  V30 17 1 17 18
M  V30 18 1 18 19
M  V30 19 1 19 20 CFG=1
M  V30 20 1 19 21
M  V30 21 1 21 22
M  V30 22 1 22 23
M  V30 23 1 23 24
M  V30 24 1 23 25
M  V30 25 1 25 26
M  V30 26 1 25 27
M  V30 27 1 25 28
M  V30 28 1 28 29
M  V30 29 1 29 30
M  V30 30 1 30 31
M  V30 31 1 31 32 CFG=1
M  V30 32 1 31 33
M  V30 33 1 33 34 CFG=3
M  V30 34 1 33 35
M  V30 35 1 35 36
M  V30 36 1 36 37
M  V30 37 1 37 38 CFG=3
M  V30 38 2 38 39
M  V30 39 1 38 40
M  V30 40 1 37 8
M  V30 41 1 37 14
M  V30 42 1 33 15
M  V30 43 1 31 18
M  V30 44 1 28 19
M  V30 45 1 1 41
M  V30 46 1 1 42
M  V30 47 1 1 43
M  V30 48 1 2 44
M  V30 49 1 4 45
M  V30 50 1 4 46
M  V30 51 1 4 47
M  V30 52 1 8 48 CFG=3
M  V30 53 1 9 49
M  V30 54 1 9 50
M  V30 55 1 11 51
M  V30 56 1 11 52
M  V30 57 1 11 53
M  V30 58 1 12 54
M  V30 59 1 12 55
M  V30 60 1 12 56
M  V30 61 1 13 57
M  V30 62 1 13 58
M  V30 63 1 14 59 CFG=1
M  V30 64 1 16 60
M  V30 65 1 17 61
M  V30 66 1 17 62
M  V30 67 1 18 63 CFG=3
M  V30 68 1 20 64
M  V30 69 1 20 65
M  V30 70 1 20 66
M  V30 71 1 21 67
M  V30 72 1 21 68
M  V30 73 1 22 69
M  V30 74 1 22 70
M  V30 75 1 23 71 CFG=3
M  V30 76 1 24 72
M  V30 77 1 26 73
M  V30 78 1 26 74
M  V30 79 1 26 75
M  V30 80 1 27 76
M  V30 81 1 27 77
M  V30 82 1 27 78
M  V30 83 1 28 79 CFG=3
M  V30 84 1 29 80
M  V30 85 1 29 81
M  V30 86 1 30 82
M  V30 87 1 30 83
M  V30 88 1 32 84
M  V30 89 1 32 85
M  V30 90 1 32 86
M  V30 91 1 34 87
M  V30 92 1 34 88
M  V30 93 1 34 89
M  V30 94 1 35 90
M  V30 95 1 35 91
M  V30 96 1 36 92
M  V30 97 1 36 93
M  V30 98 1 40 94
M  V30 END BOND
M  V30 END CTAB
M  END
>  <Dataset>  (41) 
ChEMBL_Kinases

>  <Ligand_Instance>  (41) 
nan

>  <PDB_ID>  (41) 
nan

>  <Standardized_SMILES>  (41) 
C/C=C(/C)C(=O)O[C@@H]1CC(C)(C)C[C@H]2C3=CC[C@@H]4[C@@]5(C)CC[C@H](O)C(C)(C)[C@@H]5CC[C@@]4(C)[C@]3(C)CC[C@@]12C(=O)O

>  <Name>  (41) 
Reduced Lantadene A

>  <Pocket>  (41) 
nan

>  <ATP_Site>  (41) 
nan

>  <Peripheral>  (41) 
nan

>  <Num_H_Atoms_ProtBoundConf>  (41) 
nan

>  <Num_Resolved_Atoms>  (41) 
nan

>  <Num_Not_Resolved_Atoms>  (41) 
nan

$$$$
CHEMBL2413416
     RDKit          3D

  0  0  0  0  0  0  0  0  0  0999 V3000
M  V30 BEGIN CTAB
M  V30 COUNTS 94 98 0 0 0
M  V30 BEGIN ATOM
M  V30 1 C 8.046856 -1.195136 3.359416 0
M  V30 2 C 6.661606 -0.652238 3.103071 0
M  V30 3 C 5.614872 -0.739096 4.153286 0
M  V30 4 C 6.300509 -0.078914 1.944083 0
M  V30 5 C 5.071843 0.510687 1.442392 0
M  V30 6 O 4.997493 0.999316 0.260982 0
M  V30 7 O 3.870155 0.610887 2.160717 0
M  V30 8 C 2.701542 1.207011 1.587981 0 CFG=2
M  V30 9 C 2.299179 2.459685 2.332175 0
M  V30 10 C 1.192078 3.131947 1.568894 0
M  V30 11 C 1.817307 3.857061 0.395243 0
M  V30 12 C 0.715440 4.239951 2.500853 0
M  V30 13 C 0.083303 2.230339 1.105427 0
M  V30 14 C 0.187943 0.835915 1.540093 0 CFG=1
M  V30 15 C -0.560230 -0.197626 0.775643 0
M  V30 16 C -1.679751 -0.684148 1.308564 0
M  V30 17 C -2.452127 -1.716256 0.591021 0
M  V30 18 C -2.433516 -1.313727 -0.852075 0 CFG=2
M  V30 19 C -3.514962 -1.991119 -1.649015 0 CFG=1
M  V30 20 C -3.666567 -3.433596 -1.479450 0
M  V30 21 C -4.841432 -1.384407 -1.145312 0
M  V30 22 C -6.025740 -1.798908 -1.945520 0
M  V30 23 C -5.884373 -2.024830 -3.387452 0 CFG=2
M  V30 24 O -6.289134 -3.335986 -3.750408 0
M  V30 25 C -4.531189 -1.776804 -3.979419 0
M  V30 26 C -4.165193 -2.858975 -4.989695 0
M  V30 27 C -4.663884 -0.559949 -4.922612 0
M  V30 28 C -3.465861 -1.437960 -3.020317 0 CFG=2
M  V30 29 C -2.109646 -1.579002 -3.670924 0
M  V30 30 C -1.117925 -0.857891 -2.803824 0
M  V30 31 C -1.033129 -1.411525 -1.374378 0 CFG=2
M  V30 32 C -0.544733 -2.826767 -1.560811 0
M  V30 33 C -0.029163 -0.687022 -0.549073 0 CFG=1
M  V30 34 C 0.564385 0.366451 -1.430815 0
M  V30 35 C 1.189774 -1.479454 -0.089887 0
M  V30 36 C 1.727788 -1.107880 1.237906 0
M  V30 37 C 1.568745 0.254177 1.789174 0 CFG=1
M  V30 38 C 1.748863 0.007605 3.294072 0
M  V30 39 O 0.781461 0.290822 4.049960 0
M  V30 40 O 2.156105 -0.298887 4.565235 0
M  V30 41 H 8.205303 -2.093589 2.743635 0
M  V30 42 H 8.833951 -0.451442 3.110713 0
M  V30 43 H 8.116219 -1.375543 4.431545 0
M  V30 44 H 4.652990 -1.116625 3.746961 0
M  V30 45 H 5.431188 0.218805 4.677014 0
M  V30 46 H 5.908062 -1.476129 4.953144 0
M  V30 47 H 7.135152 -0.060044 1.222257 0
M  V30 48 H 2.981451 1.501515 0.600513 0
M  V30 49 H 2.086292 2.240988 3.377743 0
M  V30 50 H 3.179101 3.138132 2.298736 0
M  V30 51 H 2.721384 4.404834 0.767041 0
M  V30 52 H 2.023131 3.176298 -0.430738 0
M  V30 53 H 1.089286 4.675928 0.117201 0
M  V30 54 H 1.582060 4.950452 2.570800 0
M  V30 55 H 0.652671 3.806739 3.541704 0
M  V30 56 H -0.217163 4.700604 2.184088 0
M  V30 57 H -0.855585 2.716724 1.538342 0
M  V30 58 H -0.110092 2.436616 0.035485 0
M  V30 59 H -0.264408 0.883069 2.591021 0
M  V30 60 H -2.035798 -0.318858 2.287416 0
M  V30 61 H -1.991495 -2.743856 0.738240 0
M  V30 62 H -3.438713 -1.836651 1.048027 0
M  V30 63 H -2.700676 -0.235291 -0.896874 0
M  V30 64 H -4.727509 -3.766009 -1.271901 0
M  V30 65 H -3.332683 -4.109147 -2.280850 0
M  V30 66 H -3.124912 -3.760781 -0.569509 0
M  V30 67 H -4.711329 -0.284020 -1.242376 0
M  V30 68 H -5.065591 -1.626678 -0.111900 0
M  V30 69 H -6.463580 -2.716496 -1.482053 0
M  V30 70 H -6.809695 -1.021229 -1.691763 0
M  V30 71 H -6.664954 -1.420783 -3.902579 0
M  V30 72 H -5.674099 -4.027890 -3.478649 0
M  V30 73 H -4.961234 -2.846156 -5.765023 0
M  V30 74 H -3.248066 -2.518864 -5.531748 0
M  V30 75 H -3.960191 -3.833050 -4.572085 0
M  V30 76 H -4.619453 0.373827 -4.319548 0
M  V30 77 H -5.659147 -0.638698 -5.410916 0
M  V30 78 H -3.899357 -0.563744 -5.697871 0
M  V30 79 H -3.510780 -0.315258 -2.841953 0
M  V30 80 H -2.190039 -0.920587 -4.588079 0
M  V30 81 H -1.852027 -2.546517 -4.051666 0
M  V30 82 H -1.593698 0.160306 -2.652344 0
M  V30 83 H -0.205581 -0.866712 -3.367827 0
M  V30 84 H -1.071507 -3.362257 -2.410217 0
M  V30 85 H -0.635829 -3.473163 -0.687299 0
M  V30 86 H 0.488884 -2.799770 -1.963891 0
M  V30 87 H 1.391979 0.933190 -0.963150 0
M  V30 88 H 1.191058 -0.244194 -2.161841 0
M  V30 89 H -0.093656 1.078687 -1.895130 0
M  V30 90 H 1.021668 -2.574983 -0.052312 0
M  V30 91 H 2.043522 -1.398743 -0.831342 0
M  V30 92 H 1.348867 -1.875050 1.988519 0
M  V30 93 H 2.841082 -1.324148 1.243389 0
M  V30 94 H 2.993105 0.063550 5.005711 0
M  V30 END ATOM
M  V30 BEGIN BOND
M  V30 1 1 1 2
M  V30 2 1 2 3
M  V30 3 2 2 4 CFG=2
M  V30 4 1 4 5
M  V30 5 2 5 6
M  V30 6 1 5 7
M  V30 7 1 7 8
M  V30 8 1 8 9
M  V30 9 1 9 10
M  V30 10 1 10 11
M  V30 11 1 10 12
M  V30 12 1 10 13
M  V30 13 1 13 14
M  V30 14 1 14 15
M  V30 15 2 15 16
M  V30 16 1 16 17
M  V30 17 1 17 18
M  V30 18 1 18 19
M  V30 19 1 19 20 CFG=3
M  V30 20 1 19 21
M  V30 21 1 21 22
M  V30 22 1 22 23
M  V30 23 1 23 24
M  V30 24 1 23 25
M  V30 25 1 25 26
M  V30 26 1 25 27
M  V30 27 1 25 28
M  V30 28 1 28 29
M  V30 29 1 29 30
M  V30 30 1 30 31
M  V30 31 1 31 32 CFG=3
M  V30 32 1 31 33
M  V30 33 1 33 34 CFG=3
M  V30 34 1 33 35
M  V30 35 1 35 36
M  V30 36 1 36 37
M  V30 37 1 37 38 CFG=1
M  V30 38 2 38 39
M  V30 39 1 38 40
M  V30 40 1 37 8
M  V30 41 1 37 14
M  V30 42 1 33 15
M  V30 43 1 31 18
M  V30 44 1 28 19
M  V30 45 1 1 41
M  V30 46 1 1 42
M  V30 47 1 1 43
M  V30 48 1 3 44
M  V30 49 1 3 45
M  V30 50 1 3 46
M  V30 51 1 4 47
M  V30 52 1 8 48 CFG=3
M  V30 53 1 9 49
M  V30 54 1 9 50
M  V30 55 1 11 51
M  V30 56 1 11 52
M  V30 57 1 11 53
M  V30 58 1 12 54
M  V30 59 1 12 55
M  V30 60 1 12 56
M  V30 61 1 13 57
M  V30 62 1 13 58
M  V30 63 1 14 59 CFG=1
M  V30 64 1 16 60
M  V30 65 1 17 61
M  V30 66 1 17 62
M  V30 67 1 18 63 CFG=1
M  V30 68 1 20 64
M  V30 69 1 20 65
M  V30 70 1 20 66
M  V30 71 1 21 67
M  V30 72 1 21 68
M  V30 73 1 22 69
M  V30 74 1 22 70
M  V30 75 1 23 71 CFG=3
M  V30 76 1 24 72
M  V30 77 1 26 73
M  V30 78 1 26 74
M  V30 79 1 26 75
M  V30 80 1 27 76
M  V30 81 1 27 77
M  V30 82 1 27 78
M  V30 83 1 28 79 CFG=1
M  V30 84 1 29 80
M  V30 85 1 29 81
M  V30 86 1 30 82
M  V30 87 1 30 83
M  V30 88 1 32 84
M  V30 89 1 32 85
M  V30 90 1 32 86
M  V30 91 1 34 87
M  V30 92 1 34 88
M  V30 93 1 34 89
M  V30 94 1 35 90
M  V30 95 1 35 91
M  V30 96 1 36 92
M  V30 97 1 36 93
M  V30 98 1 40 94
M  V30 END BOND
M  V30 END CTAB
M  END
>  <Dataset>  (42) 
ChEMBL_Kinases

>  <Ligand_Instance>  (42) 
nan

>  <PDB_ID>  (42) 
nan

>  <Standardized_SMILES>  (42) 
CC(C)=CC(=O)O[C@@H]1CC(C)(C)C[C@H]2C3=CC[C@@H]4[C@@]5(C)CC[C@H](O)C(C)(C)[C@@H]5CC[C@@]4(C)[C@]3(C)CC[C@@]12C(=O)O

>  <Name>  (42) 
Reduced Lantadene B

>  <Pocket>  (42) 
nan

>  <ATP_Site>  (42) 
nan

>  <Peripheral>  (42) 
nan

>  <Num_H_Atoms_ProtBoundConf>  (42) 
nan

>  <Num_Resolved_Atoms>  (42) 
nan

>  <Num_Not_Resolved_Atoms>  (42) 
nan

$$$$
CHEMBL2408610
     RDKit          3D

  0  0  0  0  0  0  0  0  0  0999 V3000
M  V30 BEGIN CTAB
M  V30 COUNTS 51 56 0 0 0
M  V30 BEGIN ATOM
M  V30 1 N -3.209817 -3.990910 4.081303 0
M  V30 2 C -2.458306 -2.988754 3.408530 0
M  V30 3 N -2.377307 -1.764923 3.950218 0
M  V30 4 C -1.677781 -0.762462 3.362318 0
M  V30 5 C -1.023967 -1.015154 2.157996 0
M  V30 6 C -0.256452 0.022355 1.478646 0
M  V30 7 C 1.004279 -0.239297 0.952658 0
M  V30 8 N 1.476262 0.897018 0.385372 0
M  V30 9 N 0.569484 1.849505 0.534343 0
M  V30 10 C 0.648570 3.230859 0.081915 0 CFG=1
M  V30 11 C 0.391311 4.190000 1.197428 0
M  V30 12 C 1.631699 4.563026 1.968296 0
M  V30 13 C 2.675873 5.093720 1.034266 0 CFG=2
M  V30 14 O 2.921008 6.465269 1.202455 0
M  V30 15 C 2.373806 4.880029 -0.416670 0
M  V30 16 C 1.978275 3.439911 -0.597184 0
M  V30 17 C -0.507206 1.363825 1.196340 0
M  V30 18 C -1.124639 -2.289398 1.620609 0
M  V30 19 C -0.613406 -2.877179 0.464128 0
M  V30 20 C -1.020107 -4.193682 0.402071 0
M  V30 21 C -0.685981 -5.125231 -0.655079 0
M  V30 22 C 0.101328 -4.736343 -1.723761 0
M  V30 23 C 0.316836 -5.769425 -2.643539 0
M  V30 24 C -0.160326 -7.050290 -2.571163 0
M  V30 25 C -0.952229 -7.390864 -1.468406 0
M  V30 26 N -1.506166 -8.558424 -1.208575 0
M  V30 27 N -2.145154 -8.896109 -0.353368 0
M  V30 28 S -2.178324 -7.252260 0.605537 0
M  V30 29 C -1.201639 -6.447138 -0.542572 0
M  V30 30 O -1.738568 -4.391886 1.463532 0
M  V30 31 C -1.839139 -3.321863 2.216389 0
M  V30 32 H -3.089884 -5.008207 3.889632 0
M  V30 33 H -3.920988 -3.736228 4.804106 0
M  V30 34 H -1.591815 0.237163 3.772502 0
M  V30 35 H 1.643924 -1.110289 0.907320 0
M  V30 36 H -0.130713 3.403890 -0.710986 0
M  V30 37 H -0.388336 3.765806 1.843230 0
M  V30 38 H -0.037303 5.126613 0.743464 0
M  V30 39 H 1.984482 3.652456 2.502245 0
M  V30 40 H 1.336366 5.297183 2.741114 0
M  V30 41 H 3.645502 4.591060 1.241341 0
M  V30 42 H 3.556490 6.700001 0.464035 0
M  V30 43 H 3.316170 5.038220 -0.975600 0
M  V30 44 H 1.622516 5.572893 -0.802662 0
M  V30 45 H 2.794058 2.834010 -0.115213 0
M  V30 46 H 1.955686 3.116870 -1.660106 0
M  V30 47 H -1.418224 1.818070 1.496850 0
M  V30 48 H -0.000130 -2.403123 -0.274115 0
M  V30 49 H 0.495078 -3.759702 -1.827701 0
M  V30 50 H 0.943134 -5.474879 -3.501804 0
M  V30 51 H 0.119477 -7.722437 -3.397023 0
M  V30 END ATOM
M  V30 BEGIN BOND
M  V30 1 1 1 2
M  V30 2 2 2 3
M  V30 3 1 3 4
M  V30 4 2 4 5
M  V30 5 1 5 6
M  V30 6 1 6 7
M  V30 7 2 7 8
M  V30 8 1 8 9
M  V30 9 1 9 10
M  V30 10 1 10 11
M  V30 11 1 11 12
M  V30 12 1 12 13
M  V30 13 1 13 14
M  V30 14 1 13 15
M  V30 15 1 15 16
M  V30 16 1 9 17
M  V30 17 1 5 18
M  V30 18 1 18 19
M  V30 19 2 19 20
M  V30 20 1 20 21
M  V30 21 2 21 22
M  V30 22 1 22 23
M  V30 23 2 23 24
M  V30 24 1 24 25
M  V30 25 1 25 26
M  V30 26 2 26 27
M  V30 27 1 27 28
M  V30 28 1 28 29
M  V30 29 1 20 30
M  V30 30 1 30 31
M  V30 31 1 31 2
M  V30 32 2 17 6
M  V30 33 2 31 18
M  V30 34 1 16 10
M  V30 35 1 29 21
M  V30 36 2 29 25
M  V30 37 1 1 32
M  V30 38 1 1 33
M  V30 39 1 4 34
M  V30 40 1 7 35
M  V30 41 1 10 36 CFG=3
M  V30 42 1 11 37
M  V30 43 1 11 38
M  V30 44 1 12 39
M  V30 45 1 12 40
M  V30 46 1 13 41 CFG=1
M  V30 47 1 14 42
M  V30 48 1 15 43
M  V30 49 1 15 44
M  V30 50 1 16 45
M  V30 51 1 16 46
M  V30 52 1 17 47
M  V30 53 1 19 48
M  V30 54 1 22 49
M  V30 55 1 23 50
M  V30 56 1 24 51
M  V30 END BOND
M  V30 END CTAB
M  END
>  <Dataset>  (43) 
ChEMBL_Kinases

>  <Ligand_Instance>  (43) 
nan

>  <PDB_ID>  (43) 
nan

>  <Standardized_SMILES>  (43) 
Nc1ncc(-c2cnn([C@H]3CC[C@H](O)CC3)c2)c2cc(-c3cccc4nnsc34)oc12

>  <Name>  (43) 
nan

>  <Pocket>  (43) 
nan

>  <ATP_Site>  (43) 
nan

>  <Peripheral>  (43) 
nan

>  <Num_H_Atoms_ProtBoundConf>  (43) 
nan

>  <Num_Resolved_Atoms>  (43) 
nan

>  <Num_Not_Resolved_Atoms>  (43) 
nan

$$$$
CHEMBL2408611
     RDKit          3D

  0  0  0  0  0  0  0  0  0  0999 V3000
M  V30 BEGIN CTAB
M  V30 COUNTS 51 56 0 0 0
M  V30 BEGIN ATOM
M  V30 1 N -1.022604 -4.024870 5.003117 0
M  V30 2 C -0.475372 -3.108200 4.079496 0
M  V30 3 N 0.149566 -1.984476 4.522558 0
M  V30 4 C 0.678482 -1.099970 3.626935 0
M  V30 5 C 0.594504 -1.320773 2.246092 0
M  V30 6 C 1.204621 -0.376038 1.323741 0
M  V30 7 C 2.120554 -0.271816 0.298414 0
M  V30 8 N 2.146574 1.007700 -0.129680 0
M  V30 9 N 1.291230 1.735201 0.571241 0
M  V30 10 C 1.167738 3.147062 0.264472 0 CFG=1
M  V30 11 C 2.345168 3.935447 0.794494 0
M  V30 12 C 2.211391 5.359764 0.377673 0
M  V30 13 C 0.927143 5.692188 -0.305316 0 CFG=2
M  V30 14 O -0.110217 5.891942 0.623392 0
M  V30 15 C 0.551037 4.776949 -1.422946 0
M  V30 16 C 1.069103 3.367387 -1.217880 0
M  V30 17 C 0.689493 0.918179 1.479150 0
M  V30 18 C -0.029041 -2.442565 1.753415 0
M  V30 19 C -0.321504 -3.010156 0.540267 0
M  V30 20 Cl 0.116217 -2.268299 -0.954150 0
M  V30 21 C -0.993969 -4.179035 0.811758 0
M  V30 22 C -1.475919 -5.073924 -0.217347 0
M  V30 23 C -1.418802 -5.041309 -1.567505 0
M  V30 24 C -1.969901 -6.042718 -2.335506 0
M  V30 25 C -2.608594 -7.134734 -1.847774 0
M  V30 26 C -2.734687 -7.287421 -0.487319 0
M  V30 27 N -3.291805 -8.225128 0.235151 0
M  V30 28 N -3.409077 -8.373786 1.365652 0
M  V30 29 S -2.553421 -6.845471 2.025637 0
M  V30 30 C -2.135960 -6.200768 0.320696 0
M  V30 31 O -1.084750 -4.278532 2.095565 0
M  V30 32 C -0.530128 -3.274736 2.714771 0
M  V30 33 H -0.734783 -5.001031 4.789669 0
M  V30 34 H -1.619092 -3.539101 5.732549 0
M  V30 35 H 1.187400 -0.186638 3.945238 0
M  V30 36 H 2.627157 -1.192222 0.054747 0
M  V30 37 H 0.233777 3.554231 0.721971 0
M  V30 38 H 2.418161 3.832675 1.904110 0
M  V30 39 H 3.270988 3.470237 0.401294 0
M  V30 40 H 3.073055 5.610388 -0.285916 0
M  V30 41 H 2.306357 6.012010 1.263698 0
M  V30 42 H 1.076981 6.715848 -0.758346 0
M  V30 43 H 0.323717 6.302306 1.429305 0
M  V30 44 H -0.572881 4.688177 -1.468564 0
M  V30 45 H 0.843732 5.184227 -2.411660 0
M  V30 46 H 0.422401 2.620948 -1.721941 0
M  V30 47 H 2.110038 3.355568 -1.603938 0
M  V30 48 H -0.034236 1.431835 2.104425 0
M  V30 49 H -0.928176 -4.204906 -1.979395 0
M  V30 50 H -1.860056 -5.904833 -3.422840 0
M  V30 51 H -2.993909 -7.843521 -2.558006 0
M  V30 END ATOM
M  V30 BEGIN BOND
M  V30 1 1 1 2
M  V30 2 2 2 3
M  V30 3 1 3 4
M  V30 4 2 4 5
M  V30 5 1 5 6
M  V30 6 1 6 7
M  V30 7 2 7 8
M  V30 8 1 8 9
M  V30 9 1 9 10
M  V30 10 1 10 11
M  V30 11 1 11 12
M  V30 12 1 12 13
M  V30 13 1 13 14
M  V30 14 1 13 15
M  V30 15 1 15 16
M  V30 16 1 9 17
M  V30 17 1 5 18
M  V30 18 1 18 19
M  V30 19 1 19 20
M  V30 20 2 19 21
M  V30 21 1 21 22
M  V30 22 2 22 23
M  V30 23 1 23 24
M  V30 24 2 24 25
M  V30 25 1 25 26
M  V30 26 1 26 27
M  V30 27 2 27 28
M  V30 28 1 28 29
M  V30 29 1 29 30
M  V30 30 1 21 31
M  V30 31 1 31 32
M  V30 32 1 32 2
M  V30 33 2 17 6
M  V30 34 2 32 18
M  V30 35 1 16 10
M  V30 36 1 30 22
M  V30 37 2 30 26
M  V30 38 1 1 33
M  V30 39 1 1 34
M  V30 40 1 4 35
M  V30 41 1 7 36
M  V30 42 1 10 37 CFG=1
M  V30 43 1 11 38
M  V30 44 1 11 39
M  V30 45 1 12 40
M  V30 46 1 12 41
M  V30 47 1 13 42 CFG=3
M  V30 48 1 14 43
M  V30 49 1 15 44
M  V30 50 1 15 45
M  V30 51 1 16 46
M  V30 52 1 16 47
M  V30 53 1 17 48
M  V30 54 1 23 49
M  V30 55 1 24 50
M  V30 56 1 25 51
M  V30 END BOND
M  V30 END CTAB
M  END
>  <Dataset>  (44) 
ChEMBL_Kinases

>  <Ligand_Instance>  (44) 
nan

>  <PDB_ID>  (44) 
nan

>  <Standardized_SMILES>  (44) 
Nc1ncc(-c2cnn([C@H]3CC[C@H](O)CC3)c2)c2c(Cl)c(-c3cccc4nnsc34)oc12

>  <Name>  (44) 
nan

>  <Pocket>  (44) 
nan

>  <ATP_Site>  (44) 
nan

>  <Peripheral>  (44) 
nan

>  <Num_H_Atoms_ProtBoundConf>  (44) 
nan

>  <Num_Resolved_Atoms>  (44) 
nan

>  <Num_Not_Resolved_Atoms>  (44) 
nan

$$$$
CHEMBL2408613
     RDKit          3D

  0  0  0  0  0  0  0  0  0  0999 V3000
M  V30 BEGIN CTAB
M  V30 COUNTS 60 66 0 0 0
M  V30 BEGIN ATOM
M  V30 1 N 1.780101 -4.099144 5.248035 0
M  V30 2 C 1.883810 -3.291938 4.062757 0
M  V30 3 N 3.009810 -2.595095 3.747475 0
M  V30 4 C 3.060354 -1.850485 2.625731 0
M  V30 5 C 1.964305 -1.771467 1.757377 0
M  V30 6 C 2.115685 -0.903176 0.595367 0
M  V30 7 C 3.174054 -1.016477 -0.317922 0
M  V30 8 N 3.029622 -0.052970 -1.249275 0
M  V30 9 N 1.954445 0.675918 -1.005202 0
M  V30 10 C 1.445261 1.812763 -1.772135 0 CFG=1
M  V30 11 C 0.456321 2.551145 -0.920703 0
M  V30 12 C -0.071718 3.791466 -1.587405 0
M  V30 13 C 1.056518 4.689086 -2.021320 0 CFG=2
M  V30 14 O 1.107139 4.622501 -3.424666 0
M  V30 15 C 2.341816 4.130075 -1.486834 0
M  V30 16 C 2.582217 2.767597 -2.107795 0
M  V30 17 C 1.405226 0.177477 0.089597 0
M  V30 18 C 0.855875 -2.498379 2.129179 0
M  V30 19 C -0.317774 -2.555196 1.408676 0
M  V30 20 C -0.827403 -2.007612 0.176799 0
M  V30 21 C -0.217469 -2.534312 -0.977774 0
M  V30 22 C -0.687920 -2.038463 -2.188975 0
M  V30 23 C -1.677649 -1.099363 -2.298268 0
M  V30 24 N -2.227038 -0.628510 -1.175261 0
M  V30 25 C -1.826554 -1.059128 0.056504 0
M  V30 26 C -1.123547 -3.404452 2.178752 0
M  V30 27 C -2.486553 -3.888147 1.997155 0
M  V30 28 C -2.866104 -4.674161 0.917546 0
M  V30 29 C -4.200941 -5.023034 0.937783 0
M  V30 30 C -5.121942 -4.649796 1.922210 0
M  V30 31 C -4.655935 -3.849993 2.986746 0
M  V30 32 N -5.565866 -3.541359 3.864477 0
M  V30 33 N -5.056492 -2.737050 4.917556 0
M  V30 34 S -3.304053 -2.579760 4.415273 0
M  V30 35 C -3.382583 -3.501032 2.992756 0
M  V30 36 O -0.444130 -3.785836 3.239431 0
M  V30 37 C 0.761921 -3.268028 3.260407 0
M  V30 38 H 2.223420 -5.054277 5.188268 0
M  V30 39 H 1.268638 -3.639862 6.047905 0
M  V30 40 H 4.010728 -1.348822 2.491628 0
M  V30 41 H 4.012216 -1.721266 -0.356221 0
M  V30 42 H 0.908233 1.489479 -2.689509 0
M  V30 43 H 0.871776 2.777969 0.103291 0
M  V30 44 H -0.438827 1.888756 -0.729204 0
M  V30 45 H -0.731736 4.338342 -0.878861 0
M  V30 46 H -0.720211 3.475005 -2.431369 0
M  V30 47 H 0.870438 5.714082 -1.662301 0
M  V30 48 H 0.177522 4.580220 -3.751456 0
M  V30 49 H 2.336675 4.107854 -0.393247 0
M  V30 50 H 3.170566 4.779841 -1.836017 0
M  V30 51 H 3.551982 2.352314 -1.769403 0
M  V30 52 H 2.605331 2.926024 -3.208475 0
M  V30 53 H 0.510419 0.525278 0.590299 0
M  V30 54 H 0.577238 -3.285894 -0.935257 0
M  V30 55 H -0.219898 -2.441667 -3.094572 0
M  V30 56 H -1.982982 -0.769062 -3.300689 0
M  V30 57 H -2.262848 -0.686146 0.974136 0
M  V30 58 H -2.159421 -4.950399 0.177588 0
M  V30 59 H -4.450819 -5.645185 0.061707 0
M  V30 60 H -6.094573 -5.071214 1.672578 0
M  V30 END ATOM
M  V30 BEGIN BOND
M  V30 1 1 1 2
M  V30 2 2 2 3
M  V30 3 1 3 4
M  V30 4 2 4 5
M  V30 5 1 5 6
M  V30 6 1 6 7
M  V30 7 2 7 8
M  V30 8 1 8 9
M  V30 9 1 9 10
M  V30 10 1 10 11
M  V30 11 1 11 12
M  V30 12 1 12 13
M  V30 13 1 13 14
M  V30 14 1 13 15
M  V30 15 1 15 16
M  V30 16 1 9 17
M  V30 17 1 5 18
M  V30 18 1 18 19
M  V30 19 1 19 20
M  V30 20 2 20 21
M  V30 21 1 21 22
M  V30 22 2 22 23
M  V30 23 1 23 24
M  V30 24 2 24 25
M  V30 25 2 19 26
M  V30 26 1 26 27
M  V30 27 2 27 28
M  V30 28 1 28 29
M  V30 29 2 29 30
M  V30 30 1 30 31
M  V30 31 1 31 32
M  V30 32 2 32 33
M  V30 33 1 33 34
M  V30 34 1 34 35
M  V30 35 1 26 36
M  V30 36 1 36 37
M  V30 37 1 37 2
M  V30 38 2 17 6
M  V30 39 2 37 18
M  V30 40 1 16 10
M  V30 41 1 25 20
M  V30 42 1 35 27
M  V30 43 2 35 31
M  V30 44 1 1 38
M  V30 45 1 1 39
M  V30 46 1 4 40
M  V30 47 1 7 41
M  V30 48 1 10 42 CFG=3
M  V30 49 1 11 43
M  V30 50 1 11 44
M  V30 51 1 12 45
M  V30 52 1 12 46
M  V30 53 1 13 47 CFG=3
M  V30 54 1 14 48
M  V30 55 1 15 49
M  V30 56 1 15 50
M  V30 57 1 16 51
M  V30 58 1 16 52
M  V30 59 1 17 53
M  V30 60 1 21 54
M  V30 61 1 22 55
M  V30 62 1 23 56
M  V30 63 1 25 57
M  V30 64 1 28 58
M  V30 65 1 29 59
M  V30 66 1 30 60
M  V30 END BOND
M  V30 END CTAB
M  END
>  <Dataset>  (45) 
ChEMBL_Kinases

>  <Ligand_Instance>  (45) 
nan

>  <PDB_ID>  (45) 
nan

>  <Standardized_SMILES>  (45) 
Nc1ncc(-c2cnn([C@H]3CC[C@H](O)CC3)c2)c2c(-c3cccnc3)c(-c3cccc4nnsc34)oc12

>  <Name>  (45) 
nan

>  <Pocket>  (45) 
nan

>  <ATP_Site>  (45) 
nan

>  <Peripheral>  (45) 
nan

>  <Num_H_Atoms_ProtBoundConf>  (45) 
nan

>  <Num_Resolved_Atoms>  (45) 
nan

>  <Num_Not_Resolved_Atoms>  (45) 
nan

$$$$
CHEMBL2408614
     RDKit          3D

  0  0  0  0  0  0  0  0  0  0999 V3000
M  V30 BEGIN CTAB
M  V30 COUNTS 57 63 0 0 0
M  V30 BEGIN ATOM
M  V30 1 N -1.095653 -4.393012 5.317113 0
M  V30 2 C -0.653891 -3.330198 4.491312 0
M  V30 3 N -0.023642 -2.271068 5.027621 0
M  V30 4 C 0.408497 -1.243133 4.253426 0
M  V30 5 C 0.224249 -1.229301 2.871600 0
M  V30 6 C 0.767572 -0.080145 2.168771 0
M  V30 7 C 0.402912 1.197351 2.631207 0
M  V30 8 N 1.007353 2.158486 1.911703 0
M  V30 9 N 1.745024 1.558400 1.006319 0
M  V30 10 C 2.568895 2.261497 0.048805 0 CFG=1
M  V30 11 C 2.126109 1.906526 -1.325079 0
M  V30 12 C 0.797772 2.612327 -1.527111 0
M  V30 13 C 1.203559 4.069619 -1.710748 0 CFG=2
M  V30 14 O 2.086358 4.064368 -2.791532 0
M  V30 15 C 1.829484 4.638391 -0.482869 0
M  V30 16 C 2.633962 3.725640 0.340433 0
M  V30 17 C 1.622916 0.226458 1.132502 0
M  V30 18 C -0.421920 -2.328011 2.381942 0
M  V30 19 C -0.730041 -2.560304 1.071907 0
M  V30 20 C -0.539911 -1.824379 -0.183292 0
M  V30 21 C -1.168595 -0.682916 -0.526429 0
M  V30 22 N -0.843951 -0.226692 -1.713982 0
M  V30 23 C -0.133464 -0.611889 -2.506828 0
M  V30 24 S 0.515054 -2.185393 -1.633976 0
M  V30 25 C -1.380995 -3.795271 1.048864 0
M  V30 26 C -1.935982 -4.557296 -0.062995 0
M  V30 27 C -1.082052 -5.131336 -1.018010 0
M  V30 28 C -1.773076 -5.811451 -2.006051 0
M  V30 29 C -3.124900 -5.955395 -2.113549 0
M  V30 30 C -3.935744 -5.365711 -1.136907 0
M  V30 31 N -5.251392 -5.381715 -1.053083 0
M  V30 32 N -5.944723 -4.927416 -0.297045 0
M  V30 33 S -4.631605 -4.127735 0.825016 0
M  V30 34 C -3.325279 -4.692503 -0.152310 0
M  V30 35 O -1.434392 -4.233758 2.301929 0
M  V30 36 C -0.878261 -3.394128 3.123516 0
M  V30 37 H -0.321859 -5.101127 5.257912 0
M  V30 38 H -1.975065 -4.469738 5.858787 0
M  V30 39 H 0.899372 -0.442023 4.785815 0
M  V30 40 H -0.264557 1.516462 3.447436 0
M  V30 41 H 3.594701 1.796309 0.172387 0
M  V30 42 H 2.897292 2.344827 -2.027884 0
M  V30 43 H 2.081511 0.819845 -1.400361 0
M  V30 44 H 0.185927 2.556924 -0.615831 0
M  V30 45 H 0.264098 2.292558 -2.444512 0
M  V30 46 H 0.276626 4.615797 -1.993890 0
M  V30 47 H 1.607840 3.822573 -3.619110 0
M  V30 48 H 2.458492 5.505534 -0.807408 0
M  V30 49 H 1.000773 5.117489 0.113438 0
M  V30 50 H 3.709368 4.022899 0.355171 0
M  V30 51 H 2.326071 3.834127 1.415997 0
M  V30 52 H 2.059324 -0.596364 0.585090 0
M  V30 53 H -1.886022 -0.167322 0.110219 0
M  V30 54 H 0.134723 -0.220839 -3.511771 0
M  V30 55 H -0.011842 -5.038332 -0.963495 0
M  V30 56 H -1.116351 -6.265886 -2.764173 0
M  V30 57 H -3.488654 -6.536373 -2.974918 0
M  V30 END ATOM
M  V30 BEGIN BOND
M  V30 1 1 1 2
M  V30 2 2 2 3
M  V30 3 1 3 4
M  V30 4 2 4 5
M  V30 5 1 5 6
M  V30 6 1 6 7
M  V30 7 2 7 8
M  V30 8 1 8 9
M  V30 9 1 9 10
M  V30 10 1 10 11
M  V30 11 1 11 12
M  V30 12 1 12 13
M  V30 13 1 13 14
M  V30 14 1 13 15
M  V30 15 1 15 16
M  V30 16 1 9 17
M  V30 17 1 5 18
M  V30 18 1 18 19
M  V30 19 1 19 20
M  V30 20 2 20 21
M  V30 21 1 21 22
M  V30 22 2 22 23
M  V30 23 1 23 24
M  V30 24 2 19 25
M  V30 25 1 25 26
M  V30 26 2 26 27
M  V30 27 1 27 28
M  V30 28 2 28 29
M  V30 29 1 29 30
M  V30 30 1 30 31
M  V30 31 2 31 32
M  V30 32 1 32 33
M  V30 33 1 33 34
M  V30 34 1 25 35
M  V30 35 1 35 36
M  V30 36 1 36 2
M  V30 37 2 17 6
M  V30 38 2 36 18
M  V30 39 1 16 10
M  V30 40 1 24 20
M  V30 41 1 34 26
M  V30 42 2 34 30
M  V30 43 1 1 37
M  V30 44 1 1 38
M  V30 45 1 4 39
M  V30 46 1 7 40
M  V30 47 1 10 41 CFG=3
M  V30 48 1 11 42
M  V30 49 1 11 43
M  V30 50 1 12 44
M  V30 51 1 12 45
M  V30 52 1 13 46 CFG=3
M  V30 53 1 14 47
M  V30 54 1 15 48
M  V30 55 1 15 49
M  V30 56 1 16 50
M  V30 57 1 16 51
M  V30 58 1 17 52
M  V30 59 1 21 53
M  V30 60 1 23 54
M  V30 61 1 27 55
M  V30 62 1 28 56
M  V30 63 1 29 57
M  V30 END BOND
M  V30 END CTAB
M  END
>  <Dataset>  (46) 
ChEMBL_Kinases

>  <Ligand_Instance>  (46) 
nan

>  <PDB_ID>  (46) 
nan

>  <Standardized_SMILES>  (46) 
Nc1ncc(-c2cnn([C@H]3CC[C@H](O)CC3)c2)c2c(-c3cncs3)c(-c3cccc4nnsc34)oc12

>  <Name>  (46) 
nan

>  <Pocket>  (46) 
nan

>  <ATP_Site>  (46) 
nan

>  <Peripheral>  (46) 
nan

>  <Num_H_Atoms_ProtBoundConf>  (46) 
nan

>  <Num_Resolved_Atoms>  (46) 
nan

>  <Num_Not_Resolved_Atoms>  (46) 
nan

$$$$
CHEMBL2408615
     RDKit          3D

  0  0  0  0  0  0  0  0  0  0999 V3000
M  V30 BEGIN CTAB
M  V30 COUNTS 54 59 0 0 0
M  V30 BEGIN ATOM
M  V30 1 N -1.102625 -4.458665 4.200322 0
M  V30 2 C -0.441609 -3.458249 3.446473 0
M  V30 3 N 0.281988 -2.560668 4.120006 0
M  V30 4 C 0.970052 -1.541666 3.566034 0
M  V30 5 C 0.864303 -1.494947 2.168762 0
M  V30 6 C 1.692537 -0.467505 1.540011 0
M  V30 7 C 2.771054 -0.291110 0.647578 0
M  V30 8 N 2.971230 1.032348 0.502289 0
M  V30 9 N 2.100476 1.715811 1.235265 0
M  V30 10 C 2.029219 3.186867 1.280243 0 CFG=1
M  V30 11 C 1.787195 3.725914 -0.090295 0
M  V30 12 C 0.397327 3.353859 -0.519858 0
M  V30 13 C -0.580745 4.027628 0.398007 0 CFG=2
M  V30 14 O -0.563214 5.394156 0.264348 0
M  V30 15 C -0.388186 3.681342 1.853710 0
M  V30 16 C 1.014897 3.636582 2.299124 0
M  V30 17 C 1.325711 0.851583 1.865401 0
M  V30 18 C 0.122821 -2.406887 1.467809 0
M  V30 19 C -0.131357 -2.562572 0.123569 0
M  V30 20 C 0.118051 -1.653885 -0.983496 0
M  V30 21 F -1.104853 -1.182233 -1.507929 0
M  V30 22 C -0.933046 -3.655763 -0.067169 0
M  V30 23 C -1.592517 -4.428477 -1.080403 0
M  V30 24 C -2.668674 -5.283413 -0.698163 0
M  V30 25 C -3.263770 -6.073834 -1.675777 0
M  V30 26 C -2.850189 -6.061105 -2.995684 0
M  V30 27 C -1.814814 -5.239107 -3.358056 0
M  V30 28 N -1.379561 -5.224563 -4.601909 0
M  V30 29 N -0.419627 -4.502562 -4.944007 0
M  V30 30 S -0.004228 -3.683710 -3.328744 0
M  V30 31 C -1.247910 -4.479943 -2.406326 0
M  V30 32 O -1.136709 -4.104207 1.166921 0
M  V30 33 C -0.552353 -3.420124 2.075046 0
M  V30 34 H -1.598909 -5.303756 3.855189 0
M  V30 35 H -1.169017 -4.452936 5.230042 0
M  V30 36 H 1.556958 -0.822274 4.096972 0
M  V30 37 H 3.169917 -1.224363 0.303221 0
M  V30 38 H 3.019797 3.517626 1.614148 0
M  V30 39 H 1.987284 4.799723 -0.138333 0
M  V30 40 H 2.496506 3.196872 -0.767879 0
M  V30 41 H 0.174514 3.659075 -1.563559 0
M  V30 42 H 0.303356 2.264732 -0.412988 0
M  V30 43 H -1.598991 3.658005 0.083669 0
M  V30 44 H -0.512288 5.825928 1.149289 0
M  V30 45 H -0.921982 4.510446 2.427769 0
M  V30 46 H -1.026859 2.799276 2.079372 0
M  V30 47 H 1.127923 3.032391 3.200323 0
M  V30 48 H 1.309303 4.692920 2.593828 0
M  V30 49 H 0.563527 1.209576 2.517954 0
M  V30 50 H 0.872021 -1.802829 -1.692831 0
M  V30 51 H 0.461048 -0.626357 -0.462110 0
M  V30 52 H -3.066452 -5.357243 0.292987 0
M  V30 53 H -4.097868 -6.723382 -1.342330 0
M  V30 54 H -3.429705 -6.747775 -3.619140 0
M  V30 END ATOM
M  V30 BEGIN BOND
M  V30 1 1 1 2
M  V30 2 2 2 3
M  V30 3 1 3 4
M  V30 4 2 4 5
M  V30 5 1 5 6
M  V30 6 1 6 7
M  V30 7 2 7 8
M  V30 8 1 8 9
M  V30 9 1 9 10
M  V30 10 1 10 11
M  V30 11 1 11 12
M  V30 12 1 12 13
M  V30 13 1 13 14
M  V30 14 1 13 15
M  V30 15 1 15 16
M  V30 16 1 9 17
M  V30 17 1 5 18
M  V30 18 1 18 19
M  V30 19 1 19 20
M  V30 20 1 20 21
M  V30 21 2 19 22
M  V30 22 1 22 23
M  V30 23 2 23 24
M  V30 24 1 24 25
M  V30 25 2 25 26
M  V30 26 1 26 27
M  V30 27 1 27 28
M  V30 28 2 28 29
M  V30 29 1 29 30
M  V30 30 1 30 31
M  V30 31 1 22 32
M  V30 32 1 32 33
M  V30 33 1 33 2
M  V30 34 2 17 6
M  V30 35 2 33 18
M  V30 36 1 16 10
M  V30 37 1 31 23
M  V30 38 2 31 27
M  V30 39 1 1 34
M  V30 40 1 1 35
M  V30 41 1 4 36
M  V30 42 1 7 37
M  V30 43 1 10 38 CFG=1
M  V30 44 1 11 39
M  V30 45 1 11 40
M  V30 46 1 12 41
M  V30 47 1 12 42
M  V30 48 1 13 43 CFG=3
M  V30 49 1 14 44
M  V30 50 1 15 45
M  V30 51 1 15 46
M  V30 52 1 16 47
M  V30 53 1 16 48
M  V30 54 1 17 49
M  V30 55 1 20 50
M  V30 56 1 20 51
M  V30 57 1 24 52
M  V30 58 1 25 53
M  V30 59 1 26 54
M  V30 END BOND
M  V30 END CTAB
M  END
>  <Dataset>  (47) 
ChEMBL_Kinases

>  <Ligand_Instance>  (47) 
nan

>  <PDB_ID>  (47) 
nan

>  <Standardized_SMILES>  (47) 
Nc1ncc(-c2cnn([C@H]3CC[C@H](O)CC3)c2)c2c(CF)c(-c3cccc4nnsc34)oc12

>  <Name>  (47) 
nan

>  <Pocket>  (47) 
nan

>  <ATP_Site>  (47) 
nan

>  <Peripheral>  (47) 
nan

>  <Num_H_Atoms_ProtBoundConf>  (47) 
nan

>  <Num_Resolved_Atoms>  (47) 
nan

>  <Num_Not_Resolved_Atoms>  (47) 
nan

$$$$
CHEMBL2408616
     RDKit          3D

  0  0  0  0  0  0  0  0  0  0999 V3000
M  V30 BEGIN CTAB
M  V30 COUNTS 54 59 0 0 0
M  V30 BEGIN ATOM
M  V30 1 N 3.612416 -4.449845 1.299533 0
M  V30 2 C 2.822913 -3.273731 1.405864 0
M  V30 3 N 3.364852 -2.049485 1.547563 0
M  V30 4 C 2.565271 -0.945055 1.647000 0
M  V30 5 C 1.171164 -1.060404 1.604696 0
M  V30 6 C 0.558500 0.229175 1.780436 0
M  V30 7 C -0.177720 1.079549 2.615439 0
M  V30 8 N -0.419363 2.268372 2.047292 0
M  V30 9 N 0.112000 2.311553 0.838169 0
M  V30 10 C 0.038148 3.436018 -0.040964 0 CFG=1
M  V30 11 C 1.361465 4.150564 -0.195167 0
M  V30 12 C 1.612155 4.583516 -1.604205 0
M  V30 13 C 0.372564 5.213789 -2.248188 0 CFG=2
M  V30 14 O 0.104773 6.439235 -1.625266 0
M  V30 15 C -0.806353 4.259159 -2.159329 0
M  V30 16 C -0.372585 2.981696 -1.428876 0
M  V30 17 C 0.704114 1.090361 0.664682 0
M  V30 18 C 0.586552 -2.282226 1.461498 0
M  V30 19 C -0.712036 -2.688196 1.384339 0
M  V30 20 C -1.898116 -1.843469 1.487707 0
M  V30 21 F -1.867300 -0.694880 0.721640 0
M  V30 22 F -1.926900 -1.412623 2.836802 0
M  V30 23 C -0.605268 -4.049700 1.236951 0
M  V30 24 C -1.596887 -5.090467 1.100311 0
M  V30 25 C -2.913380 -5.012515 0.719592 0
M  V30 26 C -3.765875 -6.086367 0.729887 0
M  V30 27 C -3.350761 -7.329486 1.126392 0
M  V30 28 C -2.042061 -7.501686 1.524161 0
M  V30 29 N -1.471230 -8.616920 1.935524 0
M  V30 30 N -0.393665 -8.807700 2.275832 0
M  V30 31 S 0.283734 -7.068694 2.066420 0
M  V30 32 C -1.227986 -6.403622 1.498462 0
M  V30 33 O 0.680013 -4.370923 1.236463 0
M  V30 34 C 1.447693 -3.332090 1.368583 0
M  V30 35 H 4.302542 -4.547921 0.525252 0
M  V30 36 H 3.327877 -5.070474 2.103255 0
M  V30 37 H 3.166128 -0.051362 1.754241 0
M  V30 38 H -0.394252 0.586199 3.576888 0
M  V30 39 H -0.716136 4.137736 0.311717 0
M  V30 40 H 1.372082 5.011648 0.495895 0
M  V30 41 H 2.167139 3.403801 0.053897 0
M  V30 42 H 2.390435 5.390919 -1.589291 0
M  V30 43 H 2.006171 3.782834 -2.255086 0
M  V30 44 H 0.608051 5.328675 -3.328261 0
M  V30 45 H -0.699113 6.806931 -2.081809 0
M  V30 46 H -1.279788 4.049413 -3.121217 0
M  V30 47 H -1.559269 4.743645 -1.487495 0
M  V30 48 H 0.456996 2.484261 -1.980381 0
M  V30 49 H -1.234627 2.306425 -1.415725 0
M  V30 50 H 1.197339 0.961367 -0.299896 0
M  V30 51 H -2.873578 -2.344895 1.404196 0
M  V30 52 H -3.303653 -4.109354 0.366390 0
M  V30 53 H -4.799225 -5.946401 0.414610 0
M  V30 54 H -4.095001 -8.119805 1.102277 0
M  V30 END ATOM
M  V30 BEGIN BOND
M  V30 1 1 1 2
M  V30 2 2 2 3
M  V30 3 1 3 4
M  V30 4 2 4 5
M  V30 5 1 5 6
M  V30 6 1 6 7
M  V30 7 2 7 8
M  V30 8 1 8 9
M  V30 9 1 9 10
M  V30 10 1 10 11
M  V30 11 1 11 12
M  V30 12 1 12 13
M  V30 13 1 13 14
M  V30 14 1 13 15
M  V30 15 1 15 16
M  V30 16 1 9 17
M  V30 17 1 5 18
M  V30 18 1 18 19
M  V30 19 1 19 20
M  V30 20 1 20 21
M  V30 21 1 20 22
M  V30 22 2 19 23
M  V30 23 1 23 24
M  V30 24 2 24 25
M  V30 25 1 25 26
M  V30 26 2 26 27
M  V30 27 1 27 28
M  V30 28 1 28 29
M  V30 29 2 29 30
M  V30 30 1 30 31
M  V30 31 1 31 32
M  V30 32 1 23 33
M  V30 33 1 33 34
M  V30 34 1 34 2
M  V30 35 2 17 6
M  V30 36 2 34 18
M  V30 37 1 16 10
M  V30 38 1 32 24
M  V30 39 2 32 28
M  V30 40 1 1 35
M  V30 41 1 1 36
M  V30 42 1 4 37
M  V30 43 1 7 38
M  V30 44 1 10 39 CFG=1
M  V30 45 1 11 40
M  V30 46 1 11 41
M  V30 47 1 12 42
M  V30 48 1 12 43
M  V30 49 1 13 44 CFG=3
M  V30 50 1 14 45
M  V30 51 1 15 46
M  V30 52 1 15 47
M  V30 53 1 16 48
M  V30 54 1 16 49
M  V30 55 1 17 50
M  V30 56 1 20 51
M  V30 57 1 25 52
M  V30 58 1 26 53
M  V30 59 1 27 54
M  V30 END BOND
M  V30 END CTAB
M  END
>  <Dataset>  (48) 
ChEMBL_Kinases

>  <Ligand_Instance>  (48) 
nan

>  <PDB_ID>  (48) 
nan

>  <Standardized_SMILES>  (48) 
Nc1ncc(-c2cnn([C@H]3CC[C@H](O)CC3)c2)c2c(C(F)F)c(-c3cccc4nnsc34)oc12

>  <Name>  (48) 
nan

>  <Pocket>  (48) 
nan

>  <ATP_Site>  (48) 
nan

>  <Peripheral>  (48) 
nan

>  <Num_H_Atoms_ProtBoundConf>  (48) 
nan

>  <Num_Resolved_Atoms>  (48) 
nan

>  <Num_Not_Resolved_Atoms>  (48) 
nan

$$$$
CHEMBL2408617
     RDKit          3D

  0  0  0  0  0  0  0  0  0  0999 V3000
M  V30 BEGIN CTAB
M  V30 COUNTS 38 42 0 0 0
M  V30 BEGIN ATOM
M  V30 1 C -0.334957 -5.075678 2.754865 0
M  V30 2 N 0.743333 -4.230007 2.261799 0
M  V30 3 C 0.649574 -3.368250 1.257277 0
M  V30 4 C 1.886463 -2.775959 1.114895 0
M  V30 5 C 2.412668 -1.764211 0.207290 0
M  V30 6 C 3.602234 -1.810328 -0.485403 0
M  V30 7 N 3.959327 -0.799187 -1.296149 0
M  V30 8 C 3.230835 0.307010 -1.505852 0
M  V30 9 N 3.631253 1.364235 -2.370009 0
M  V30 10 C 2.040983 0.326438 -0.797140 0
M  V30 11 O 1.142501 1.282340 -0.815126 0
M  V30 12 C 0.123743 1.050133 -0.061520 0
M  V30 13 C -1.012123 1.895496 0.129325 0
M  V30 14 C -0.859084 3.107516 -0.675231 0
M  V30 15 S -2.427584 4.088131 -0.302087 0
M  V30 16 C -3.101788 2.928136 0.787280 0
M  V30 17 C -4.256775 2.958913 1.468069 0
M  V30 18 N -4.618464 1.931359 2.290454 0
M  V30 19 C -3.715654 0.911853 2.342981 0
M  V30 20 C -2.539956 0.900105 1.638484 0
M  V30 21 C -2.164509 1.918556 0.813128 0
M  V30 22 C 0.394839 -0.169768 0.491686 0
M  V30 23 C 1.604014 -0.662064 0.048609 0
M  V30 24 C 2.737608 -3.314066 2.075752 0
M  V30 25 N 1.978249 -4.214152 2.763965 0
M  V30 26 H -1.307747 -4.551448 2.745274 0
M  V30 27 H -0.418393 -5.990694 2.100978 0
M  V30 28 H -0.058185 -5.484481 3.760188 0
M  V30 29 H -0.184519 -3.113115 0.617975 0
M  V30 30 H 4.202043 -2.696554 -0.327152 0
M  V30 31 H 3.435995 1.466637 -3.392300 0
M  V30 32 H 4.182091 2.100577 -1.881267 0
M  V30 33 H -0.160865 3.655689 -1.419747 0
M  V30 34 H -4.888291 3.822836 1.342768 0
M  V30 35 H -4.067064 0.145924 3.005473 0
M  V30 36 H -2.032015 0.004876 1.856886 0
M  V30 37 H -0.121983 -0.790760 1.171570 0
M  V30 38 H 3.786926 -3.177172 2.364195 0
M  V30 END ATOM
M  V30 BEGIN BOND
M  V30 1 1 1 2
M  V30 2 1 2 3
M  V30 3 2 3 4
M  V30 4 1 4 5
M  V30 5 2 5 6
M  V30 6 1 6 7
M  V30 7 2 7 8
M  V30 8 1 8 9
M  V30 9 1 8 10
M  V30 10 1 10 11
M  V30 11 1 11 12
M  V30 12 1 12 13
M  V30 13 2 13 14
M  V30 14 1 14 15
M  V30 15 1 15 16
M  V30 16 2 16 17
M  V30 17 1 17 18
M  V30 18 2 18 19
M  V30 19 1 19 20
M  V30 20 2 20 21
M  V30 21 2 12 22
M  V30 22 1 22 23
M  V30 23 1 4 24
M  V30 24 2 24 25
M  V30 25 1 25 2
M  V30 26 1 23 5
M  V30 27 2 23 10
M  V30 28 1 21 13
M  V30 29 1 21 16
M  V30 30 1 1 26
M  V30 31 1 1 27
M  V30 32 1 1 28
M  V30 33 1 3 29
M  V30 34 1 6 30
M  V30 35 1 9 31
M  V30 36 1 9 32
M  V30 37 1 14 33
M  V30 38 1 17 34
M  V30 39 1 19 35
M  V30 40 1 20 36
M  V30 41 1 22 37
M  V30 42 1 24 38
M  V30 END BOND
M  V30 END CTAB
M  END
>  <Dataset>  (49) 
ChEMBL_Kinases

>  <Ligand_Instance>  (49) 
nan

>  <PDB_ID>  (49) 
nan

>  <Standardized_SMILES>  (49) 
Cn1cc(-c2cnc(N)c3oc(-c4csc5cnccc45)cc23)cn1

>  <Name>  (49) 
nan

>  <Pocket>  (49) 
nan

>  <ATP_Site>  (49) 
nan

>  <Peripheral>  (49) 
nan

>  <Num_H_Atoms_ProtBoundConf>  (49) 
nan

>  <Num_Resolved_Atoms>  (49) 
nan

>  <Num_Not_Resolved_Atoms>  (49) 
nan

$$$$
CHEMBL2409173
     RDKit          3D

  0  0  0  0  0  0  0  0  0  0999 V3000
M  V30 BEGIN CTAB
M  V30 COUNTS 47 51 0 0 0
M  V30 BEGIN ATOM
M  V30 1 C 0.225871 -2.953476 1.665059 0
M  V30 2 C 1.665665 -3.204089 1.562199 0
M  V30 3 O 2.048492 -4.218713 2.248314 0
M  V30 4 N 2.616986 -2.485598 0.829122 0
M  V30 5 C 4.024822 -2.819330 0.783064 0
M  V30 6 C 4.641373 -1.976537 -0.299138 0
M  V30 7 C 3.595394 -1.019689 -0.648562 0
M  V30 8 C 3.701690 0.067263 -1.514084 0
M  V30 9 C 2.580877 0.866579 -1.714516 0
M  V30 10 C 1.383092 0.600278 -1.076342 0
M  V30 11 N 0.257630 1.453054 -1.291284 0
M  V30 12 C -0.946735 1.005648 -0.641623 0
M  V30 13 C -1.005212 1.157686 0.732918 0
M  V30 14 C -2.157626 0.732445 1.382137 0
M  V30 15 N -2.209833 0.867520 2.818383 0
M  V30 16 C -1.106128 1.430983 3.543253 0
M  V30 17 C -1.144322 1.465322 5.048467 0
M  V30 18 C -0.258923 0.468387 4.343186 0
M  V30 19 N -3.179889 0.193998 0.700186 0
M  V30 20 N -4.344864 -0.269531 1.082883 0
M  V30 21 C -5.067930 -0.723451 0.028831 0
M  V30 22 C -4.286481 -0.522289 -1.081756 0
M  V30 23 C -4.668890 -0.861405 -2.420333 0
M  V30 24 N -4.994035 -1.143176 -3.491877 0
M  V30 25 C -3.105265 0.051810 -0.657966 0
M  V30 26 N -1.986757 0.459906 -1.315224 0
M  V30 27 C 1.381800 -0.497190 -0.241374 0
M  V30 28 C 2.439732 -1.337421 0.013064 0
M  V30 29 H 0.080620 -1.982035 2.212510 0
M  V30 30 H -0.298259 -3.699640 2.321932 0
M  V30 31 H -0.311252 -2.864769 0.710493 0
M  V30 32 H 4.118888 -3.893585 0.479364 0
M  V30 33 H 4.534941 -2.621666 1.753306 0
M  V30 34 H 5.534687 -1.408559 0.099901 0
M  V30 35 H 4.980064 -2.612811 -1.161455 0
M  V30 36 H 4.639246 0.304075 -2.035059 0
M  V30 37 H 2.668969 1.723453 -2.398581 0
M  V30 38 H 0.364650 2.289326 -1.867377 0
M  V30 39 H -0.153518 1.596204 1.216191 0
M  V30 40 H -3.088035 0.536613 3.307000 0
M  V30 41 H -0.641132 2.300250 3.026573 0
M  V30 42 H -0.591520 2.281618 5.543933 0
M  V30 43 H -2.035702 1.078818 5.568276 0
M  V30 44 H -0.554984 -0.573605 4.448344 0
M  V30 45 H 0.834279 0.670163 4.241274 0
M  V30 46 H -6.054895 -1.158876 0.019981 0
M  V30 47 H 0.462505 -0.698228 0.248005 0
M  V30 END ATOM
M  V30 BEGIN BOND
M  V30 1 1 1 2
M  V30 2 2 2 3
M  V30 3 1 2 4
M  V30 4 1 4 5
M  V30 5 1 5 6
M  V30 6 1 6 7
M  V30 7 2 7 8
M  V30 8 1 8 9
M  V30 9 2 9 10
M  V30 10 1 10 11
M  V30 11 1 11 12
M  V30 12 1 12 13
M  V30 13 2 13 14
M  V30 14 1 14 15
M  V30 15 1 15 16
M  V30 16 1 16 17
M  V30 17 1 17 18
M  V30 18 1 14 19
M  V30 19 1 19 20
M  V30 20 2 20 21
M  V30 21 1 21 22
M  V30 22 1 22 23
M  V30 23 3 23 24
M  V30 24 2 22 25
M  V30 25 1 25 26
M  V30 26 1 10 27
M  V30 27 2 27 28
M  V30 28 1 28 4
M  V30 29 1 28 7
M  V30 30 2 26 12
M  V30 31 1 18 16
M  V30 32 1 25 19
M  V30 33 1 1 29
M  V30 34 1 1 30
M  V30 35 1 1 31
M  V30 36 1 5 32
M  V30 37 1 5 33
M  V30 38 1 6 34
M  V30 39 1 6 35
M  V30 40 1 8 36
M  V30 41 1 9 37
M  V30 42 1 11 38
M  V30 43 1 13 39
M  V30 44 1 15 40
M  V30 45 1 16 41
M  V30 46 1 17 42
M  V30 47 1 17 43
M  V30 48 1 18 44
M  V30 49 1 18 45
M  V30 50 1 21 46
M  V30 51 1 27 47
M  V30 END BOND
M  V30 END CTAB
M  END
>  <Dataset>  (50) 
ChEMBL_Kinases

>  <Ligand_Instance>  (50) 
nan

>  <PDB_ID>  (50) 
nan

>  <Standardized_SMILES>  (50) 
CC(=O)N1CCc2ccc(Nc3cc(NC4CC4)n4ncc(C#N)c4n3)cc21

>  <Name>  (50) 
nan

>  <Pocket>  (50) 
nan

>  <ATP_Site>  (50) 
nan

>  <Peripheral>  (50) 
nan

>  <Num_H_Atoms_ProtBoundConf>  (50) 
nan

>  <Num_Resolved_Atoms>  (50) 
nan

>  <Num_Not_Resolved_Atoms>  (50) 
nan

$$$$
CHEMBL241233
     RDKit          3D

  0  0  0  0  0  0  0  0  0  0999 V3000
M  V30 BEGIN CTAB
M  V30 COUNTS 60 64 0 0 0
M  V30 BEGIN ATOM
M  V30 1 O 6.239789 -6.980426 4.814385 0
M  V30 2 C 5.759969 -5.931195 4.039517 0
M  V30 3 C 5.651545 -4.681991 4.574876 0
M  V30 4 C 5.167787 -3.632973 3.785752 0
M  V30 5 C 4.783063 -3.798496 2.456311 0
M  V30 6 C 4.289890 -2.689047 1.650235 0
M  V30 7 C 3.364818 -1.827459 2.187364 0
M  V30 8 C 2.913025 -0.773175 1.411339 0
M  V30 9 C 3.367636 -0.572802 0.125321 0
M  V30 10 C 2.845824 0.545918 -0.641396 0
M  V30 11 C 1.886437 1.475562 -0.215582 0
M  V30 12 C 1.572918 2.438302 -1.191918 0
M  V30 13 N 0.586125 3.425710 -0.792107 0
M  V30 14 C -0.635713 2.647803 -0.702130 0
M  V30 15 C -1.278437 2.791894 0.518154 0
M  V30 16 C -2.453023 2.085276 0.794817 0
M  V30 17 C -2.900507 1.252150 -0.239019 0
M  V30 18 C -4.119788 0.481230 0.093416 0
M  V30 19 N -5.353443 1.133689 -0.125845 0
M  V30 20 C -5.667786 1.588605 -1.429312 0
M  V30 21 C -6.071795 0.547995 -2.418374 0
M  V30 22 C -6.447400 -0.761564 -1.828075 0
M  V30 23 C -6.969061 -0.708710 -0.437517 0
M  V30 24 C -6.408706 0.340276 0.455034 0
M  V30 25 N -2.271174 1.123233 -1.416505 0
M  V30 26 C -1.119895 1.810377 -1.697058 0
M  V30 27 N 2.364416 2.056055 -2.192972 0
M  V30 28 N 3.094819 0.996610 -1.917921 0
M  V30 29 C 4.291781 -1.416927 -0.436941 0
M  V30 30 C 4.749674 -2.483937 0.346087 0
M  V30 31 C 4.910866 -5.096787 1.949518 0
M  V30 32 O 4.561511 -5.397356 0.637751 0
M  V30 33 C 5.382370 -6.123304 2.715570 0
M  V30 34 H 5.669505 -7.643606 5.311222 0
M  V30 35 H 5.932182 -4.467065 5.609708 0
M  V30 36 H 5.095710 -2.644238 4.257373 0
M  V30 37 H 2.990306 -1.959761 3.190209 0
M  V30 38 H 2.175567 -0.121945 1.905936 0
M  V30 39 H 1.471613 1.398513 0.785234 0
M  V30 40 H 0.750991 4.435593 -0.625508 0
M  V30 41 H -0.909266 3.445696 1.302734 0
M  V30 42 H -2.975445 2.174632 1.733672 0
M  V30 43 H -4.132422 -0.505434 -0.429665 0
M  V30 44 H -4.113734 0.176312 1.188344 0
M  V30 45 H -6.512523 2.323231 -1.315862 0
M  V30 46 H -4.792797 2.166338 -1.807152 0
M  V30 47 H -6.909795 0.982826 -3.044442 0
M  V30 48 H -5.274611 0.347938 -3.179133 0
M  V30 49 H -5.642005 -1.540933 -1.961323 0
M  V30 50 H -7.281904 -1.173569 -2.479693 0
M  V30 51 H -8.089112 -0.677209 -0.454446 0
M  V30 52 H -6.732580 -1.722699 0.021499 0
M  V30 53 H -7.271246 1.013582 0.757364 0
M  V30 54 H -6.089747 -0.112420 1.420446 0
M  V30 55 H -0.553599 1.763858 -2.612484 0
M  V30 56 H 3.775811 0.527894 -2.542487 0
M  V30 57 H 4.678244 -1.301174 -1.437448 0
M  V30 58 H 5.480241 -3.176674 -0.062297 0
M  V30 59 H 3.628778 -5.765086 0.492821 0
M  V30 60 H 5.500978 -7.154100 2.367470 0
M  V30 END ATOM
M  V30 BEGIN BOND
M  V30 1 1 1 2
M  V30 2 2 2 3
M  V30 3 1 3 4
M  V30 4 2 4 5
M  V30 5 1 5 6
M  V30 6 2 6 7
M  V30 7 1 7 8
M  V30 8 2 8 9
M  V30 9 1 9 10
M  V30 10 2 10 11
M  V30 11 1 11 12
M  V30 12 1 12 13
M  V30 13 1 13 14
M  V30 14 2 14 15
M  V30 15 1 15 16
M  V30 16 2 16 17
M  V30 17 1 17 18
M  V30 18 1 18 19
M  V30 19 1 19 20
M  V30 20 1 20 21
M  V30 21 1 21 22
M  V30 22 1 22 23
M  V30 23 1 23 24
M  V30 24 1 17 25
M  V30 25 2 25 26
M  V30 26 2 12 27
M  V30 27 1 27 28
M  V30 28 1 9 29
M  V30 29 2 29 30
M  V30 30 1 5 31
M  V30 31 1 31 32
M  V30 32 2 31 33
M  V30 33 1 33 2
M  V30 34 1 30 6
M  V30 35 1 28 10
M  V30 36 1 26 14
M  V30 37 1 24 19
M  V30 38 1 1 34
M  V30 39 1 3 35
M  V30 40 1 4 36
M  V30 41 1 7 37
M  V30 42 1 8 38
M  V30 43 1 11 39
M  V30 44 1 13 40
M  V30 45 1 15 41
M  V30 46 1 16 42
M  V30 47 1 18 43
M  V30 48 1 18 44
M  V30 49 1 20 45
M  V30 50 1 20 46
M  V30 51 1 21 47
M  V30 52 1 21 48
M  V30 53 1 22 49
M  V30 54 1 22 50
M  V30 55 1 23 51
M  V30 56 1 23 52
M  V30 57 1 24 53
M  V30 58 1 24 54
M  V30 59 1 26 55
M  V30 60 1 28 56
M  V30 61 1 29 57
M  V30 62 1 30 58
M  V30 63 1 32 59
M  V30 64 1 33 60
M  V30 END BOND
M  V30 END CTAB
M  END
>  <Dataset>  (51) 
ChEMBL_Kinases

>  <Ligand_Instance>  (51) 
nan

>  <PDB_ID>  (51) 
nan

>  <Standardized_SMILES>  (51) 
Oc1ccc(-c2ccc(-c3cc(Nc4ccc(CN5CCCCC5)nc4)n[nH]3)cc2)c(O)c1

>  <Name>  (51) 
nan

>  <Pocket>  (51) 
nan

>  <ATP_Site>  (51) 
nan

>  <Peripheral>  (51) 
nan

>  <Num_H_Atoms_ProtBoundConf>  (51) 
nan

>  <Num_Resolved_Atoms>  (51) 
nan

>  <Num_Not_Resolved_Atoms>  (51) 
nan

$$$$
CHEMBL240963
     RDKit          3D

  0  0  0  0  0  0  0  0  0  0999 V3000
M  V30 BEGIN CTAB
M  V30 COUNTS 19 20 0 0 0
M  V30 BEGIN ATOM
M  V30 1 O -1.170096 -1.217407 2.739145 0
M  V30 2 C -0.109012 -0.714773 2.267941 0
M  V30 3 C 0.976834 -0.481515 3.217629 0
M  V30 4 C 2.126946 0.040145 2.824799 0
M  V30 5 O 3.262449 0.330578 3.581025 0
M  V30 6 C 2.298318 0.384139 1.409967 0
M  V30 7 O 3.356742 0.890436 0.914867 0
M  V30 8 C 1.255993 0.175757 0.419247 0
M  V30 9 C 1.385289 0.487469 -0.913980 0
M  V30 10 C 0.305049 0.235747 -1.758574 0
M  V30 11 C -0.887219 -0.301761 -1.368003 0
M  V30 12 C -0.983359 -0.602483 -0.025484 0
M  V30 13 C 0.051448 -0.375093 0.853600 0
M  V30 14 H 0.950508 -0.700459 4.281052 0
M  V30 15 H 3.749726 1.210132 3.486264 0
M  V30 16 H 2.307041 0.910350 -1.253281 0
M  V30 17 H 0.500202 0.513063 -2.786882 0
M  V30 18 H -1.652116 -0.455679 -2.090017 0
M  V30 19 H -1.926246 -1.037020 0.331615 0
M  V30 END ATOM
M  V30 BEGIN BOND
M  V30 1 2 1 2
M  V30 2 1 2 3
M  V30 3 2 3 4
M  V30 4 1 4 5
M  V30 5 1 4 6
M  V30 6 2 6 7
M  V30 7 1 6 8
M  V30 8 2 8 9
M  V30 9 1 9 10
M  V30 10 2 10 11
M  V30 11 1 11 12
M  V30 12 2 12 13
M  V30 13 1 13 2
M  V30 14 1 13 8
M  V30 15 1 3 14
M  V30 16 1 5 15
M  V30 17 1 9 16
M  V30 18 1 10 17
M  V30 19 1 11 18
M  V30 20 1 12 19
M  V30 END BOND
M  V30 END CTAB
M  END
>  <Dataset>  (52) 
ChEMBL_Kinases

>  <Ligand_Instance>  (52) 
nan

>  <PDB_ID>  (52) 
nan

>  <Standardized_SMILES>  (52) 
O=C1C=C(O)C(=O)c2ccccc21

>  <Name>  (52) 
LAWSONE

>  <Pocket>  (52) 
nan

>  <ATP_Site>  (52) 
nan

>  <Peripheral>  (52) 
nan

>  <Num_H_Atoms_ProtBoundConf>  (52) 
nan

>  <Num_Resolved_Atoms>  (52) 
nan

>  <Num_Not_Resolved_Atoms>  (52) 
nan

$$$$
CHEMBL2409775
     RDKit          3D

  0  0  0  0  0  0  0  0  0  0999 V3000
M  V30 BEGIN CTAB
M  V30 COUNTS 53 57 0 0 0
M  V30 BEGIN ATOM
M  V30 1 C 0.740490 -2.075874 6.418834 0
M  V30 2 C 1.634163 -2.175127 5.234525 0
M  V30 3 C 1.853917 -1.127486 4.345310 0
M  V30 4 C 2.732145 -1.608983 3.395623 0
M  V30 5 C 3.342022 -0.999664 2.209691 0
M  V30 6 O 4.133588 -1.474412 1.376569 0
M  V30 7 N 2.957186 0.342491 1.994664 0
M  V30 8 C 3.416985 1.144782 0.909219 0
M  V30 9 C 4.537669 1.963692 0.872314 0
M  V30 10 C 4.830175 2.670742 -0.269616 0
M  V30 11 C 3.981834 2.543766 -1.373106 0
M  V30 12 C 2.853257 1.729296 -1.359380 0
M  V30 13 O 2.043389 1.649572 -2.508074 0
M  V30 14 C 0.916206 0.808474 -2.431630 0
M  V30 15 C 0.921340 -0.530369 -2.770738 0
M  V30 16 C -0.268004 -1.242944 -2.645943 0
M  V30 17 C -1.398008 -0.570720 -2.186955 0
M  V30 18 N -2.668094 -1.015247 -1.973864 0
M  V30 19 C -3.394707 0.030257 -1.524007 0
M  V30 20 N -4.773618 0.006380 -1.176936 0
M  V30 21 C -5.489521 -1.221929 -1.303602 0
M  V30 22 O -4.882117 -2.252370 -1.719191 0
M  V30 23 C -6.935047 -1.239129 -0.937789 0
M  V30 24 C -7.331674 -2.457750 -0.089513 0
M  V30 25 C -7.840028 -2.290000 -1.461135 0
M  V30 26 N -2.577053 1.101175 -1.463198 0
M  V30 27 N -1.351953 0.736057 -1.869047 0
M  V30 28 C -0.217326 1.460299 -1.976886 0
M  V30 29 C 2.597378 1.033791 -0.183718 0
M  V30 30 N 3.019995 -2.886293 3.708808 0
M  V30 31 C 3.850884 -3.928243 3.137427 0
M  V30 32 N 2.357313 -3.216936 4.812504 0
M  V30 33 H 1.331453 -1.657011 7.245921 0
M  V30 34 H -0.073534 -1.332334 6.182749 0
M  V30 35 H 0.313794 -3.077612 6.633717 0
M  V30 36 H 1.472607 -0.122115 4.313452 0
M  V30 37 H 2.316649 0.974996 2.530279 0
M  V30 38 H 5.106340 1.969776 1.793414 0
M  V30 39 H 5.700935 3.288960 -0.256809 0
M  V30 40 H 4.269062 3.123655 -2.231844 0
M  V30 41 H 1.848316 -0.960095 -3.116542 0
M  V30 42 H -0.276343 -2.299769 -2.910445 0
M  V30 43 H -5.236920 0.855864 -0.843915 0
M  V30 44 H -7.384132 -0.292762 -0.583946 0
M  V30 45 H -7.938785 -2.289160 0.818647 0
M  V30 46 H -6.569345 -3.250299 0.072569 0
M  V30 47 H -8.924544 -2.005531 -1.520962 0
M  V30 48 H -7.516474 -2.988132 -2.241641 0
M  V30 49 H -0.256180 2.492551 -1.706493 0
M  V30 50 H 1.694962 0.421768 -0.262778 0
M  V30 51 H 3.221929 -4.849415 2.977751 0
M  V30 52 H 4.650602 -4.245466 3.836494 0
M  V30 53 H 4.242886 -3.679152 2.146825 0
M  V30 END ATOM
M  V30 BEGIN BOND
M  V30 1 1 1 2
M  V30 2 1 2 3
M  V30 3 2 3 4
M  V30 4 1 4 5
M  V30 5 2 5 6
M  V30 6 1 5 7
M  V30 7 1 7 8
M  V30 8 2 8 9
M  V30 9 1 9 10
M  V30 10 2 10 11
M  V30 11 1 11 12
M  V30 12 1 12 13
M  V30 13 1 13 14
M  V30 14 1 14 15
M  V30 15 2 15 16
M  V30 16 1 16 17
M  V30 17 2 17 18
M  V30 18 1 18 19
M  V30 19 1 19 20
M  V30 20 1 20 21
M  V30 21 2 21 22
M  V30 22 1 21 23
M  V30 23 1 23 24
M  V30 24 1 24 25
M  V30 25 2 19 26
M  V30 26 1 26 27
M  V30 27 1 27 28
M  V30 28 2 12 29
M  V30 29 1 4 30
M  V30 30 1 30 31
M  V30 31 1 30 32
M  V30 32 2 32 2
M  V30 33 1 29 8
M  V30 34 2 28 14
M  V30 35 1 27 17
M  V30 36 1 25 23
M  V30 37 1 1 33
M  V30 38 1 1 34
M  V30 39 1 1 35
M  V30 40 1 3 36
M  V30 41 1 7 37
M  V30 42 1 9 38
M  V30 43 1 10 39
M  V30 44 1 11 40
M  V30 45 1 15 41
M  V30 46 1 16 42
M  V30 47 1 20 43
M  V30 48 1 23 44
M  V30 49 1 24 45
M  V30 50 1 24 46
M  V30 51 1 25 47
M  V30 52 1 25 48
M  V30 53 1 28 49
M  V30 54 1 29 50
M  V30 55 1 31 51
M  V30 56 1 31 52
M  V30 57 1 31 53
M  V30 END BOND
M  V30 END CTAB
M  END
>  <Dataset>  (53) 
ChEMBL_Kinases

>  <Ligand_Instance>  (53) 
nan

>  <PDB_ID>  (53) 
nan

>  <Standardized_SMILES>  (53) 
Cc1cc(C(=O)Nc2cccc(Oc3ccc4nc(NC(=O)C5CC5)nn4c3)c2)n(C)n1

>  <Name>  (53) 
nan

>  <Pocket>  (53) 
nan

>  <ATP_Site>  (53) 
nan

>  <Peripheral>  (53) 
nan

>  <Num_H_Atoms_ProtBoundConf>  (53) 
nan

>  <Num_Resolved_Atoms>  (53) 
nan

>  <Num_Not_Resolved_Atoms>  (53) 
nan

$$$$
CHEMBL2409778
     RDKit          3D

  0  0  0  0  0  0  0  0  0  0999 V3000
M  V30 BEGIN CTAB
M  V30 COUNTS 53 57 0 0 0
M  V30 BEGIN ATOM
M  V30 1 C 4.195609 -5.251890 5.191464 0
M  V30 2 C 3.330863 -4.601871 4.168503 0
M  V30 3 C 3.852211 -3.899037 3.102737 0
M  V30 4 C 2.757558 -3.461733 2.400336 0
M  V30 5 C 2.583276 -2.665834 1.172248 0
M  V30 6 O 1.530964 -2.286962 0.560888 0
M  V30 7 N 3.725131 -2.183385 0.462240 0
M  V30 8 C 3.291516 -1.438150 -0.695137 0
M  V30 9 C 3.102043 -0.091830 -0.465125 0
M  V30 10 C 2.689442 0.688116 -1.515297 0
M  V30 11 O 2.433430 2.073135 -1.517401 0
M  V30 12 C 1.144047 2.551837 -1.221209 0
M  V30 13 C 0.790769 3.888685 -1.197022 0
M  V30 14 C -0.526739 4.200327 -0.885979 0
M  V30 15 C -1.495697 3.259349 -0.601934 0
M  V30 16 N -2.802828 3.365140 -0.283726 0
M  V30 17 C -3.233642 2.099646 -0.117409 0
M  V30 18 N -4.451323 1.424976 0.215553 0
M  V30 19 C -5.418199 0.989658 -0.714549 0
M  V30 20 O -5.201803 1.207207 -1.935463 0
M  V30 21 C -6.637099 0.299995 -0.211098 0
M  V30 22 C -7.183770 0.916052 1.084579 0
M  V30 23 C -6.595617 -0.467101 1.051380 0
M  V30 24 N -2.205147 1.254923 -0.331808 0
M  V30 25 N -1.120863 1.964050 -0.633416 0
M  V30 26 C 0.151479 1.638122 -0.932617 0
M  V30 27 C 2.468153 0.150860 -2.767311 0
M  V30 28 C 2.662368 -1.211917 -2.990655 0
M  V30 29 C 3.077001 -1.999245 -1.937864 0
M  V30 30 F 3.297254 -3.349066 -2.050121 0
M  V30 31 N 1.626048 -3.874873 3.003977 0
M  V30 32 C 0.194795 -3.785784 2.827408 0
M  V30 33 N 1.987585 -4.566713 4.077287 0
M  V30 34 H 3.592314 -5.656242 6.035674 0
M  V30 35 H 5.005141 -4.574174 5.560532 0
M  V30 36 H 4.713878 -6.140029 4.761249 0
M  V30 37 H 4.833216 -3.663608 2.768053 0
M  V30 38 H 4.716117 -2.379031 0.790289 0
M  V30 39 H 3.240383 0.444610 0.462156 0
M  V30 40 H 1.550906 4.604767 -1.418808 0
M  V30 41 H -0.814630 5.247020 -0.864248 0
M  V30 42 H -4.521457 1.299896 1.260542 0
M  V30 43 H -7.376361 -0.028932 -0.969241 0
M  V30 44 H -8.282630 1.013843 1.199109 0
M  V30 45 H -6.619359 1.736458 1.560898 0
M  V30 46 H -7.257838 -1.352188 1.165641 0
M  V30 47 H -5.634443 -0.618274 1.600642 0
M  V30 48 H 0.408689 0.586430 -0.946523 0
M  V30 49 H 2.142044 0.680597 -3.659816 0
M  V30 50 H 2.501591 -1.681641 -3.957518 0
M  V30 51 H -0.258231 -3.241904 3.704024 0
M  V30 52 H -0.275763 -4.801675 2.823210 0
M  V30 53 H -0.096314 -3.326590 1.878278 0
M  V30 END ATOM
M  V30 BEGIN BOND
M  V30 1 1 1 2
M  V30 2 1 2 3
M  V30 3 2 3 4
M  V30 4 1 4 5
M  V30 5 2 5 6
M  V30 6 1 5 7
M  V30 7 1 7 8
M  V30 8 2 8 9
M  V30 9 1 9 10
M  V30 10 1 10 11
M  V30 11 1 11 12
M  V30 12 1 12 13
M  V30 13 2 13 14
M  V30 14 1 14 15
M  V30 15 2 15 16
M  V30 16 1 16 17
M  V30 17 1 17 18
M  V30 18 1 18 19
M  V30 19 2 19 20
M  V30 20 1 19 21
M  V30 21 1 21 22
M  V30 22 1 22 23
M  V30 23 2 17 24
M  V30 24 1 24 25
M  V30 25 1 25 26
M  V30 26 2 10 27
M  V30 27 1 27 28
M  V30 28 2 28 29
M  V30 29 1 29 30
M  V30 30 1 4 31
M  V30 31 1 31 32
M  V30 32 1 31 33
M  V30 33 2 33 2
M  V30 34 1 29 8
M  V30 35 2 26 12
M  V30 36 1 25 15
M  V30 37 1 23 21
M  V30 38 1 1 34
M  V30 39 1 1 35
M  V30 40 1 1 36
M  V30 41 1 3 37
M  V30 42 1 7 38
M  V30 43 1 9 39
M  V30 44 1 13 40
M  V30 45 1 14 41
M  V30 46 1 18 42
M  V30 47 1 21 43
M  V30 48 1 22 44
M  V30 49 1 22 45
M  V30 50 1 23 46
M  V30 51 1 23 47
M  V30 52 1 26 48
M  V30 53 1 27 49
M  V30 54 1 28 50
M  V30 55 1 32 51
M  V30 56 1 32 52
M  V30 57 1 32 53
M  V30 END BOND
M  V30 END CTAB
M  END
>  <Dataset>  (54) 
ChEMBL_Kinases

>  <Ligand_Instance>  (54) 
nan

>  <PDB_ID>  (54) 
nan

>  <Standardized_SMILES>  (54) 
Cc1cc(C(=O)Nc2cc(Oc3ccc4nc(NC(=O)C5CC5)nn4c3)ccc2F)n(C)n1

>  <Name>  (54) 
nan

>  <Pocket>  (54) 
nan

>  <ATP_Site>  (54) 
nan

>  <Peripheral>  (54) 
nan

>  <Num_H_Atoms_ProtBoundConf>  (54) 
nan

>  <Num_Resolved_Atoms>  (54) 
nan

>  <Num_Not_Resolved_Atoms>  (54) 
nan

$$$$
CHEMBL2409779
     RDKit          3D

  0  0  0  0  0  0  0  0  0  0999 V3000
M  V30 BEGIN CTAB
M  V30 COUNTS 54 58 0 0 0
M  V30 BEGIN ATOM
M  V30 1 C 0.439749 -0.988027 6.891117 0
M  V30 2 C 1.433859 -1.083871 5.781846 0
M  V30 3 C 1.514026 -0.290233 4.656932 0
M  V30 4 C 2.588004 -0.758605 3.929953 0
M  V30 5 C 3.100037 -0.266856 2.659452 0
M  V30 6 O 4.066770 -0.662896 1.972248 0
M  V30 7 N 2.435845 0.838729 2.054557 0
M  V30 8 C 2.715670 1.502727 0.849488 0
M  V30 9 C 3.581383 2.572115 0.905303 0
M  V30 10 C 3.920764 3.292639 -0.230711 0
M  V30 11 C 3.374059 2.929790 -1.466883 0
M  V30 12 C 2.503707 1.861308 -1.548499 0
M  V30 13 O 1.919305 1.444922 -2.760389 0
M  V30 14 C 1.039565 0.345038 -2.765189 0
M  V30 15 C 1.456614 -0.956898 -2.952037 0
M  V30 16 C 0.508154 -1.959120 -2.938167 0
M  V30 17 C -0.815976 -1.618049 -2.738299 0
M  V30 18 N -1.922107 -2.390548 -2.681026 0
M  V30 19 C -3.002453 -1.595285 -2.464363 0
M  V30 20 N -4.348077 -2.104270 -2.349940 0
M  V30 21 C -4.672703 -2.423029 -1.002059 0
M  V30 22 O -3.868771 -2.270849 -0.046772 0
M  V30 23 C -6.042129 -2.965724 -0.719460 0
M  V30 24 C -6.743539 -3.765987 -1.753124 0
M  V30 25 C -7.130733 -2.334465 -1.538290 0
M  V30 26 C -2.556328 -0.291161 -2.384509 0
M  V30 27 N -1.220795 -0.326534 -2.554057 0
M  V30 28 C -0.303648 0.659363 -2.565729 0
M  V30 29 C 2.188555 1.162422 -0.379028 0
M  V30 30 N 3.128456 -1.794056 4.597492 0
M  V30 31 C 4.260069 -2.648389 4.297662 0
M  V30 32 N 2.438154 -2.005594 5.727090 0
M  V30 33 H 0.971680 -0.970149 7.873381 0
M  V30 34 H -0.135514 -0.046930 6.773263 0
M  V30 35 H -0.250052 -1.835664 6.811278 0
M  V30 36 H 0.861793 0.545040 4.386658 0
M  V30 37 H 1.590376 1.318078 2.483699 0
M  V30 38 H 4.026314 2.881425 1.857526 0
M  V30 39 H 4.603569 4.144935 -0.220841 0
M  V30 40 H 3.627427 3.479688 -2.361081 0
M  V30 41 H 2.506775 -1.106865 -3.098069 0
M  V30 42 H 0.830495 -2.981753 -3.084292 0
M  V30 43 H -5.055194 -2.252914 -3.090467 0
M  V30 44 H -6.279945 -3.209262 0.336845 0
M  V30 45 H -7.495213 -4.507848 -1.401871 0
M  V30 46 H -6.198482 -4.077457 -2.663416 0
M  V30 47 H -8.090513 -2.102738 -1.029652 0
M  V30 48 H -6.880894 -1.671674 -2.390321 0
M  V30 49 H -3.165684 0.565994 -2.219909 0
M  V30 50 H -0.650664 1.677442 -2.417026 0
M  V30 51 H 1.516723 0.320354 -0.375555 0
M  V30 52 H 3.873290 -3.702675 4.375893 0
M  V30 53 H 4.654590 -2.503068 3.288061 0
M  V30 54 H 5.044599 -2.596017 5.089987 0
M  V30 END ATOM
M  V30 BEGIN BOND
M  V30 1 1 1 2
M  V30 2 1 2 3
M  V30 3 2 3 4
M  V30 4 1 4 5
M  V30 5 2 5 6
M  V30 6 1 5 7
M  V30 7 1 7 8
M  V30 8 2 8 9
M  V30 9 1 9 10
M  V30 10 2 10 11
M  V30 11 1 11 12
M  V30 12 1 12 13
M  V30 13 1 13 14
M  V30 14 1 14 15
M  V30 15 2 15 16
M  V30 16 1 16 17
M  V30 17 2 17 18
M  V30 18 1 18 19
M  V30 19 1 19 20
M  V30 20 1 20 21
M  V30 21 2 21 22
M  V30 22 1 21 23
M  V30 23 1 23 24
M  V30 24 1 24 25
M  V30 25 2 19 26
M  V30 26 1 26 27
M  V30 27 1 27 28
M  V30 28 2 12 29
M  V30 29 1 4 30
M  V30 30 1 30 31
M  V30 31 1 30 32
M  V30 32 2 32 2
M  V30 33 1 29 8
M  V30 34 2 28 14
M  V30 35 1 27 17
M  V30 36 1 25 23
M  V30 37 1 1 33
M  V30 38 1 1 34
M  V30 39 1 1 35
M  V30 40 1 3 36
M  V30 41 1 7 37
M  V30 42 1 9 38
M  V30 43 1 10 39
M  V30 44 1 11 40
M  V30 45 1 15 41
M  V30 46 1 16 42
M  V30 47 1 20 43
M  V30 48 1 23 44
M  V30 49 1 24 45
M  V30 50 1 24 46
M  V30 51 1 25 47
M  V30 52 1 25 48
M  V30 53 1 26 49
M  V30 54 1 28 50
M  V30 55 1 29 51
M  V30 56 1 31 52
M  V30 57 1 31 53
M  V30 58 1 31 54
M  V30 END BOND
M  V30 END CTAB
M  END
>  <Dataset>  (55) 
ChEMBL_Kinases

>  <Ligand_Instance>  (55) 
nan

>  <PDB_ID>  (55) 
nan

>  <Standardized_SMILES>  (55) 
Cc1cc(C(=O)Nc2cccc(Oc3ccc4nc(NC(=O)C5CC5)cn4c3)c2)n(C)n1

>  <Name>  (55) 
nan

>  <Pocket>  (55) 
nan

>  <ATP_Site>  (55) 
nan

>  <Peripheral>  (55) 
nan

>  <Num_H_Atoms_ProtBoundConf>  (55) 
nan

>  <Num_Resolved_Atoms>  (55) 
nan

>  <Num_Not_Resolved_Atoms>  (55) 
nan

$$$$
CHEMBL2409790
     RDKit          3D

  0  0  0  0  0  0  0  0  0  0999 V3000
M  V30 BEGIN CTAB
M  V30 COUNTS 53 57 0 0 0
M  V30 BEGIN ATOM
M  V30 1 C 0.177885 -1.332776 6.830569 0
M  V30 2 C 1.094341 -1.433773 5.647078 0
M  V30 3 C 1.391875 -0.451624 4.725489 0
M  V30 4 C 2.271574 -1.083749 3.872798 0
M  V30 5 C 2.911850 -0.483608 2.690855 0
M  V30 6 O 3.709389 -1.075594 1.927630 0
M  V30 7 N 2.670667 0.860914 2.304753 0
M  V30 8 C 3.432076 1.160234 1.118488 0
M  V30 9 C 4.723311 1.667009 1.088176 0
M  V30 10 C 5.321183 1.902143 -0.134243 0
M  V30 11 C 4.622570 1.628434 -1.309947 0
M  V30 12 C 3.330231 1.121229 -1.284224 0
M  V30 13 O 2.689996 0.870448 -2.512631 0
M  V30 14 C 1.405495 0.366316 -2.406578 0
M  V30 15 C 1.038576 -0.946796 -2.343785 0
M  V30 16 C -0.266043 -1.402828 -2.237625 0
M  V30 17 C -1.316822 -0.474863 -2.188128 0
M  V30 18 N -2.494027 -1.102660 -2.086335 0
M  V30 19 C -3.470471 0.017905 -2.047544 0
M  V30 20 N -5.013636 -0.089226 -1.935795 0
M  V30 21 C -5.388355 -1.414464 -1.879776 0
M  V30 22 O -4.620412 -2.406812 -1.911514 0
M  V30 23 C -6.850496 -1.601555 -1.773402 0
M  V30 24 C -7.259061 -2.662340 -0.741599 0
M  V30 25 C -7.436341 -2.925511 -2.179394 0
M  V30 26 S -2.515373 1.631046 -2.160817 0
M  V30 27 C -0.932094 0.861070 -2.252833 0
M  V30 28 C 0.342946 1.246801 -2.354917 0
M  V30 29 C 2.756557 0.895581 -0.035048 0
M  V30 30 N 2.505309 -2.362582 4.234391 0
M  V30 31 C 3.379071 -3.311515 3.557456 0
M  V30 32 N 1.775770 -2.543347 5.314785 0
M  V30 33 H -0.316704 -2.319633 6.923650 0
M  V30 34 H -0.542886 -0.515558 6.592708 0
M  V30 35 H 0.806880 -1.076555 7.703304 0
M  V30 36 H 1.020009 0.548680 4.697808 0
M  V30 37 H 2.011812 1.471315 2.871048 0
M  V30 38 H 5.147282 1.833006 2.071516 0
M  V30 39 H 6.323531 2.295510 -0.092295 0
M  V30 40 H 5.172557 1.844644 -2.199646 0
M  V30 41 H 1.941526 -1.582231 -2.390825 0
M  V30 42 H -0.212016 -2.506066 -2.210827 0
M  V30 43 H -5.401121 0.842295 -1.929071 0
M  V30 44 H -7.515815 -0.728631 -1.738364 0
M  V30 45 H -8.122097 -2.490626 -0.096486 0
M  V30 46 H -6.442843 -3.213298 -0.210730 0
M  V30 47 H -8.483612 -2.912452 -2.546603 0
M  V30 48 H -6.778504 -3.644852 -2.704201 0
M  V30 49 H 0.413324 2.304027 -2.389354 0
M  V30 50 H 1.746862 0.499343 -0.094515 0
M  V30 51 H 3.425953 -4.213262 4.202483 0
M  V30 52 H 4.419629 -2.935313 3.495080 0
M  V30 53 H 2.984759 -3.637834 2.576593 0
M  V30 END ATOM
M  V30 BEGIN BOND
M  V30 1 1 1 2
M  V30 2 1 2 3
M  V30 3 2 3 4
M  V30 4 1 4 5
M  V30 5 2 5 6
M  V30 6 1 5 7
M  V30 7 1 7 8
M  V30 8 2 8 9
M  V30 9 1 9 10
M  V30 10 2 10 11
M  V30 11 1 11 12
M  V30 12 1 12 13
M  V30 13 1 13 14
M  V30 14 2 14 15
M  V30 15 1 15 16
M  V30 16 2 16 17
M  V30 17 1 17 18
M  V30 18 2 18 19
M  V30 19 1 19 20
M  V30 20 1 20 21
M  V30 21 2 21 22
M  V30 22 1 21 23
M  V30 23 1 23 24
M  V30 24 1 24 25
M  V30 25 1 19 26
M  V30 26 1 26 27
M  V30 27 2 27 28
M  V30 28 2 12 29
M  V30 29 1 4 30
M  V30 30 1 30 31
M  V30 31 1 30 32
M  V30 32 2 32 2
M  V30 33 1 29 8
M  V30 34 1 28 14
M  V30 35 1 27 17
M  V30 36 1 25 23
M  V30 37 1 1 33
M  V30 38 1 1 34
M  V30 39 1 1 35
M  V30 40 1 3 36
M  V30 41 1 7 37
M  V30 42 1 9 38
M  V30 43 1 10 39
M  V30 44 1 11 40
M  V30 45 1 15 41
M  V30 46 1 16 42
M  V30 47 1 20 43
M  V30 48 1 23 44
M  V30 49 1 24 45
M  V30 50 1 24 46
M  V30 51 1 25 47
M  V30 52 1 25 48
M  V30 53 1 28 49
M  V30 54 1 29 50
M  V30 55 1 31 51
M  V30 56 1 31 52
M  V30 57 1 31 53
M  V30 END BOND
M  V30 END CTAB
M  END
>  <Dataset>  (56) 
ChEMBL_Kinases

>  <Ligand_Instance>  (56) 
nan

>  <PDB_ID>  (56) 
nan

>  <Standardized_SMILES>  (56) 
Cc1cc(C(=O)Nc2cccc(Oc3ccc4nc(NC(=O)C5CC5)sc4c3)c2)n(C)n1

>  <Name>  (56) 
nan

>  <Pocket>  (56) 
nan

>  <ATP_Site>  (56) 
nan

>  <Peripheral>  (56) 
nan

>  <Num_H_Atoms_ProtBoundConf>  (56) 
nan

>  <Num_Resolved_Atoms>  (56) 
nan

>  <Num_Not_Resolved_Atoms>  (56) 
nan

$$$$
CHEMBL241024
     RDKit          3D

  0  0  0  0  0  0  0  0  0  0999 V3000
M  V30 BEGIN CTAB
M  V30 COUNTS 43 46 0 0 0
M  V30 BEGIN ATOM
M  V30 1 O 2.846710 -8.279983 2.384671 0
M  V30 2 C 2.378620 -7.079120 1.864420 0
M  V30 3 C 3.017945 -5.891245 2.177000 0
M  V30 4 C 2.581133 -4.661577 1.676183 0
M  V30 5 C 1.473023 -4.673487 0.846009 0
M  V30 6 C 1.058711 -3.356704 0.350678 0
M  V30 7 C 0.720801 -3.131050 -0.979839 0
M  V30 8 C 0.328735 -1.859879 -1.414607 0
M  V30 9 C 0.293687 -0.853211 -0.472949 0
M  V30 10 C -0.108503 0.494420 -0.863024 0
M  V30 11 C -0.198908 1.614304 -0.065232 0
M  V30 12 C -0.613594 2.720430 -0.768375 0
M  V30 13 N -0.866310 4.064190 -0.411737 0
M  V30 14 C -0.871909 4.714896 0.842546 0
M  V30 15 C -0.607008 6.061096 0.964367 0
M  V30 16 C -0.625512 6.703565 2.174451 0
M  V30 17 C -0.910897 6.043138 3.349215 0
M  V30 18 C -1.182759 4.697215 3.278325 0
M  V30 19 C -1.154145 4.080215 2.029215 0
M  V30 20 N -0.774384 2.251394 -2.016882 0
M  V30 21 N -0.481656 0.967410 -2.064264 0
M  V30 22 C 0.628182 -1.073978 0.846834 0
M  V30 23 C 1.016977 -2.321461 1.293147 0
M  V30 24 C 0.808386 -5.837986 0.511138 0
M  V30 25 O -0.296897 -5.757796 -0.329301 0
M  V30 26 C 1.280838 -7.039172 1.034931 0
M  V30 27 H 3.012025 -8.382533 3.390321 0
M  V30 28 H 3.881319 -5.926869 2.829924 0
M  V30 29 H 3.123137 -3.759639 1.956070 0
M  V30 30 H 0.783390 -3.987802 -1.627352 0
M  V30 31 H 0.073087 -1.709504 -2.443741 0
M  V30 32 H 0.042779 1.597534 0.984567 0
M  V30 33 H -1.099889 4.741034 -1.200872 0
M  V30 34 H -0.373237 6.662377 0.102729 0
M  V30 35 H -0.413864 7.778306 2.269946 0
M  V30 36 H -0.926389 6.546284 4.305977 0
M  V30 37 H -1.407428 4.173993 4.195735 0
M  V30 38 H -1.393556 3.032529 2.090135 0
M  V30 39 H -0.543396 0.415059 -2.947357 0
M  V30 40 H 0.598705 -0.282069 1.579748 0
M  V30 41 H 1.279496 -2.497157 2.327234 0
M  V30 42 H -1.159511 -5.405400 0.066285 0
M  V30 43 H 0.757033 -7.971146 0.772518 0
M  V30 END ATOM
M  V30 BEGIN BOND
M  V30 1 1 1 2
M  V30 2 2 2 3
M  V30 3 1 3 4
M  V30 4 2 4 5
M  V30 5 1 5 6
M  V30 6 2 6 7
M  V30 7 1 7 8
M  V30 8 2 8 9
M  V30 9 1 9 10
M  V30 10 2 10 11
M  V30 11 1 11 12
M  V30 12 1 12 13
M  V30 13 1 13 14
M  V30 14 2 14 15
M  V30 15 1 15 16
M  V30 16 2 16 17
M  V30 17 1 17 18
M  V30 18 2 18 19
M  V30 19 2 12 20
M  V30 20 1 20 21
M  V30 21 1 9 22
M  V30 22 2 22 23
M  V30 23 1 5 24
M  V30 24 1 24 25
M  V30 25 2 24 26
M  V30 26 1 26 2
M  V30 27 1 23 6
M  V30 28 1 21 10
M  V30 29 1 19 14
M  V30 30 1 1 27
M  V30 31 1 3 28
M  V30 32 1 4 29
M  V30 33 1 7 30
M  V30 34 1 8 31
M  V30 35 1 11 32
M  V30 36 1 13 33
M  V30 37 1 15 34
M  V30 38 1 16 35
M  V30 39 1 17 36
M  V30 40 1 18 37
M  V30 41 1 19 38
M  V30 42 1 21 39
M  V30 43 1 22 40
M  V30 44 1 23 41
M  V30 45 1 25 42
M  V30 46 1 26 43
M  V30 END BOND
M  V30 END CTAB
M  END
>  <Dataset>  (57) 
ChEMBL_Kinases

>  <Ligand_Instance>  (57) 
nan

>  <PDB_ID>  (57) 
nan

>  <Standardized_SMILES>  (57) 
Oc1ccc(-c2ccc(-c3cc(Nc4ccccc4)n[nH]3)cc2)c(O)c1

>  <Name>  (57) 
nan

>  <Pocket>  (57) 
nan

>  <ATP_Site>  (57) 
nan

>  <Peripheral>  (57) 
nan

>  <Num_H_Atoms_ProtBoundConf>  (57) 
nan

>  <Num_Resolved_Atoms>  (57) 
nan

>  <Num_Not_Resolved_Atoms>  (57) 
nan

$$$$
CHEMBL241231
     RDKit          3D

  0  0  0  0  0  0  0  0  0  0999 V3000
M  V30 BEGIN CTAB
M  V30 COUNTS 58 62 0 0 0
M  V30 BEGIN ATOM
M  V30 1 O 9.730665 -3.463015 4.941566 0
M  V30 2 C 8.679668 -2.983464 4.176829 0
M  V30 3 C 8.625887 -1.645349 3.848796 0
M  V30 4 C 7.576783 -1.171225 3.086803 0
M  V30 5 C 6.570165 -2.011623 2.640653 0
M  V30 6 C 5.426411 -1.600844 1.832607 0
M  V30 7 C 4.729773 -0.445717 2.163707 0
M  V30 8 C 3.643041 -0.013955 1.429248 0
M  V30 9 C 3.221624 -0.736632 0.331896 0
M  V30 10 C 2.113389 -0.458578 -0.574856 0
M  V30 11 C 1.369253 0.686085 -0.328268 0
M  V30 12 C 0.395987 0.731876 -1.309952 0
M  V30 13 N -0.704873 1.488617 -1.792003 0
M  V30 14 C -2.007008 1.223130 -1.303255 0
M  V30 15 C -2.234527 0.292102 -0.313654 0
M  V30 16 C -3.511845 0.049428 0.141816 0
M  V30 17 C -4.602944 0.747432 -0.395730 0
M  V30 18 C -5.966062 0.425553 0.158964 0
M  V30 19 N -6.554471 -0.665360 -0.554483 0
M  V30 20 C -6.770102 -0.477198 -1.943140 0
M  V30 21 C -8.070287 0.252749 -2.059841 0
M  V30 22 C -8.846831 -0.302145 -0.891122 0
M  V30 23 C -7.845926 -0.962441 0.008693 0
M  V30 24 C -4.393763 1.683950 -1.387424 0
M  V30 25 C -3.095247 1.921144 -1.841130 0
M  V30 26 N 0.586181 -0.368222 -2.097545 0
M  V30 27 N 1.610714 -1.074950 -1.656276 0
M  V30 28 C 3.906081 -1.905742 -0.024212 0
M  V30 29 C 4.988290 -2.307070 0.733219 0
M  V30 30 C 6.605563 -3.357190 2.959013 0
M  V30 31 O 5.678693 -4.332826 2.591978 0
M  V30 32 C 7.668216 -3.843869 3.731868 0
M  V30 33 H 9.582670 -4.355822 5.413183 0
M  V30 34 H 9.402708 -0.977549 4.189302 0
M  V30 35 H 7.480293 -0.132158 2.797874 0
M  V30 36 H 4.989863 0.183223 3.009251 0
M  V30 37 H 3.049714 0.873156 1.623444 0
M  V30 38 H 1.306381 1.519905 0.354541 0
M  V30 39 H -0.537133 2.221459 -2.491387 0
M  V30 40 H -1.439204 -0.267124 0.129964 0
M  V30 41 H -3.662141 -0.696288 0.928661 0
M  V30 42 H -5.812252 0.094519 1.204148 0
M  V30 43 H -6.612445 1.327111 0.192738 0
M  V30 44 H -6.848117 -1.477861 -2.419726 0
M  V30 45 H -5.935896 0.029410 -2.471388 0
M  V30 46 H -7.950144 1.362296 -2.018594 0
M  V30 47 H -8.559561 -0.030044 -3.038943 0
M  V30 48 H -9.529276 -1.102264 -1.297699 0
M  V30 49 H -9.427172 0.514150 -0.414033 0
M  V30 50 H -7.887502 -0.548704 1.058164 0
M  V30 51 H -7.969597 -2.066099 0.024330 0
M  V30 52 H -5.250008 2.220499 -1.796821 0
M  V30 53 H -2.903721 2.649061 -2.618946 0
M  V30 54 H 2.064442 -1.958559 -1.972189 0
M  V30 55 H 3.678542 -2.565491 -0.862139 0
M  V30 56 H 5.552277 -3.211165 0.495110 0
M  V30 57 H 4.676826 -4.122340 2.541677 0
M  V30 58 H 7.762567 -4.895822 4.021980 0
M  V30 END ATOM
M  V30 BEGIN BOND
M  V30 1 1 1 2
M  V30 2 2 2 3
M  V30 3 1 3 4
M  V30 4 2 4 5
M  V30 5 1 5 6
M  V30 6 2 6 7
M  V30 7 1 7 8
M  V30 8 2 8 9
M  V30 9 1 9 10
M  V30 10 2 10 11
M  V30 11 1 11 12
M  V30 12 1 12 13
M  V30 13 1 13 14
M  V30 14 2 14 15
M  V30 15 1 15 16
M  V30 16 2 16 17
M  V30 17 1 17 18
M  V30 18 1 18 19
M  V30 19 1 19 20
M  V30 20 1 20 21
M  V30 21 1 21 22
M  V30 22 1 22 23
M  V30 23 1 17 24
M  V30 24 2 24 25
M  V30 25 2 12 26
M  V30 26 1 26 27
M  V30 27 1 9 28
M  V30 28 2 28 29
M  V30 29 1 5 30
M  V30 30 1 30 31
M  V30 31 2 30 32
M  V30 32 1 32 2
M  V30 33 1 29 6
M  V30 34 1 27 10
M  V30 35 1 25 14
M  V30 36 1 23 19
M  V30 37 1 1 33
M  V30 38 1 3 34
M  V30 39 1 4 35
M  V30 40 1 7 36
M  V30 41 1 8 37
M  V30 42 1 11 38
M  V30 43 1 13 39
M  V30 44 1 15 40
M  V30 45 1 16 41
M  V30 46 1 18 42
M  V30 47 1 18 43
M  V30 48 1 20 44
M  V30 49 1 20 45
M  V30 50 1 21 46
M  V30 51 1 21 47
M  V30 52 1 22 48
M  V30 53 1 22 49
M  V30 54 1 23 50
M  V30 55 1 23 51
M  V30 56 1 24 52
M  V30 57 1 25 53
M  V30 58 1 27 54
M  V30 59 1 28 55
M  V30 60 1 29 56
M  V30 61 1 31 57
M  V30 62 1 32 58
M  V30 END BOND
M  V30 END CTAB
M  END
>  <Dataset>  (58) 
ChEMBL_Kinases

>  <Ligand_Instance>  (58) 
nan

>  <PDB_ID>  (58) 
nan

>  <Standardized_SMILES>  (58) 
Oc1ccc(-c2ccc(-c3cc(Nc4ccc(CN5CCCC5)cc4)n[nH]3)cc2)c(O)c1

>  <Name>  (58) 
nan

>  <Pocket>  (58) 
nan

>  <ATP_Site>  (58) 
nan

>  <Peripheral>  (58) 
nan

>  <Num_H_Atoms_ProtBoundConf>  (58) 
nan

>  <Num_Resolved_Atoms>  (58) 
nan

>  <Num_Not_Resolved_Atoms>  (58) 
nan

$$$$
CHEMBL241232
     RDKit          3D

  0  0  0  0  0  0  0  0  0  0999 V3000
M  V30 BEGIN CTAB
M  V30 COUNTS 55 59 0 0 0
M  V30 BEGIN ATOM
M  V30 1 O 0.729058 -9.100172 5.497474 0
M  V30 2 C 0.598936 -8.188122 4.442674 0
M  V30 3 C 0.527888 -8.631688 3.124720 0
M  V30 4 C 0.400325 -7.664695 2.148994 0
M  V30 5 C 0.341579 -6.312412 2.416317 0
M  V30 6 C 0.202513 -5.263340 1.415553 0
M  V30 7 C 0.969279 -4.113925 1.506762 0
M  V30 8 C 0.878890 -3.095730 0.588731 0
M  V30 9 C -0.003511 -3.194075 -0.479366 0
M  V30 10 C -0.128150 -2.128615 -1.473903 0
M  V30 11 C 0.537572 -0.923606 -1.516085 0
M  V30 12 C 0.131018 -0.182304 -2.633296 0
M  V30 13 N 0.732477 1.094980 -2.811058 0
M  V30 14 C 0.264943 2.372532 -2.395473 0
M  V30 15 C -0.985799 2.550686 -1.847753 0
M  V30 16 C -1.434139 3.791862 -1.443095 0
M  V30 17 C -0.613735 4.888003 -1.587558 0
M  V30 18 C -0.911304 6.310336 -1.216868 0
M  V30 19 N -0.480767 6.504058 0.166818 0
M  V30 20 C -1.216635 5.661988 1.071015 0
M  V30 21 C -0.913344 5.637371 2.511443 0
M  V30 22 C -0.604920 4.451023 1.610141 0
M  V30 23 C 0.651966 4.676252 -2.147220 0
M  V30 24 C 1.128891 3.432560 -2.564432 0
M  V30 25 N -0.776099 -0.972391 -3.234794 0
M  V30 26 N -0.932731 -2.093069 -2.577075 0
M  V30 27 C -0.776236 -4.331994 -0.587448 0
M  V30 28 C -0.680964 -5.349256 0.336515 0
M  V30 29 C 0.416924 -5.934446 3.740988 0
M  V30 30 O 0.368623 -4.605583 4.124778 0
M  V30 31 C 0.546062 -6.839305 4.785611 0
M  V30 32 H 1.268286 -8.871812 6.324191 0
M  V30 33 H 0.571462 -9.686483 2.890142 0
M  V30 34 H 0.340248 -7.978241 1.112314 0
M  V30 35 H 1.690420 -3.946269 2.310113 0
M  V30 36 H 1.475864 -2.202864 0.659807 0
M  V30 37 H 1.259254 -0.688942 -0.732959 0
M  V30 38 H 1.627374 0.954751 -3.324670 0
M  V30 39 H -1.666696 1.698010 -1.718435 0
M  V30 40 H -2.391661 3.993758 -1.014282 0
M  V30 41 H -1.999069 6.500158 -1.301953 0
M  V30 42 H -0.335472 6.993615 -1.840389 0
M  V30 43 H 0.551460 6.328993 0.243602 0
M  V30 44 H -2.305004 5.574496 0.769936 0
M  V30 45 H -1.771966 5.554212 3.202641 0
M  V30 46 H -0.037096 6.136894 2.938330 0
M  V30 47 H 0.461171 4.200099 1.410337 0
M  V30 48 H -1.221274 3.539287 1.838728 0
M  V30 49 H 1.352243 5.516104 -2.286992 0
M  V30 50 H 2.122303 3.359101 -2.988156 0
M  V30 51 H -1.587354 -2.856446 -2.860982 0
M  V30 52 H -1.486651 -4.484298 -1.390182 0
M  V30 53 H -1.263887 -6.269976 0.304689 0
M  V30 54 H -0.283829 -4.197226 4.761926 0
M  V30 55 H 0.606345 -6.554782 5.826380 0
M  V30 END ATOM
M  V30 BEGIN BOND
M  V30 1 1 1 2
M  V30 2 2 2 3
M  V30 3 1 3 4
M  V30 4 2 4 5
M  V30 5 1 5 6
M  V30 6 2 6 7
M  V30 7 1 7 8
M  V30 8 2 8 9
M  V30 9 1 9 10
M  V30 10 2 10 11
M  V30 11 1 11 12
M  V30 12 1 12 13
M  V30 13 1 13 14
M  V30 14 2 14 15
M  V30 15 1 15 16
M  V30 16 2 16 17
M  V30 17 1 17 18
M  V30 18 1 18 19
M  V30 19 1 19 20
M  V30 20 1 20 21
M  V30 21 1 21 22
M  V30 22 1 17 23
M  V30 23 2 23 24
M  V30 24 2 12 25
M  V30 25 1 25 26
M  V30 26 1 9 27
M  V30 27 2 27 28
M  V30 28 1 5 29
M  V30 29 1 29 30
M  V30 30 2 29 31
M  V30 31 1 31 2
M  V30 32 1 28 6
M  V30 33 1 26 10
M  V30 34 1 24 14
M  V30 35 1 22 20
M  V30 36 1 1 32
M  V30 37 1 3 33
M  V30 38 1 4 34
M  V30 39 1 7 35
M  V30 40 1 8 36
M  V30 41 1 11 37
M  V30 42 1 13 38
M  V30 43 1 15 39
M  V30 44 1 16 40
M  V30 45 1 18 41
M  V30 46 1 18 42
M  V30 47 1 19 43
M  V30 48 1 20 44
M  V30 49 1 21 45
M  V30 50 1 21 46
M  V30 51 1 22 47
M  V30 52 1 22 48
M  V30 53 1 23 49
M  V30 54 1 24 50
M  V30 55 1 26 51
M  V30 56 1 27 52
M  V30 57 1 28 53
M  V30 58 1 30 54
M  V30 59 1 31 55
M  V30 END BOND
M  V30 END CTAB
M  END
>  <Dataset>  (59) 
ChEMBL_Kinases

>  <Ligand_Instance>  (59) 
nan

>  <PDB_ID>  (59) 
nan

>  <Standardized_SMILES>  (59) 
Oc1ccc(-c2ccc(-c3cc(Nc4ccc(CNC5CC5)cc4)n[nH]3)cc2)c(O)c1

>  <Name>  (59) 
nan

>  <Pocket>  (59) 
nan

>  <ATP_Site>  (59) 
nan

>  <Peripheral>  (59) 
nan

>  <Num_H_Atoms_ProtBoundConf>  (59) 
nan

>  <Num_Resolved_Atoms>  (59) 
nan

>  <Num_Not_Resolved_Atoms>  (59) 
nan

$$$$
CHEMBL240954
     RDKit          3D

  0  0  0  0  0  0  0  0  0  0999 V3000
M  V30 BEGIN CTAB
M  V30 COUNTS 61 64 0 0 0
M  V30 BEGIN ATOM
M  V30 1 C 5.354761 -1.827312 3.120663 0
M  V30 2 C 4.282036 -1.359104 2.196014 0
M  V30 3 O 4.383770 -1.250285 0.963520 0
M  V30 4 O 3.092212 -1.031429 2.813512 0
M  V30 5 C 1.967528 -0.567122 2.061455 0 CFG=2
M  V30 6 C 1.604895 0.827402 2.498477 0 CFG=1
M  V30 7 O 2.748113 1.653924 2.178093 0
M  V30 8 C 3.361576 2.484460 3.082777 0
M  V30 9 C 4.532659 3.261942 2.533576 0
M  V30 10 O 3.071374 2.673429 4.280632 0
M  V30 11 C 0.443156 1.289621 1.602489 0 CFG=1
M  V30 12 O 0.924440 2.075274 0.570430 0
M  V30 13 C -0.302927 0.089228 1.157711 0 CFG=2
M  V30 14 O -1.494835 0.382972 0.473839 0
M  V30 15 C -1.776506 -0.259023 -0.715964 0
M  V30 16 C -2.603153 -1.358628 -0.767735 0
M  V30 17 C -3.286058 -1.977151 0.352099 0
M  V30 18 C -3.891754 -3.201693 0.181163 0
M  V30 19 C -4.610573 -3.853472 1.189079 0
M  V30 20 C -4.746838 -3.273859 2.439926 0
M  V30 21 O -5.463143 -3.937237 3.416062 0
M  V30 22 C -4.157607 -2.049570 2.651896 0
M  V30 23 C -3.468470 -1.472558 1.613470 0
M  V30 24 O -2.821752 -1.928442 -1.923107 0
M  V30 25 C -2.328588 -1.559231 -3.077252 0
M  V30 26 C -2.621231 -2.223877 -4.251573 0
M  V30 27 C -2.027243 -1.712775 -5.383579 0
M  V30 28 O -2.281654 -2.342998 -6.612690 0
M  V30 29 C -1.184021 -0.625198 -5.478828 0
M  V30 30 C -0.934057 -0.002786 -4.242277 0
M  V30 31 O -0.090584 1.102768 -4.258409 0
M  V30 32 C -1.497260 -0.466798 -3.082401 0
M  V30 33 C -1.212276 0.192029 -1.920983 0
M  V30 34 O -0.456505 1.178239 -1.951719 0
M  V30 35 O -0.412840 -0.841179 2.189876 0
M  V30 36 C 0.813927 -1.487902 2.402166 0 CFG=1
M  V30 37 C 0.818244 -2.672402 1.461990 0
M  V30 38 H 5.215763 -1.365367 4.118702 0
M  V30 39 H 6.378660 -1.566725 2.754527 0
M  V30 40 H 5.294711 -2.933906 3.170536 0
M  V30 41 H 2.233233 -0.539628 1.004964 0
M  V30 42 H 1.328312 0.930398 3.543058 0
M  V30 43 H 4.245059 4.213783 2.093354 0
M  V30 44 H 5.269086 3.381212 3.384528 0
M  V30 45 H 5.053312 2.578848 1.833489 0
M  V30 46 H -0.216591 1.917965 2.275001 0
M  V30 47 H 1.589158 2.720665 0.923409 0
M  V30 48 H 0.325640 -0.457224 0.392506 0
M  V30 49 H -3.842911 -3.738739 -0.769617 0
M  V30 50 H -5.061753 -4.808601 0.996663 0
M  V30 51 H -5.121638 -4.672883 4.018788 0
M  V30 52 H -4.243230 -1.573036 3.616497 0
M  V30 53 H -3.050718 -0.513178 1.836305 0
M  V30 54 H -3.271909 -3.082804 -4.271086 0
M  V30 55 H -2.913993 -3.119835 -6.659051 0
M  V30 56 H -0.765910 -0.292430 -6.407853 0
M  V30 57 H -0.449726 2.048143 -4.267904 0
M  V30 58 H 0.886919 -1.758154 3.460076 0
M  V30 59 H 1.453252 -2.486621 0.563601 0
M  V30 60 H 1.107762 -3.589932 2.001354 0
M  V30 61 H -0.199120 -2.881824 1.059189 0
M  V30 END ATOM
M  V30 BEGIN BOND
M  V30 1 1 1 2
M  V30 2 2 2 3
M  V30 3 1 2 4
M  V30 4 1 4 5
M  V30 5 1 5 6
M  V30 6 1 6 7
M  V30 7 1 7 8
M  V30 8 1 8 9
M  V30 9 2 8 10
M  V30 10 1 6 11
M  V30 11 1 11 12
M  V30 12 1 11 13
M  V30 13 1 13 14
M  V30 14 1 14 15
M  V30 15 2 15 16
M  V30 16 1 16 17
M  V30 17 2 17 18
M  V30 18 1 18 19
M  V30 19 2 19 20
M  V30 20 1 20 21
M  V30 21 1 20 22
M  V30 22 2 22 23
M  V30 23 1 16 24
M  V30 24 1 24 25
M  V30 25 2 25 26
M  V30 26 1 26 27
M  V30 27 1 27 28
M  V30 28 2 27 29
M  V30 29 1 29 30
M  V30 30 1 30 31
M  V30 31 2 30 32
M  V30 32 1 32 33
M  V30 33 2 33 34
M  V30 34 1 13 35
M  V30 35 1 35 36
M  V30 36 1 36 37
M  V30 37 1 36 5
M  V30 38 1 33 15
M  V30 39 1 23 17
M  V30 40 1 32 25
M  V30 41 1 1 38
M  V30 42 1 1 39
M  V30 43 1 1 40
M  V30 44 1 5 41 CFG=3
M  V30 45 1 6 42 CFG=1
M  V30 46 1 9 43
M  V30 47 1 9 44
M  V30 48 1 9 45
M  V30 49 1 11 46 CFG=1
M  V30 50 1 12 47
M  V30 51 1 13 48 CFG=3
M  V30 52 1 18 49
M  V30 53 1 19 50
M  V30 54 1 21 51
M  V30 55 1 22 52
M  V30 56 1 23 53
M  V30 57 1 26 54
M  V30 58 1 28 55
M  V30 59 1 29 56
M  V30 60 1 31 57
M  V30 61 1 36 58 CFG=1
M  V30 62 1 37 59
M  V30 63 1 37 60
M  V30 64 1 37 61
M  V30 END BOND
M  V30 END CTAB
M  END
>  <Dataset>  (60) 
ChEMBL_Kinases

>  <Ligand_Instance>  (60) 
nan

>  <PDB_ID>  (60) 
nan

>  <Standardized_SMILES>  (60) 
CC(=O)O[C@@H]1[C@@H](OC(C)=O)[C@@H](O)[C@H](Oc2c(-c3ccc(O)cc3)oc3cc(O)cc(O)c3c2=O)O[C@H]1C

>  <Name>  (60) 
nan

>  <Pocket>  (60) 
nan

>  <ATP_Site>  (60) 
nan

>  <Peripheral>  (60) 
nan

>  <Num_H_Atoms_ProtBoundConf>  (60) 
nan

>  <Num_Resolved_Atoms>  (60) 
nan

>  <Num_Not_Resolved_Atoms>  (60) 
nan

$$$$
CHEMBL2403063
     RDKit          3D

  0  0  0  0  0  0  0  0  0  0999 V3000
M  V30 BEGIN CTAB
M  V30 COUNTS 56 59 0 0 0
M  V30 BEGIN ATOM
M  V30 1 C -1.242428 -0.525049 1.794410 0
M  V30 2 O -1.230659 -1.665970 0.977337 0
M  V30 3 C -0.174200 -2.055460 0.186593 0
M  V30 4 C 0.968167 -1.287139 0.175347 0
M  V30 5 C 2.063063 -1.608778 -0.587537 0
M  V30 6 N 3.260236 -0.851352 -0.637858 0
M  V30 7 C 3.535361 0.365630 0.034717 0
M  V30 8 N 4.736507 0.948691 -0.106969 0
M  V30 9 C 5.101423 2.090069 0.474580 0
M  V30 10 C 4.229225 2.756830 1.283171 0
M  V30 11 Cl 4.574874 4.261205 2.107895 0
M  V30 12 C 2.982113 2.201918 1.463040 0
M  V30 13 C 1.912108 2.763010 2.287841 0
M  V30 14 C 2.183954 3.253652 3.568364 0
M  V30 15 C 1.188259 3.788411 4.360690 0
M  V30 16 C -0.128822 3.850585 3.891849 0
M  V30 17 C -0.359144 3.357684 2.624927 0
M  V30 18 C -1.748138 3.445153 2.180149 0
M  V30 19 O -2.624337 3.940648 2.937651 0
M  V30 20 O -2.275521 3.035369 0.965600 0
M  V30 21 C 0.603989 2.819487 1.809551 0
M  V30 22 N 2.732774 1.053728 0.827365 0
M  V30 23 C 1.934832 -2.754284 -1.339295 0
M  V30 24 C 0.790046 -3.522924 -1.326485 0
M  V30 25 C -0.293256 -3.200907 -0.568896 0
M  V30 26 N -1.430601 -4.058810 -0.597294 0
M  V30 27 C -1.539315 -5.129571 -1.602517 0
M  V30 28 C -3.032762 -5.263958 -1.948389 0
M  V30 29 N -3.604621 -3.957502 -1.852156 0
M  V30 30 C -3.109096 -3.014810 -2.799316 0
M  V30 31 C -3.752228 -3.466444 -0.520330 0
M  V30 32 C -2.588436 -4.073060 0.272589 0
M  V30 33 H -0.299269 -0.508379 2.401568 0
M  V30 34 H -1.418765 0.411431 1.264711 0
M  V30 35 H -2.084692 -0.643053 2.529964 0
M  V30 36 H 0.965659 -0.425004 0.789845 0
M  V30 37 H 4.043900 -1.227984 -1.243169 0
M  V30 38 H 6.078679 2.526536 0.333122 0
M  V30 39 H 3.186609 3.229085 3.979472 0
M  V30 40 H 1.449438 4.159018 5.350656 0
M  V30 41 H -0.884017 4.275123 4.539721 0
M  V30 42 H -3.088830 2.424675 0.899051 0
M  V30 43 H 0.402310 2.444302 0.834568 0
M  V30 44 H 2.797265 -3.031593 -1.959395 0
M  V30 45 H 0.880851 -4.395891 -1.985228 0
M  V30 46 H -1.166144 -6.085196 -1.178000 0
M  V30 47 H -0.955033 -4.917615 -2.501677 0
M  V30 48 H -3.078434 -5.569184 -2.999691 0
M  V30 49 H -3.515074 -5.985921 -1.269833 0
M  V30 50 H -2.175699 -3.457364 -3.256065 0
M  V30 51 H -2.740720 -2.127898 -2.251959 0
M  V30 52 H -3.781644 -2.720092 -3.603832 0
M  V30 53 H -4.710977 -3.626135 -0.037519 0
M  V30 54 H -3.556372 -2.376012 -0.533804 0
M  V30 55 H -2.474127 -3.536265 1.215420 0
M  V30 56 H -2.914774 -5.138501 0.468294 0
M  V30 END ATOM
M  V30 BEGIN BOND
M  V30 1 1 1 2
M  V30 2 1 2 3
M  V30 3 2 3 4
M  V30 4 1 4 5
M  V30 5 1 5 6
M  V30 6 1 6 7
M  V30 7 2 7 8
M  V30 8 1 8 9
M  V30 9 2 9 10
M  V30 10 1 10 11
M  V30 11 1 10 12
M  V30 12 1 12 13
M  V30 13 2 13 14
M  V30 14 1 14 15
M  V30 15 2 15 16
M  V30 16 1 16 17
M  V30 17 1 17 18
M  V30 18 2 18 19
M  V30 19 1 18 20
M  V30 20 2 17 21
M  V30 21 2 12 22
M  V30 22 2 5 23
M  V30 23 1 23 24
M  V30 24 2 24 25
M  V30 25 1 25 26
M  V30 26 1 26 27
M  V30 27 1 27 28
M  V30 28 1 28 29
M  V30 29 1 29 30
M  V30 30 1 29 31
M  V30 31 1 31 32
M  V30 32 1 25 3
M  V30 33 1 32 26
M  V30 34 1 22 7
M  V30 35 1 21 13
M  V30 36 1 1 33
M  V30 37 1 1 34
M  V30 38 1 1 35
M  V30 39 1 4 36
M  V30 40 1 6 37
M  V30 41 1 9 38
M  V30 42 1 14 39
M  V30 43 1 15 40
M  V30 44 1 16 41
M  V30 45 1 20 42
M  V30 46 1 21 43
M  V30 47 1 23 44
M  V30 48 1 24 45
M  V30 49 1 27 46
M  V30 50 1 27 47
M  V30 51 1 28 48
M  V30 52 1 28 49
M  V30 53 1 30 50
M  V30 54 1 30 51
M  V30 55 1 30 52
M  V30 56 1 31 53
M  V30 57 1 31 54
M  V30 58 1 32 55
M  V30 59 1 32 56
M  V30 END BOND
M  V30 END CTAB
M  END
>  <Dataset>  (61) 
ChEMBL_Kinases

>  <Ligand_Instance>  (61) 
nan

>  <PDB_ID>  (61) 
nan

>  <Standardized_SMILES>  (61) 
COc1cc(Nc2ncc(Cl)c(-c3cccc(C(=O)O)c3)n2)ccc1N1CCN(C)CC1

>  <Name>  (61) 
nan

>  <Pocket>  (61) 
nan

>  <ATP_Site>  (61) 
nan

>  <Peripheral>  (61) 
nan

>  <Num_H_Atoms_ProtBoundConf>  (61) 
nan

>  <Num_Resolved_Atoms>  (61) 
nan

>  <Num_Not_Resolved_Atoms>  (61) 
nan

$$$$
CHEMBL2403062
     RDKit          3D

  0  0  0  0  0  0  0  0  0  0999 V3000
M  V30 BEGIN CTAB
M  V30 COUNTS 62 65 0 0 0
M  V30 BEGIN ATOM
M  V30 1 C 5.293390 -1.395114 5.501972 0
M  V30 2 C 4.357847 -0.239525 5.104766 0
M  V30 3 O 4.246213 -0.301350 3.708556 0
M  V30 4 C 3.410586 0.523044 2.968537 0
M  V30 5 O 2.853095 1.235488 3.869742 0
M  V30 6 C 3.191542 0.588677 1.518549 0
M  V30 7 C 3.887981 -0.142522 0.584164 0
M  V30 8 C 3.544434 0.041404 -0.760505 0
M  V30 9 C 2.544556 0.922956 -1.157795 0
M  V30 10 C 1.882013 1.626115 -0.163039 0
M  V30 11 C 0.831935 2.549707 -0.583859 0
M  V30 12 N -0.284148 2.322877 0.109282 0
M  V30 13 C -1.444185 2.943938 0.016545 0
M  V30 14 N -2.676699 2.674293 0.717992 0
M  V30 15 C -2.819947 1.253829 0.493755 0
M  V30 16 C -3.860613 0.695591 -0.237351 0
M  V30 17 C -3.940824 -0.689207 -0.420819 0
M  V30 18 C -2.977719 -1.524284 0.129604 0
M  V30 19 N -3.134325 -2.900751 -0.197242 0
M  V30 20 C -4.334075 -3.519727 -0.709517 0
M  V30 21 C -4.076372 -3.770670 -2.203346 0
M  V30 22 N -2.745530 -4.241059 -2.427312 0
M  V30 23 C -1.809233 -3.213690 -2.813286 0
M  V30 24 C -2.255354 -4.918899 -1.265671 0
M  V30 25 C -2.099088 -3.929365 -0.121060 0
M  V30 26 C -1.917198 -0.993636 0.878068 0
M  V30 27 O -1.062543 -1.943866 1.356954 0
M  V30 28 C 0.078618 -1.849744 2.123173 0
M  V30 29 C -1.870241 0.396330 1.037804 0
M  V30 30 N -1.476086 3.948679 -0.919597 0
M  V30 31 C -0.396835 4.238421 -1.657369 0
M  V30 32 C 0.793534 3.553735 -1.519054 0
M  V30 33 Cl 2.315670 3.765855 -2.357752 0
M  V30 34 C 2.189203 1.474446 1.182620 0
M  V30 35 H 6.034497 -1.081197 6.264020 0
M  V30 36 H 5.837126 -1.807756 4.640682 0
M  V30 37 H 4.689472 -2.230773 5.955856 0
M  V30 38 H 3.365787 -0.425397 5.561108 0
M  V30 39 H 4.764774 0.722165 5.489886 0
M  V30 40 H 4.650899 -0.808919 0.938502 0
M  V30 41 H 4.108279 -0.550464 -1.479725 0
M  V30 42 H 2.300707 1.040680 -2.205681 0
M  V30 43 H -3.270633 3.356371 1.239509 0
M  V30 44 H -4.575382 1.384740 -0.635159 0
M  V30 45 H -4.784282 -0.974105 -0.994833 0
M  V30 46 H -5.242297 -2.920366 -0.651115 0
M  V30 47 H -4.563997 -4.504536 -0.220861 0
M  V30 48 H -4.787084 -4.600787 -2.467656 0
M  V30 49 H -4.310524 -2.876719 -2.765484 0
M  V30 50 H -0.818657 -3.332931 -2.305079 0
M  V30 51 H -2.169251 -2.184408 -2.601313 0
M  V30 52 H -1.543392 -3.236331 -3.904364 0
M  V30 53 H -2.829440 -5.817960 -0.990757 0
M  V30 54 H -1.212846 -5.315844 -1.469727 0
M  V30 55 H -2.126847 -4.521371 0.804638 0
M  V30 56 H -1.124802 -3.419728 -0.302400 0
M  V30 57 H 0.748204 -2.714684 1.814031 0
M  V30 58 H 0.657548 -0.951482 1.910982 0
M  V30 59 H -0.095752 -2.026802 3.212099 0
M  V30 60 H -1.020558 0.709623 1.625911 0
M  V30 61 H -0.329555 5.015106 -2.430521 0
M  V30 62 H 1.607224 2.069663 1.863646 0
M  V30 END ATOM
M  V30 BEGIN BOND
M  V30 1 1 1 2
M  V30 2 1 2 3
M  V30 3 1 3 4
M  V30 4 2 4 5
M  V30 5 1 4 6
M  V30 6 2 6 7
M  V30 7 1 7 8
M  V30 8 2 8 9
M  V30 9 1 9 10
M  V30 10 1 10 11
M  V30 11 2 11 12
M  V30 12 1 12 13
M  V30 13 1 13 14
M  V30 14 1 14 15
M  V30 15 2 15 16
M  V30 16 1 16 17
M  V30 17 2 17 18
M  V30 18 1 18 19
M  V30 19 1 19 20
M  V30 20 1 20 21
M  V30 21 1 21 22
M  V30 22 1 22 23
M  V30 23 1 22 24
M  V30 24 1 24 25
M  V30 25 1 18 26
M  V30 26 1 26 27
M  V30 27 1 27 28
M  V30 28 2 26 29
M  V30 29 2 13 30
M  V30 30 1 30 31
M  V30 31 2 31 32
M  V30 32 1 32 33
M  V30 33 2 10 34
M  V30 34 1 34 6
M  V30 35 1 32 11
M  V30 36 1 29 15
M  V30 37 1 25 19
M  V30 38 1 1 35
M  V30 39 1 1 36
M  V30 40 1 1 37
M  V30 41 1 2 38
M  V30 42 1 2 39
M  V30 43 1 7 40
M  V30 44 1 8 41
M  V30 45 1 9 42
M  V30 46 1 14 43
M  V30 47 1 16 44
M  V30 48 1 17 45
M  V30 49 1 20 46
M  V30 50 1 20 47
M  V30 51 1 21 48
M  V30 52 1 21 49
M  V30 53 1 23 50
M  V30 54 1 23 51
M  V30 55 1 23 52
M  V30 56 1 24 53
M  V30 57 1 24 54
M  V30 58 1 25 55
M  V30 59 1 25 56
M  V30 60 1 28 57
M  V30 61 1 28 58
M  V30 62 1 28 59
M  V30 63 1 29 60
M  V30 64 1 31 61
M  V30 65 1 34 62
M  V30 END BOND
M  V30 END CTAB
M  END
>  <Dataset>  (62) 
ChEMBL_Kinases

>  <Ligand_Instance>  (62) 
nan

>  <PDB_ID>  (62) 
nan

>  <Standardized_SMILES>  (62) 
CCOC(=O)c1cccc(-c2nc(Nc3ccc(N4CCN(C)CC4)c(OC)c3)ncc2Cl)c1

>  <Name>  (62) 
nan

>  <Pocket>  (62) 
nan

>  <ATP_Site>  (62) 
nan

>  <Peripheral>  (62) 
nan

>  <Num_H_Atoms_ProtBoundConf>  (62) 
nan

>  <Num_Resolved_Atoms>  (62) 
nan

>  <Num_Not_Resolved_Atoms>  (62) 
nan

$$$$
CHEMBL2403061
     RDKit          3D

  0  0  0  0  0  0  0  0  0  0999 V3000
M  V30 BEGIN CTAB
M  V30 COUNTS 61 64 0 0 0
M  V30 BEGIN ATOM
M  V30 1 C -0.437727 -5.214574 3.804094 0
M  V30 2 O -0.676182 -5.064757 2.421962 0
M  V30 3 C 0.025350 -4.202071 1.604091 0
M  V30 4 C 1.013664 -3.454183 2.199621 0
M  V30 5 C 1.742810 -2.579948 1.428891 0
M  V30 6 N 2.783972 -1.790114 2.008758 0
M  V30 7 C 3.477300 -0.863311 1.184200 0
M  V30 8 N 4.552709 -1.104723 0.398560 0
M  V30 9 C 5.088699 -0.111527 -0.313507 0
M  V30 10 C 4.512579 1.140169 -0.215451 0
M  V30 11 Cl 5.251791 2.403069 -1.175940 0
M  V30 12 C 3.415697 1.433110 0.572831 0
M  V30 13 C 2.822615 2.754089 0.666921 0
M  V30 14 C 3.693617 3.790248 0.827205 0
M  V30 15 C 3.264930 5.096904 0.930823 0
M  V30 16 C 1.927937 5.429500 0.877817 0
M  V30 17 C 1.030324 4.374711 0.713860 0
M  V30 18 C -0.426197 4.493836 0.635940 0
M  V30 19 O -1.306892 3.613363 0.473641 0
M  V30 20 N -1.064939 5.781483 0.751834 0
M  V30 21 C -2.516984 5.601397 0.638918 0
M  V30 22 C -3.230444 6.870765 0.749651 0
M  V30 23 N -3.799986 7.890889 0.832535 0
M  V30 24 C 1.468966 3.063506 0.610417 0
M  V30 25 N 2.926076 0.371461 1.267290 0
M  V30 26 C 1.424415 -2.512397 0.083279 0
M  V30 27 C 0.427187 -3.275824 -0.483099 0
M  V30 28 C -0.311941 -4.155840 0.271837 0
M  V30 29 N -1.329466 -4.891275 -0.391714 0
M  V30 30 C -1.502017 -4.905474 -1.833815 0
M  V30 31 C -2.922600 -4.562067 -2.204425 0
M  V30 32 N -3.647592 -4.021154 -1.087636 0
M  V30 33 C -5.012154 -3.728430 -1.504486 0
M  V30 34 C -3.740304 -5.067219 -0.063658 0
M  V30 35 C -2.386890 -5.731930 0.119866 0
M  V30 36 H 0.534242 -5.656518 4.050943 0
M  V30 37 H -1.235041 -5.880325 4.214794 0
M  V30 38 H -0.525409 -4.232768 4.343931 0
M  V30 39 H 1.216657 -3.548507 3.252079 0
M  V30 40 H 3.002020 -1.916412 3.015379 0
M  V30 41 H 5.941697 -0.292684 -0.939655 0
M  V30 42 H 4.784824 3.775692 0.899570 0
M  V30 43 H 3.889892 5.994030 1.061202 0
M  V30 44 H 1.508305 6.403951 0.948027 0
M  V30 45 H -0.505147 6.665181 0.894016 0
M  V30 46 H -2.869222 4.934904 1.459579 0
M  V30 47 H -2.773188 5.185114 -0.368507 0
M  V30 48 H 0.811355 2.210199 0.482421 0
M  V30 49 H 2.049481 -1.793389 -0.459937 0
M  V30 50 H 0.363180 -3.048594 -1.533582 0
M  V30 51 H -1.376300 -5.992898 -2.145512 0
M  V30 52 H -0.760900 -4.358196 -2.406187 0
M  V30 53 H -3.508381 -5.450005 -2.557910 0
M  V30 54 H -2.891583 -3.865197 -3.071021 0
M  V30 55 H -5.034877 -2.616948 -1.701791 0
M  V30 56 H -5.289565 -4.218864 -2.438784 0
M  V30 57 H -5.730904 -3.862483 -0.668423 0
M  V30 58 H -4.538219 -5.770870 -0.360700 0
M  V30 59 H -4.027308 -4.522182 0.867470 0
M  V30 60 H -2.317111 -6.717796 -0.391607 0
M  V30 61 H -2.284632 -5.956730 1.188520 0
M  V30 END ATOM
M  V30 BEGIN BOND
M  V30 1 1 1 2
M  V30 2 1 2 3
M  V30 3 2 3 4
M  V30 4 1 4 5
M  V30 5 1 5 6
M  V30 6 1 6 7
M  V30 7 2 7 8
M  V30 8 1 8 9
M  V30 9 2 9 10
M  V30 10 1 10 11
M  V30 11 1 10 12
M  V30 12 1 12 13
M  V30 13 2 13 14
M  V30 14 1 14 15
M  V30 15 2 15 16
M  V30 16 1 16 17
M  V30 17 1 17 18
M  V30 18 2 18 19
M  V30 19 1 18 20
M  V30 20 1 20 21
M  V30 21 1 21 22
M  V30 22 3 22 23
M  V30 23 2 17 24
M  V30 24 2 12 25
M  V30 25 2 5 26
M  V30 26 1 26 27
M  V30 27 2 27 28
M  V30 28 1 28 29
M  V30 29 1 29 30
M  V30 30 1 30 31
M  V30 31 1 31 32
M  V30 32 1 32 33
M  V30 33 1 32 34
M  V30 34 1 34 35
M  V30 35 1 28 3
M  V30 36 1 35 29
M  V30 37 1 25 7
M  V30 38 1 24 13
M  V30 39 1 1 36
M  V30 40 1 1 37
M  V30 41 1 1 38
M  V30 42 1 4 39
M  V30 43 1 6 40
M  V30 44 1 9 41
M  V30 45 1 14 42
M  V30 46 1 15 43
M  V30 47 1 16 44
M  V30 48 1 20 45
M  V30 49 1 21 46
M  V30 50 1 21 47
M  V30 51 1 24 48
M  V30 52 1 26 49
M  V30 53 1 27 50
M  V30 54 1 30 51
M  V30 55 1 30 52
M  V30 56 1 31 53
M  V30 57 1 31 54
M  V30 58 1 33 55
M  V30 59 1 33 56
M  V30 60 1 33 57
M  V30 61 1 34 58
M  V30 62 1 34 59
M  V30 63 1 35 60
M  V30 64 1 35 61
M  V30 END BOND
M  V30 END CTAB
M  END
>  <Dataset>  (63) 
ChEMBL_Kinases

>  <Ligand_Instance>  (63) 
nan

>  <PDB_ID>  (63) 
nan

>  <Standardized_SMILES>  (63) 
COc1cc(Nc2ncc(Cl)c(-c3cccc(C(=O)NCC#N)c3)n2)ccc1N1CCN(C)CC1

>  <Name>  (63) 
nan

>  <Pocket>  (63) 
nan

>  <ATP_Site>  (63) 
nan

>  <Peripheral>  (63) 
nan

>  <Num_H_Atoms_ProtBoundConf>  (63) 
nan

>  <Num_Resolved_Atoms>  (63) 
nan

>  <Num_Not_Resolved_Atoms>  (63) 
nan

$$$$
CHEMBL2403060
     RDKit          3D

  0  0  0  0  0  0  0  0  0  0999 V3000
M  V30 BEGIN CTAB
M  V30 COUNTS 63 66 0 0 0
M  V30 BEGIN ATOM
M  V30 1 C 2.911075 -5.659692 0.304328 0
M  V30 2 O 1.852202 -4.958934 -0.302377 0
M  V30 3 C 1.536546 -3.650400 -0.040518 0
M  V30 4 C 2.247153 -2.887086 0.860400 0
M  V30 5 C 1.929982 -1.569856 1.125363 0
M  V30 6 N 2.590290 -0.715001 2.050526 0
M  V30 7 C 2.341449 0.676992 2.124965 0
M  V30 8 N 3.338003 1.403042 1.611663 0
M  V30 9 C 3.303643 2.748919 1.574497 0
M  V30 10 C 2.187339 3.370962 2.091317 0
M  V30 11 Cl 2.139771 5.141630 2.046630 0
M  V30 12 C 1.139970 2.639182 2.628413 0
M  V30 13 C -0.008524 3.382923 3.125159 0
M  V30 14 C -0.032767 4.482325 3.962836 0
M  V30 15 C -1.279524 5.024606 4.266404 0
M  V30 16 C -2.440972 4.493236 3.757712 0
M  V30 17 C -2.430336 3.392735 2.918034 0
M  V30 18 C -3.713999 2.857883 2.390365 0
M  V30 19 C -3.484797 1.660881 1.473142 0
M  V30 20 C -4.394638 3.959679 1.603444 0
M  V30 21 C -4.553174 2.425572 3.498640 0
M  V30 22 N -5.212795 2.085611 4.401125 0
M  V30 23 C -1.183010 2.840693 2.607553 0
M  V30 24 N 1.272418 1.296963 2.618791 0
M  V30 25 C 0.837764 -1.041150 0.425350 0
M  V30 26 C 0.092212 -1.775764 -0.492946 0
M  V30 27 C 0.461417 -3.105633 -0.719616 0
M  V30 28 N -0.311389 -3.824686 -1.684828 0
M  V30 29 C -0.884529 -5.158286 -1.635438 0
M  V30 30 C -0.342956 -5.993734 -2.774388 0
M  V30 31 N -0.126664 -5.257499 -3.992953 0
M  V30 32 C 1.267753 -5.013140 -4.297758 0
M  V30 33 C -0.915609 -4.044728 -4.057977 0
M  V30 34 C -0.613409 -3.102757 -2.930223 0
M  V30 35 H 2.951056 -6.694645 -0.096749 0
M  V30 36 H 3.873902 -5.186318 -0.004795 0
M  V30 37 H 2.803748 -5.695563 1.412212 0
M  V30 38 H 3.093512 -3.298341 1.401375 0
M  V30 39 H 3.295405 -1.093505 2.718116 0
M  V30 40 H 4.099448 3.342265 1.162203 0
M  V30 41 H 0.938921 4.788773 4.281409 0
M  V30 42 H -1.205418 5.884785 4.929610 0
M  V30 43 H -3.340654 4.990839 4.057712 0
M  V30 44 H -2.880613 1.935743 0.588384 0
M  V30 45 H -4.490480 1.328647 1.133221 0
M  V30 46 H -3.006029 0.851021 2.032461 0
M  V30 47 H -3.627728 4.561354 1.071359 0
M  V30 48 H -4.900973 4.618874 2.316460 0
M  V30 49 H -5.057863 3.529352 0.827065 0
M  V30 50 H -1.280770 1.996084 1.952440 0
M  V30 51 H 0.545660 -0.010243 0.594806 0
M  V30 52 H -0.749913 -1.278713 -0.997557 0
M  V30 53 H -1.980834 -5.043032 -1.734665 0
M  V30 54 H -0.681309 -5.689300 -0.680650 0
M  V30 55 H 0.642119 -6.415414 -2.441419 0
M  V30 56 H -1.059143 -6.809247 -2.967969 0
M  V30 57 H 1.514255 -3.986399 -3.916440 0
M  V30 58 H 1.891216 -5.795130 -3.824618 0
M  V30 59 H 1.403295 -5.059336 -5.397862 0
M  V30 60 H -0.678186 -3.541170 -5.011105 0
M  V30 61 H -1.993543 -4.334957 -4.053951 0
M  V30 62 H -1.531290 -2.495704 -2.708386 0
M  V30 63 H 0.236850 -2.458775 -3.160008 0
M  V30 END ATOM
M  V30 BEGIN BOND
M  V30 1 1 1 2
M  V30 2 1 2 3
M  V30 3 2 3 4
M  V30 4 1 4 5
M  V30 5 1 5 6
M  V30 6 1 6 7
M  V30 7 2 7 8
M  V30 8 1 8 9
M  V30 9 2 9 10
M  V30 10 1 10 11
M  V30 11 1 10 12
M  V30 12 1 12 13
M  V30 13 2 13 14
M  V30 14 1 14 15
M  V30 15 2 15 16
M  V30 16 1 16 17
M  V30 17 1 17 18
M  V30 18 1 18 19
M  V30 19 1 18 20
M  V30 20 1 18 21
M  V30 21 3 21 22
M  V30 22 2 17 23
M  V30 23 2 12 24
M  V30 24 2 5 25
M  V30 25 1 25 26
M  V30 26 2 26 27
M  V30 27 1 27 28
M  V30 28 1 28 29
M  V30 29 1 29 30
M  V30 30 1 30 31
M  V30 31 1 31 32
M  V30 32 1 31 33
M  V30 33 1 33 34
M  V30 34 1 27 3
M  V30 35 1 34 28
M  V30 36 1 24 7
M  V30 37 1 23 13
M  V30 38 1 1 35
M  V30 39 1 1 36
M  V30 40 1 1 37
M  V30 41 1 4 38
M  V30 42 1 6 39
M  V30 43 1 9 40
M  V30 44 1 14 41
M  V30 45 1 15 42
M  V30 46 1 16 43
M  V30 47 1 19 44
M  V30 48 1 19 45
M  V30 49 1 19 46
M  V30 50 1 20 47
M  V30 51 1 20 48
M  V30 52 1 20 49
M  V30 53 1 23 50
M  V30 54 1 25 51
M  V30 55 1 26 52
M  V30 56 1 29 53
M  V30 57 1 29 54
M  V30 58 1 30 55
M  V30 59 1 30 56
M  V30 60 1 32 57
M  V30 61 1 32 58
M  V30 62 1 32 59
M  V30 63 1 33 60
M  V30 64 1 33 61
M  V30 65 1 34 62
M  V30 66 1 34 63
M  V30 END BOND
M  V30 END CTAB
M  END
>  <Dataset>  (64) 
ChEMBL_Kinases

>  <Ligand_Instance>  (64) 
nan

>  <PDB_ID>  (64) 
nan

>  <Standardized_SMILES>  (64) 
COc1cc(Nc2ncc(Cl)c(-c3cccc(C(C)(C)C#N)c3)n2)ccc1N1CCN(C)CC1

>  <Name>  (64) 
nan

>  <Pocket>  (64) 
nan

>  <ATP_Site>  (64) 
nan

>  <Peripheral>  (64) 
nan

>  <Num_H_Atoms_ProtBoundConf>  (64) 
nan

>  <Num_Resolved_Atoms>  (64) 
nan

>  <Num_Not_Resolved_Atoms>  (64) 
nan

$$$$
CHEMBL2403059
     RDKit          3D

  0  0  0  0  0  0  0  0  0  0999 V3000
M  V30 BEGIN CTAB
M  V30 COUNTS 58 61 0 0 0
M  V30 BEGIN ATOM
M  V30 1 C 4.120066 0.723125 4.157886 0
M  V30 2 O 5.058373 0.257594 3.218853 0
M  V30 3 C 5.013824 0.469448 1.857071 0
M  V30 4 C 6.065470 -0.104175 1.148317 0
M  V30 5 C 6.118281 0.048157 -0.229859 0
M  V30 6 C 7.176122 -0.518972 -1.015737 0
M  V30 7 N 8.033978 -0.963656 -1.651242 0
M  V30 8 C 5.156937 0.751949 -0.909999 0
M  V30 9 C 4.117859 1.320798 -0.232504 0
M  V30 10 C 2.957083 2.093941 -0.743712 0
M  V30 11 N 1.727158 1.836601 -0.241790 0
M  V30 12 C 0.598885 2.452298 -0.626317 0
M  V30 13 N -0.443337 1.891793 0.165745 0
M  V30 14 C -1.081313 0.630024 0.137521 0
M  V30 15 C -1.941275 0.403720 1.195654 0
M  V30 16 C -2.596471 -0.799352 1.289232 0
M  V30 17 C -2.356290 -1.732299 0.306197 0
M  V30 18 N -3.060887 -2.967482 0.456871 0
M  V30 19 C -4.049712 -3.461200 -0.484780 0
M  V30 20 C -5.419835 -3.291349 0.191675 0
M  V30 21 N -5.238567 -3.376910 1.581826 0
M  V30 22 C -5.879594 -2.462902 2.435399 0
M  V30 23 C -4.267344 -4.253164 2.101691 0
M  V30 24 C -2.896371 -3.920845 1.558715 0
M  V30 25 C -1.499130 -1.509107 -0.753532 0
M  V30 26 O -1.290705 -2.488290 -1.726806 0
M  V30 27 C -0.427332 -2.307312 -2.826383 0
M  V30 28 C -0.824136 -0.284278 -0.860768 0
M  V30 29 N 0.691570 3.389359 -1.574088 0
M  V30 30 C 1.869296 3.724259 -2.140867 0
M  V30 31 C 2.982774 3.066522 -1.712488 0
M  V30 32 Cl 4.562770 3.432142 -2.387784 0
M  V30 33 C 4.053497 1.174101 1.164578 0
M  V30 34 H 3.184297 1.067825 3.691816 0
M  V30 35 H 4.498092 1.569577 4.777888 0
M  V30 36 H 3.921776 -0.109836 4.892021 0
M  V30 37 H 6.864666 -0.677840 1.622863 0
M  V30 38 H 5.099448 0.934755 -1.970186 0
M  V30 39 H -0.641748 2.675873 0.806647 0
M  V30 40 H -2.135272 1.137638 1.971504 0
M  V30 41 H -3.270733 -0.970223 2.121204 0
M  V30 42 H -4.024290 -2.853794 -1.423861 0
M  V30 43 H -3.881079 -4.506406 -0.744575 0
M  V30 44 H -6.154598 -3.990501 -0.239566 0
M  V30 45 H -5.743418 -2.268066 -0.089597 0
M  V30 46 H -5.329545 -2.441760 3.419274 0
M  V30 47 H -5.758423 -1.431254 2.040878 0
M  V30 48 H -6.938955 -2.698357 2.666703 0
M  V30 49 H -4.536475 -5.331225 1.976402 0
M  V30 50 H -4.208390 -4.096079 3.202672 0
M  V30 51 H -2.186627 -3.539138 2.318731 0
M  V30 52 H -2.514968 -4.875769 1.102868 0
M  V30 53 H -0.643206 -1.395521 -3.403969 0
M  V30 54 H -0.488000 -3.239262 -3.422283 0
M  V30 55 H 0.627564 -2.251002 -2.485586 0
M  V30 56 H -0.144149 -0.059202 -1.666089 0
M  V30 57 H 1.876718 4.477863 -2.887971 0
M  V30 58 H 3.240280 1.609314 1.760903 0
M  V30 END ATOM
M  V30 BEGIN BOND
M  V30 1 1 1 2
M  V30 2 1 2 3
M  V30 3 2 3 4
M  V30 4 1 4 5
M  V30 5 1 5 6
M  V30 6 3 6 7
M  V30 7 2 5 8
M  V30 8 1 8 9
M  V30 9 1 9 10
M  V30 10 2 10 11
M  V30 11 1 11 12
M  V30 12 1 12 13
M  V30 13 1 13 14
M  V30 14 2 14 15
M  V30 15 1 15 16
M  V30 16 2 16 17
M  V30 17 1 17 18
M  V30 18 1 18 19
M  V30 19 1 19 20
M  V30 20 1 20 21
M  V30 21 1 21 22
M  V30 22 1 21 23
M  V30 23 1 23 24
M  V30 24 1 17 25
M  V30 25 1 25 26
M  V30 26 1 26 27
M  V30 27 2 25 28
M  V30 28 2 12 29
M  V30 29 1 29 30
M  V30 30 2 30 31
M  V30 31 1 31 32
M  V30 32 2 9 33
M  V30 33 1 33 3
M  V30 34 1 31 10
M  V30 35 1 28 14
M  V30 36 1 24 18
M  V30 37 1 1 34
M  V30 38 1 1 35
M  V30 39 1 1 36
M  V30 40 1 4 37
M  V30 41 1 8 38
M  V30 42 1 13 39
M  V30 43 1 15 40
M  V30 44 1 16 41
M  V30 45 1 19 42
M  V30 46 1 19 43
M  V30 47 1 20 44
M  V30 48 1 20 45
M  V30 49 1 22 46
M  V30 50 1 22 47
M  V30 51 1 22 48
M  V30 52 1 23 49
M  V30 53 1 23 50
M  V30 54 1 24 51
M  V30 55 1 24 52
M  V30 56 1 27 53
M  V30 57 1 27 54
M  V30 58 1 27 55
M  V30 59 1 28 56
M  V30 60 1 30 57
M  V30 61 1 33 58
M  V30 END BOND
M  V30 END CTAB
M  END
>  <Dataset>  (65) 
ChEMBL_Kinases

>  <Ligand_Instance>  (65) 
nan

>  <PDB_ID>  (65) 
nan

>  <Standardized_SMILES>  (65) 
COc1cc(C#N)cc(-c2nc(Nc3ccc(N4CCN(C)CC4)c(OC)c3)ncc2Cl)c1

>  <Name>  (65) 
nan

>  <Pocket>  (65) 
nan

>  <ATP_Site>  (65) 
nan

>  <Peripheral>  (65) 
nan

>  <Num_H_Atoms_ProtBoundConf>  (65) 
nan

>  <Num_Resolved_Atoms>  (65) 
nan

>  <Num_Not_Resolved_Atoms>  (65) 
nan

$$$$
CHEMBL2403058
     RDKit          3D

  0  0  0  0  0  0  0  0  0  0999 V3000
M  V30 BEGIN CTAB
M  V30 COUNTS 54 57 0 0 0
M  V30 BEGIN ATOM
M  V30 1 C -0.443118 -3.974084 4.667109 0
M  V30 2 O -0.898693 -3.972235 3.325406 0
M  V30 3 C -0.295198 -3.122102 2.450284 0
M  V30 4 C 0.745000 -2.244575 2.771919 0
M  V30 5 C 1.245683 -1.444110 1.750261 0
M  V30 6 N 2.303099 -0.541819 2.054322 0
M  V30 7 C 2.908284 0.332258 1.109277 0
M  V30 8 N 3.993599 0.028434 0.352725 0
M  V30 9 C 4.493809 0.929988 -0.518820 0
M  V30 10 C 3.880300 2.166028 -0.625400 0
M  V30 11 Cl 4.579930 3.271711 -1.765731 0
M  V30 12 C 2.764578 2.491865 0.145510 0
M  V30 13 C 2.145873 3.803160 0.003701 0
M  V30 14 C 1.775041 4.537669 1.136332 0
M  V30 15 C 1.183761 5.786462 1.092797 0
M  V30 16 Cl 0.764362 6.607169 2.581133 0
M  V30 17 C 0.937738 6.357077 -0.139661 0
M  V30 18 C 1.288613 5.664529 -1.270139 0
M  V30 19 C 1.026281 6.271740 -2.555132 0
M  V30 20 N 0.831284 6.754267 -3.595948 0
M  V30 21 C 1.874015 4.427016 -1.199400 0
M  V30 22 N 2.316921 1.545845 0.995418 0
M  V30 23 C 0.758971 -1.488792 0.460701 0
M  V30 24 C -0.273213 -2.361367 0.147328 0
M  V30 25 C -0.800788 -3.182106 1.153483 0
M  V30 26 N -1.839117 -4.017360 0.712439 0
M  V30 27 C -3.197049 -3.964800 1.274901 0
M  V30 28 C -4.042241 -3.319361 0.220888 0
M  V30 29 N -3.922589 -4.056114 -0.994645 0
M  V30 30 C -3.483675 -3.237230 -2.099026 0
M  V30 31 C -3.161476 -5.260396 -0.936022 0
M  V30 32 C -1.770727 -5.050589 -0.343237 0
M  V30 33 H 0.531046 -4.486978 4.781518 0
M  V30 34 H -1.249423 -4.463107 5.277574 0
M  V30 35 H -0.403862 -2.921966 5.038563 0
M  V30 36 H 1.101290 -2.236321 3.791339 0
M  V30 37 H 2.700279 -0.472017 3.009078 0
M  V30 38 H 5.362533 0.658517 -1.110419 0
M  V30 39 H 1.960678 4.104869 2.105496 0
M  V30 40 H 0.475708 7.334833 -0.221831 0
M  V30 41 H 2.136583 3.911097 -2.101111 0
M  V30 42 H 1.167856 -0.854978 -0.312125 0
M  V30 43 H -0.632287 -2.370260 -0.877886 0
M  V30 44 H -3.516131 -5.001199 1.512957 0
M  V30 45 H -3.222929 -3.446781 2.244130 0
M  V30 46 H -3.583523 -2.302768 0.039414 0
M  V30 47 H -5.083319 -3.121581 0.543418 0
M  V30 48 H -4.399487 -2.934298 -2.655182 0
M  V30 49 H -2.880629 -3.861641 -2.781486 0
M  V30 50 H -2.927538 -2.337697 -1.749257 0
M  V30 51 H -3.691217 -6.100098 -0.424138 0
M  V30 52 H -3.022851 -5.624924 -1.974654 0
M  V30 53 H -1.485813 -6.022975 0.087868 0
M  V30 54 H -1.135261 -4.711361 -1.177339 0
M  V30 END ATOM
M  V30 BEGIN BOND
M  V30 1 1 1 2
M  V30 2 1 2 3
M  V30 3 2 3 4
M  V30 4 1 4 5
M  V30 5 1 5 6
M  V30 6 1 6 7
M  V30 7 2 7 8
M  V30 8 1 8 9
M  V30 9 2 9 10
M  V30 10 1 10 11
M  V30 11 1 10 12
M  V30 12 1 12 13
M  V30 13 2 13 14
M  V30 14 1 14 15
M  V30 15 1 15 16
M  V30 16 2 15 17
M  V30 17 1 17 18
M  V30 18 1 18 19
M  V30 19 3 19 20
M  V30 20 2 18 21
M  V30 21 2 12 22
M  V30 22 2 5 23
M  V30 23 1 23 24
M  V30 24 2 24 25
M  V30 25 1 25 26
M  V30 26 1 26 27
M  V30 27 1 27 28
M  V30 28 1 28 29
M  V30 29 1 29 30
M  V30 30 1 29 31
M  V30 31 1 31 32
M  V30 32 1 25 3
M  V30 33 1 32 26
M  V30 34 1 22 7
M  V30 35 1 21 13
M  V30 36 1 1 33
M  V30 37 1 1 34
M  V30 38 1 1 35
M  V30 39 1 4 36
M  V30 40 1 6 37
M  V30 41 1 9 38
M  V30 42 1 14 39
M  V30 43 1 17 40
M  V30 44 1 21 41
M  V30 45 1 23 42
M  V30 46 1 24 43
M  V30 47 1 27 44
M  V30 48 1 27 45
M  V30 49 1 28 46
M  V30 50 1 28 47
M  V30 51 1 30 48
M  V30 52 1 30 49
M  V30 53 1 30 50
M  V30 54 1 31 51
M  V30 55 1 31 52
M  V30 56 1 32 53
M  V30 57 1 32 54
M  V30 END BOND
M  V30 END CTAB
M  END
>  <Dataset>  (66) 
ChEMBL_Kinases

>  <Ligand_Instance>  (66) 
nan

>  <PDB_ID>  (66) 
nan

>  <Standardized_SMILES>  (66) 
COc1cc(Nc2ncc(Cl)c(-c3cc(Cl)cc(C#N)c3)n2)ccc1N1CCN(C)CC1

>  <Name>  (66) 
nan

>  <Pocket>  (66) 
nan

>  <ATP_Site>  (66) 
nan

>  <Peripheral>  (66) 
nan

>  <Num_H_Atoms_ProtBoundConf>  (66) 
nan

>  <Num_Resolved_Atoms>  (66) 
nan

>  <Num_Not_Resolved_Atoms>  (66) 
nan

$$$$
CHEMBL2403057
     RDKit          3D

  0  0  0  0  0  0  0  0  0  0999 V3000
M  V30 BEGIN CTAB
M  V30 COUNTS 57 60 0 0 0
M  V30 BEGIN ATOM
M  V30 1 C 2.040044 -1.795051 -1.452902 0
M  V30 2 O 0.895454 -2.569294 -1.211945 0
M  V30 3 C 0.289841 -2.702655 0.002441 0
M  V30 4 C 0.818152 -2.042341 1.088985 0
M  V30 5 C 0.262933 -2.125916 2.345444 0
M  V30 6 N 0.856468 -1.418380 3.424351 0
M  V30 7 C 1.931136 -0.540809 3.119157 0
M  V30 8 N 3.237758 -0.801353 2.943262 0
M  V30 9 C 4.156614 0.125549 2.662858 0
M  V30 10 C 3.738621 1.434618 2.546394 0
M  V30 11 Cl 4.839970 2.731371 2.181045 0
M  V30 12 C 2.410917 1.761249 2.717306 0
M  V30 13 C 1.835713 3.120689 2.629153 0
M  V30 14 C 2.409326 4.233377 3.203038 0
M  V30 15 C 1.889997 5.506738 3.139321 0
M  V30 16 Cl 2.770106 6.789513 3.935944 0
M  V30 17 C 0.700652 5.649699 2.439196 0
M  V30 18 C 0.070244 4.581173 1.839395 0
M  V30 19 C -1.202693 4.809265 1.114193 0
M  V30 20 C -1.018005 5.128232 -0.296575 0
M  V30 21 N -0.871225 5.364488 -1.423125 0
M  V30 22 C 0.641326 3.321706 1.937366 0
M  V30 23 N 1.553308 0.766738 2.996888 0
M  V30 24 C -0.863112 -2.917712 2.450508 0
M  V30 25 C -1.396129 -3.582443 1.362055 0
M  V30 26 C -0.836376 -3.496456 0.102466 0
M  V30 27 N -1.440850 -4.245912 -0.941440 0
M  V30 28 C -2.832713 -4.722926 -0.921700 0
M  V30 29 C -3.511691 -3.728285 -1.879759 0
M  V30 30 N -3.031443 -3.992892 -3.173720 0
M  V30 31 C -4.062305 -4.617895 -3.976453 0
M  V30 32 C -1.737378 -4.489283 -3.369974 0
M  V30 33 C -0.888425 -4.726713 -2.184480 0
M  V30 34 H 2.201724 -1.724986 -2.560053 0
M  V30 35 H 2.962468 -2.249571 -1.022697 0
M  V30 36 H 1.919717 -0.732864 -1.099118 0
M  V30 37 H 1.717433 -1.427897 0.933389 0
M  V30 38 H 0.435554 -1.613388 4.359094 0
M  V30 39 H 5.177708 -0.143144 2.533669 0
M  V30 40 H 3.348338 4.063928 3.747619 0
M  V30 41 H 0.335088 6.679260 2.421414 0
M  V30 42 H -1.819693 3.873927 1.230289 0
M  V30 43 H -1.824169 5.605651 1.599477 0
M  V30 44 H 0.169085 2.462794 1.476174 0
M  V30 45 H -1.266130 -2.953017 3.468676 0
M  V30 46 H -2.264829 -4.138923 1.675968 0
M  V30 47 H -2.907713 -5.752660 -1.279412 0
M  V30 48 H -3.286066 -4.665037 0.076926 0
M  V30 49 H -4.600718 -3.967020 -1.818232 0
M  V30 50 H -3.262860 -2.718271 -1.483957 0
M  V30 51 H -5.043869 -4.071172 -3.847570 0
M  V30 52 H -4.143135 -5.666967 -3.607905 0
M  V30 53 H -3.742331 -4.643339 -5.030247 0
M  V30 54 H -1.221743 -3.854611 -4.152389 0
M  V30 55 H -1.857155 -5.477868 -3.910417 0
M  V30 56 H 0.130969 -4.365265 -2.367385 0
M  V30 57 H -0.751891 -5.841403 -2.000912 0
M  V30 END ATOM
M  V30 BEGIN BOND
M  V30 1 1 1 2
M  V30 2 1 2 3
M  V30 3 2 3 4
M  V30 4 1 4 5
M  V30 5 1 5 6
M  V30 6 1 6 7
M  V30 7 2 7 8
M  V30 8 1 8 9
M  V30 9 2 9 10
M  V30 10 1 10 11
M  V30 11 1 10 12
M  V30 12 1 12 13
M  V30 13 2 13 14
M  V30 14 1 14 15
M  V30 15 1 15 16
M  V30 16 2 15 17
M  V30 17 1 17 18
M  V30 18 1 18 19
M  V30 19 1 19 20
M  V30 20 3 20 21
M  V30 21 2 18 22
M  V30 22 2 12 23
M  V30 23 2 5 24
M  V30 24 1 24 25
M  V30 25 2 25 26
M  V30 26 1 26 27
M  V30 27 1 27 28
M  V30 28 1 28 29
M  V30 29 1 29 30
M  V30 30 1 30 31
M  V30 31 1 30 32
M  V30 32 1 32 33
M  V30 33 1 26 3
M  V30 34 1 33 27
M  V30 35 1 23 7
M  V30 36 1 22 13
M  V30 37 1 1 34
M  V30 38 1 1 35
M  V30 39 1 1 36
M  V30 40 1 4 37
M  V30 41 1 6 38
M  V30 42 1 9 39
M  V30 43 1 14 40
M  V30 44 1 17 41
M  V30 45 1 19 42
M  V30 46 1 19 43
M  V30 47 1 22 44
M  V30 48 1 24 45
M  V30 49 1 25 46
M  V30 50 1 28 47
M  V30 51 1 28 48
M  V30 52 1 29 49
M  V30 53 1 29 50
M  V30 54 1 31 51
M  V30 55 1 31 52
M  V30 56 1 31 53
M  V30 57 1 32 54
M  V30 58 1 32 55
M  V30 59 1 33 56
M  V30 60 1 33 57
M  V30 END BOND
M  V30 END CTAB
M  END
>  <Dataset>  (67) 
ChEMBL_Kinases

>  <Ligand_Instance>  (67) 
nan

>  <PDB_ID>  (67) 
nan

>  <Standardized_SMILES>  (67) 
COc1cc(Nc2ncc(Cl)c(-c3cc(Cl)cc(CC#N)c3)n2)ccc1N1CCN(C)CC1

>  <Name>  (67) 
nan

>  <Pocket>  (67) 
nan

>  <ATP_Site>  (67) 
nan

>  <Peripheral>  (67) 
nan

>  <Num_H_Atoms_ProtBoundConf>  (67) 
nan

>  <Num_Resolved_Atoms>  (67) 
nan

>  <Num_Not_Resolved_Atoms>  (67) 
nan

$$$$
CHEMBL2403056
     RDKit          3D

  0  0  0  0  0  0  0  0  0  0999 V3000
M  V30 BEGIN CTAB
M  V30 COUNTS 57 60 0 0 0
M  V30 BEGIN ATOM
M  V30 1 C 2.956290 -5.875152 -0.021737 0
M  V30 2 O 1.786799 -5.187924 -0.395835 0
M  V30 3 C 1.564939 -3.882330 0.003143 0
M  V30 4 C 2.356244 -3.059790 0.769614 0
M  V30 5 C 1.952422 -1.771711 1.061268 0
M  V30 6 N 2.793134 -0.944305 1.857065 0
M  V30 7 C 2.615162 0.455112 2.012187 0
M  V30 8 N 3.761723 1.081077 1.645286 0
M  V30 9 C 3.807463 2.437712 1.709216 0
M  V30 10 C 2.729048 3.191973 2.132808 0
M  V30 11 Cl 2.867246 4.944110 2.183385 0
M  V30 12 C 1.565185 2.506844 2.501968 0
M  V30 13 C 0.444590 3.329750 2.924152 0
M  V30 14 C 0.498691 4.370574 3.824864 0
M  V30 15 C -0.631490 5.088381 4.118814 0
M  V30 16 F -0.559246 6.108793 5.009299 0
M  V30 17 C -1.829404 4.782293 3.522866 0
M  V30 18 C -1.948470 3.753048 2.612854 0
M  V30 19 C -3.210614 3.347588 1.895031 0
M  V30 20 C -3.319127 4.077693 0.628468 0
M  V30 21 N -3.397863 4.636573 -0.358615 0
M  V30 22 C -0.790199 3.038346 2.329836 0
M  V30 23 N 1.555391 1.169146 2.427444 0
M  V30 24 C 0.743224 -1.329897 0.571569 0
M  V30 25 C -0.071886 -2.130444 -0.198244 0
M  V30 26 C 0.361676 -3.430936 -0.480897 0
M  V30 27 N -0.599938 -4.091038 -1.328756 0
M  V30 28 C -0.259666 -4.203453 -2.746669 0
M  V30 29 C -1.479980 -4.101591 -3.626378 0
M  V30 30 N -2.640878 -3.639400 -2.973408 0
M  V30 31 C -3.096657 -2.325127 -3.219476 0
M  V30 32 C -3.013071 -4.225659 -1.737610 0
M  V30 33 C -1.840166 -4.646989 -0.881915 0
M  V30 34 H 2.778861 -6.504415 0.894300 0
M  V30 35 H 3.188189 -6.617285 -0.841448 0
M  V30 36 H 3.846888 -5.246425 0.086567 0
M  V30 37 H 3.265929 -3.502181 1.098278 0
M  V30 38 H 3.604090 -1.419031 2.363375 0
M  V30 39 H 4.702358 2.996562 1.427295 0
M  V30 40 H 1.477340 4.583985 4.282278 0
M  V30 41 H -2.765695 5.327850 3.725471 0
M  V30 42 H -3.134786 2.261362 1.680051 0
M  V30 43 H -4.096908 3.540620 2.523305 0
M  V30 44 H -0.862598 2.229314 1.621771 0
M  V30 45 H 0.486133 -0.293173 0.842858 0
M  V30 46 H -0.982708 -1.645714 -0.506304 0
M  V30 47 H 0.378259 -3.295288 -2.980988 0
M  V30 48 H 0.317844 -5.093434 -2.995328 0
M  V30 49 H -1.717311 -5.090908 -4.096453 0
M  V30 50 H -1.252914 -3.415220 -4.462849 0
M  V30 51 H -2.718037 -1.535936 -2.541502 0
M  V30 52 H -4.209394 -2.331561 -3.081290 0
M  V30 53 H -2.854839 -2.044669 -4.264110 0
M  V30 54 H -3.587505 -5.156639 -1.948844 0
M  V30 55 H -3.692934 -3.559691 -1.169856 0
M  V30 56 H -1.689076 -5.769559 -0.904727 0
M  V30 57 H -2.089741 -4.405583 0.167644 0
M  V30 END ATOM
M  V30 BEGIN BOND
M  V30 1 1 1 2
M  V30 2 1 2 3
M  V30 3 2 3 4
M  V30 4 1 4 5
M  V30 5 1 5 6
M  V30 6 1 6 7
M  V30 7 2 7 8
M  V30 8 1 8 9
M  V30 9 2 9 10
M  V30 10 1 10 11
M  V30 11 1 10 12
M  V30 12 1 12 13
M  V30 13 2 13 14
M  V30 14 1 14 15
M  V30 15 1 15 16
M  V30 16 2 15 17
M  V30 17 1 17 18
M  V30 18 1 18 19
M  V30 19 1 19 20
M  V30 20 3 20 21
M  V30 21 2 18 22
M  V30 22 2 12 23
M  V30 23 2 5 24
M  V30 24 1 24 25
M  V30 25 2 25 26
M  V30 26 1 26 27
M  V30 27 1 27 28
M  V30 28 1 28 29
M  V30 29 1 29 30
M  V30 30 1 30 31
M  V30 31 1 30 32
M  V30 32 1 32 33
M  V30 33 1 26 3
M  V30 34 1 33 27
M  V30 35 1 23 7
M  V30 36 1 22 13
M  V30 37 1 1 34
M  V30 38 1 1 35
M  V30 39 1 1 36
M  V30 40 1 4 37
M  V30 41 1 6 38
M  V30 42 1 9 39
M  V30 43 1 14 40
M  V30 44 1 17 41
M  V30 45 1 19 42
M  V30 46 1 19 43
M  V30 47 1 22 44
M  V30 48 1 24 45
M  V30 49 1 25 46
M  V30 50 1 28 47
M  V30 51 1 28 48
M  V30 52 1 29 49
M  V30 53 1 29 50
M  V30 54 1 31 51
M  V30 55 1 31 52
M  V30 56 1 31 53
M  V30 57 1 32 54
M  V30 58 1 32 55
M  V30 59 1 33 56
M  V30 60 1 33 57
M  V30 END BOND
M  V30 END CTAB
M  END
>  <Dataset>  (68) 
ChEMBL_Kinases

>  <Ligand_Instance>  (68) 
nan

>  <PDB_ID>  (68) 
nan

>  <Standardized_SMILES>  (68) 
COc1cc(Nc2ncc(Cl)c(-c3cc(F)cc(CC#N)c3)n2)ccc1N1CCN(C)CC1

>  <Name>  (68) 
nan

>  <Pocket>  (68) 
nan

>  <ATP_Site>  (68) 
nan

>  <Peripheral>  (68) 
nan

>  <Num_H_Atoms_ProtBoundConf>  (68) 
nan

>  <Num_Resolved_Atoms>  (68) 
nan

>  <Num_Not_Resolved_Atoms>  (68) 
nan

$$$$
CHEMBL2402954
     RDKit          3D

  0  0  0  0  0  0  0  0  0  0999 V3000
M  V30 BEGIN CTAB
M  V30 COUNTS 75 80 0 0 0
M  V30 BEGIN ATOM
M  V30 1 C 3.497324 2.754911 8.180772 0
M  V30 2 O 3.437946 2.215818 6.861356 0
M  V30 3 C 4.134084 1.034225 6.599149 0
M  V30 4 C 4.875270 0.366766 7.561052 0
M  V30 5 C 5.538418 -0.807460 7.207359 0
M  V30 6 C 5.451389 -1.290631 5.913581 0
M  V30 7 C 4.709918 -0.622928 4.952476 0
M  V30 8 C 4.046958 0.556063 5.316937 0
M  V30 9 C 3.306403 1.149713 4.204065 0
M  V30 10 C 3.920051 1.240336 2.972555 0
M  V30 11 C 3.211138 1.799420 1.930557 0
M  V30 12 C 1.909732 2.266390 2.095377 0
M  V30 13 C 1.317714 2.839799 0.835177 0
M  V30 14 N 0.650608 1.866880 0.065691 0
M  V30 15 C -0.042668 0.888989 -0.671879 0
M  V30 16 N -1.039000 0.493511 0.179851 0
M  V30 17 C -1.939242 -0.467438 -0.183337 0
M  V30 18 N -3.017283 -0.981696 0.584716 0
M  V30 19 C -3.936968 -1.988804 0.157856 0
M  V30 20 C -4.721815 -1.597151 -1.065382 0
M  V30 21 C -4.648770 -2.534260 -2.210840 0
M  V30 22 C -4.597839 -3.984126 -1.894181 0
M  V30 23 N -3.560194 -4.637154 -2.678210 0
M  V30 24 C -4.305270 -4.305721 -0.456207 0
M  V30 25 C -3.250994 -3.343557 0.008261 0
M  V30 26 N -1.803813 -0.999087 -1.397757 0
M  V30 27 C -0.877806 -0.671461 -2.265584 0
M  V30 28 C 0.014252 0.287986 -1.892184 0
M  V30 29 N 0.926298 0.575853 -2.804758 0
M  V30 30 C 0.661084 -0.225209 -3.879188 0
M  V30 31 N -0.430261 -0.963024 -3.522066 0
M  V30 32 C -1.080555 -1.961999 -4.350673 0
M  V30 33 C -2.209545 -1.415331 -5.178992 0
M  V30 34 C -1.421961 -0.698392 -6.281225 0
M  V30 35 C -0.301287 -1.692005 -6.608083 0
M  V30 36 C -0.135884 -2.537917 -5.373895 0
M  V30 37 C 1.303388 2.173069 3.327938 0
M  V30 38 C 2.003622 1.612683 4.386589 0
M  V30 39 H 2.915183 2.136480 8.904548 0
M  V30 40 H 3.016777 3.770837 8.174028 0
M  V30 41 H 4.542201 2.808106 8.569847 0
M  V30 42 H 4.932802 0.750368 8.547999 0
M  V30 43 H 6.132519 -1.371880 7.911887 0
M  V30 44 H 5.973227 -2.218266 5.632197 0
M  V30 45 H 4.683979 -1.056075 3.963228 0
M  V30 46 H 4.941864 0.871723 2.852761 0
M  V30 47 H 3.749753 1.838051 0.994882 0
M  V30 48 H 0.509917 3.586805 1.146524 0
M  V30 49 H 2.083678 3.476592 0.382616 0
M  V30 50 H 1.353562 2.010550 -0.725105 0
M  V30 51 H -3.054137 -0.516249 1.531633 0
M  V30 52 H -4.680142 -2.122158 0.985129 0
M  V30 53 H -4.311769 -0.607367 -1.414683 0
M  V30 54 H -5.800120 -1.361680 -0.824786 0
M  V30 55 H -3.827920 -2.280040 -2.939045 0
M  V30 56 H -5.579564 -2.366734 -2.829630 0
M  V30 57 H -5.553449 -4.513701 -2.144149 0
M  V30 58 H -3.866174 -4.582240 -3.665786 0
M  V30 59 H -3.388178 -5.613864 -2.335453 0
M  V30 60 H -5.246428 -4.062879 0.108017 0
M  V30 61 H -4.042690 -5.360394 -0.364435 0
M  V30 62 H -2.961792 -3.653929 1.052544 0
M  V30 63 H -2.377254 -3.293847 -0.656709 0
M  V30 64 H 1.236052 -0.222876 -4.784840 0
M  V30 65 H -1.475062 -2.771852 -3.674932 0
M  V30 66 H -2.731324 -2.294288 -5.617201 0
M  V30 67 H -2.871111 -0.731617 -4.645869 0
M  V30 68 H -2.045048 -0.466745 -7.159810 0
M  V30 69 H -0.963995 0.199531 -5.843600 0
M  V30 70 H -0.659683 -2.324030 -7.463306 0
M  V30 71 H 0.628998 -1.171742 -6.885639 0
M  V30 72 H -0.432922 -3.590807 -5.591646 0
M  V30 73 H 0.921625 -2.479227 -5.025525 0
M  V30 74 H 0.301755 2.556629 3.367916 0
M  V30 75 H 1.506545 1.550637 5.340366 0
M  V30 END ATOM
M  V30 BEGIN BOND
M  V30 1 1 1 2
M  V30 2 1 2 3
M  V30 3 2 3 4
M  V30 4 1 4 5
M  V30 5 2 5 6
M  V30 6 1 6 7
M  V30 7 2 7 8
M  V30 8 1 8 9
M  V30 9 2 9 10
M  V30 10 1 10 11
M  V30 11 2 11 12
M  V30 12 1 12 13
M  V30 13 1 13 14
M  V30 14 1 14 15
M  V30 15 2 15 16
M  V30 16 1 16 17
M  V30 17 1 17 18
M  V30 18 1 18 19
M  V30 19 1 19 20
M  V30 20 1 20 21
M  V30 21 1 21 22
M  V30 22 1 22 23
M  V30 23 1 22 24
M  V30 24 1 24 25
M  V30 25 2 17 26
M  V30 26 1 26 27
M  V30 27 2 27 28
M  V30 28 1 28 29
M  V30 29 2 29 30
M  V30 30 1 30 31
M  V30 31 1 31 32
M  V30 32 1 32 33
M  V30 33 1 33 34
M  V30 34 1 34 35
M  V30 35 1 35 36
M  V30 36 1 12 37
M  V30 37 2 37 38
M  V30 38 1 8 3
M  V30 39 1 38 9
M  V30 40 1 28 15
M  V30 41 1 36 32
M  V30 42 1 25 19
M  V30 43 1 31 27
M  V30 44 1 1 39
M  V30 45 1 1 40
M  V30 46 1 1 41
M  V30 47 1 4 42
M  V30 48 1 5 43
M  V30 49 1 6 44
M  V30 50 1 7 45
M  V30 51 1 10 46
M  V30 52 1 11 47
M  V30 53 1 13 48
M  V30 54 1 13 49
M  V30 55 1 14 50
M  V30 56 1 18 51
M  V30 57 1 19 52
M  V30 58 1 20 53
M  V30 59 1 20 54
M  V30 60 1 21 55
M  V30 61 1 21 56
M  V30 62 1 22 57
M  V30 63 1 23 58
M  V30 64 1 23 59
M  V30 65 1 24 60
M  V30 66 1 24 61
M  V30 67 1 25 62
M  V30 68 1 25 63
M  V30 69 1 30 64
M  V30 70 1 32 65
M  V30 71 1 33 66
M  V30 72 1 33 67
M  V30 73 1 34 68
M  V30 74 1 34 69
M  V30 75 1 35 70
M  V30 76 1 35 71
M  V30 77 1 36 72
M  V30 78 1 36 73
M  V30 79 1 37 74
M  V30 80 1 38 75
M  V30 END BOND
M  V30 END CTAB
M  END
>  <Dataset>  (69) 
ChEMBL_Kinases

>  <Ligand_Instance>  (69) 
nan

>  <PDB_ID>  (69) 
nan

>  <Standardized_SMILES>  (69) 
COc1ccccc1-c1ccc(CNc2nc(NC3CCC(N)CC3)nc3c2ncn3C2CCCC2)cc1

>  <Name>  (69) 
nan

>  <Pocket>  (69) 
nan

>  <ATP_Site>  (69) 
nan

>  <Peripheral>  (69) 
nan

>  <Num_H_Atoms_ProtBoundConf>  (69) 
nan

>  <Num_Resolved_Atoms>  (69) 
nan

>  <Num_Not_Resolved_Atoms>  (69) 
nan

$$$$
CHEMBL2402953
     RDKit          3D

  0  0  0  0  0  0  0  0  0  0999 V3000
M  V30 BEGIN CTAB
M  V30 COUNTS 73 78 0 0 0
M  V30 BEGIN ATOM
M  V30 1 N 3.265888 -0.371553 5.380297 0
M  V30 2 C 4.036526 -1.524560 5.035942 0
M  V30 3 C 4.516342 -2.449841 5.938587 0
M  V30 4 C 5.252055 -3.533010 5.514241 0
M  V30 5 C 5.531562 -3.727428 4.182734 0
M  V30 6 C 5.049752 -2.802953 3.301549 0
M  V30 7 C 4.305567 -1.697027 3.675695 0
M  V30 8 C 3.833528 -0.764536 2.658755 0
M  V30 9 C 3.893955 0.610208 2.740363 0
M  V30 10 C 3.408997 1.373478 1.702136 0
M  V30 11 C 2.843669 0.836276 0.537964 0
M  V30 12 C 2.378863 1.816542 -0.483872 0
M  V30 13 N 1.022652 2.267125 -0.268940 0
M  V30 14 C -0.170955 1.481136 -0.288243 0
M  V30 15 N -0.155464 0.162506 -0.534045 0
M  V30 16 C -1.280096 -0.564969 -0.555355 0
M  V30 17 N -1.308955 -1.977088 -0.819852 0
M  V30 18 C -0.163064 -2.800952 -1.113042 0
M  V30 19 C -0.527939 -4.264739 -1.275188 0
M  V30 20 C -1.058023 -4.622895 -2.619500 0
M  V30 21 C -1.098135 -3.515925 -3.618688 0
M  V30 22 N -2.352067 -2.772727 -3.582707 0
M  V30 23 C 0.115943 -2.633274 -3.624742 0
M  V30 24 C 0.658328 -2.306819 -2.281711 0
M  V30 25 N -2.449865 0.056556 -0.322227 0
M  V30 26 C -2.578931 1.344901 -0.070716 0
M  V30 27 C -1.415562 2.073364 -0.053156 0
M  V30 28 N -1.744176 3.356483 0.217229 0
M  V30 29 C -3.078148 3.452226 0.369279 0
M  V30 30 N -3.568149 2.213446 0.189545 0
M  V30 31 C -4.955494 1.912098 0.273604 0
M  V30 32 C -5.752523 2.581789 -0.853281 0
M  V30 33 C -5.500352 1.592344 -1.971053 0
M  V30 34 C -5.814687 0.271509 -1.276568 0
M  V30 35 C -5.350996 0.494159 0.145555 0
M  V30 36 C 2.802469 -0.540884 0.495923 0
M  V30 37 C 3.280732 -1.312314 1.520812 0
M  V30 38 H 3.712692 0.223065 6.107784 0
M  V30 39 H 2.335184 -0.173919 4.919207 0
M  V30 40 H 4.288497 -2.283406 6.985057 0
M  V30 41 H 5.628909 -4.259000 6.220270 0
M  V30 42 H 6.100411 -4.550881 3.778399 0
M  V30 43 H 5.246977 -2.914807 2.226845 0
M  V30 44 H 4.326846 1.034314 3.631614 0
M  V30 45 H 3.486801 2.425883 1.829940 0
M  V30 46 H 2.441240 1.368485 -1.503962 0
M  V30 47 H 3.049833 2.695922 -0.429427 0
M  V30 48 H 0.873815 3.285793 -0.074199 0
M  V30 49 H -2.224391 -2.477729 -0.804767 0
M  V30 50 H 0.510253 -2.745785 -0.230479 0
M  V30 51 H -1.245752 -4.542532 -0.467462 0
M  V30 52 H 0.359670 -4.922126 -1.075231 0
M  V30 53 H -2.126471 -4.962191 -2.489146 0
M  V30 54 H -0.553810 -5.527958 -3.040705 0
M  V30 55 H -1.117460 -4.020960 -4.630021 0
M  V30 56 H -3.094424 -3.410126 -3.232831 0
M  V30 57 H -2.589682 -2.303125 -4.463022 0
M  V30 58 H -0.181282 -1.711715 -4.208636 0
M  V30 59 H 0.930113 -3.070509 -4.239213 0
M  V30 60 H 1.684792 -2.762039 -2.158532 0
M  V30 61 H 0.810691 -1.234888 -2.177328 0
M  V30 62 H -3.636664 4.364066 0.594000 0
M  V30 63 H -5.368643 2.389090 1.209918 0
M  V30 64 H -6.813517 2.578713 -0.576133 0
M  V30 65 H -5.360137 3.593070 -1.063175 0
M  V30 66 H -6.146251 1.780382 -2.847802 0
M  V30 67 H -4.424855 1.613266 -2.247221 0
M  V30 68 H -5.275401 -0.565701 -1.738248 0
M  V30 69 H -6.899101 0.103031 -1.374493 0
M  V30 70 H -6.278752 0.358482 0.776723 0
M  V30 71 H -4.656941 -0.263798 0.499593 0
M  V30 72 H 2.377672 -0.951370 -0.391611 0
M  V30 73 H 3.196625 -2.377276 1.380100 0
M  V30 END ATOM
M  V30 BEGIN BOND
M  V30 1 1 1 2
M  V30 2 2 2 3
M  V30 3 1 3 4
M  V30 4 2 4 5
M  V30 5 1 5 6
M  V30 6 2 6 7
M  V30 7 1 7 8
M  V30 8 2 8 9
M  V30 9 1 9 10
M  V30 10 2 10 11
M  V30 11 1 11 12
M  V30 12 1 12 13
M  V30 13 1 13 14
M  V30 14 2 14 15
M  V30 15 1 15 16
M  V30 16 1 16 17
M  V30 17 1 17 18
M  V30 18 1 18 19
M  V30 19 1 19 20
M  V30 20 1 20 21
M  V30 21 1 21 22
M  V30 22 1 21 23
M  V30 23 1 23 24
M  V30 24 2 16 25
M  V30 25 1 25 26
M  V30 26 2 26 27
M  V30 27 1 27 28
M  V30 28 2 28 29
M  V30 29 1 29 30
M  V30 30 1 30 31
M  V30 31 1 31 32
M  V30 32 1 32 33
M  V30 33 1 33 34
M  V30 34 1 34 35
M  V30 35 1 11 36
M  V30 36 2 36 37
M  V30 37 1 7 2
M  V30 38 1 37 8
M  V30 39 1 27 14
M  V30 40 1 35 31
M  V30 41 1 24 18
M  V30 42 1 30 26
M  V30 43 1 1 38
M  V30 44 1 1 39
M  V30 45 1 3 40
M  V30 46 1 4 41
M  V30 47 1 5 42
M  V30 48 1 6 43
M  V30 49 1 9 44
M  V30 50 1 10 45
M  V30 51 1 12 46
M  V30 52 1 12 47
M  V30 53 1 13 48
M  V30 54 1 17 49
M  V30 55 1 18 50
M  V30 56 1 19 51
M  V30 57 1 19 52
M  V30 58 1 20 53
M  V30 59 1 20 54
M  V30 60 1 21 55
M  V30 61 1 22 56
M  V30 62 1 22 57
M  V30 63 1 23 58
M  V30 64 1 23 59
M  V30 65 1 24 60
M  V30 66 1 24 61
M  V30 67 1 29 62
M  V30 68 1 31 63
M  V30 69 1 32 64
M  V30 70 1 32 65
M  V30 71 1 33 66
M  V30 72 1 33 67
M  V30 73 1 34 68
M  V30 74 1 34 69
M  V30 75 1 35 70
M  V30 76 1 35 71
M  V30 77 1 36 72
M  V30 78 1 37 73
M  V30 END BOND
M  V30 END CTAB
M  END
>  <Dataset>  (70) 
ChEMBL_Kinases

>  <Ligand_Instance>  (70) 
nan

>  <PDB_ID>  (70) 
nan

>  <Standardized_SMILES>  (70) 
Nc1ccccc1-c1ccc(CNc2nc(NC3CCC(N)CC3)nc3c2ncn3C2CCCC2)cc1

>  <Name>  (70) 
nan

>  <Pocket>  (70) 
nan

>  <ATP_Site>  (70) 
nan

>  <Peripheral>  (70) 
nan

>  <Num_H_Atoms_ProtBoundConf>  (70) 
nan

>  <Num_Resolved_Atoms>  (70) 
nan

>  <Num_Not_Resolved_Atoms>  (70) 
nan

$$$$
CHEMBL2402952
     RDKit          3D

  0  0  0  0  0  0  0  0  0  0999 V3000
M  V30 BEGIN CTAB
M  V30 COUNTS 71 76 0 0 0
M  V30 BEGIN ATOM
M  V30 1 N 2.938247 1.470067 4.921594 0
M  V30 2 C 2.811375 0.112131 4.402327 0
M  V30 3 C 3.892631 -0.104306 3.402313 0
M  V30 4 C 3.372204 -0.427096 2.023599 0
M  V30 5 C 2.232562 0.480235 1.629362 0
M  V30 6 N 1.737793 0.207158 0.309161 0
M  V30 7 C 1.216682 -1.050655 -0.160140 0
M  V30 8 N 0.776145 -1.208242 -1.418164 0
M  V30 9 C 0.286106 -2.304197 -1.963834 0
M  V30 10 N -0.124773 -2.280118 -3.323999 0
M  V30 11 C -0.115444 -1.215346 -4.286313 0
M  V30 12 C -0.959140 -0.056406 -3.894480 0
M  V30 13 C -0.581394 1.059667 -3.203960 0
M  V30 14 C -1.470621 2.067875 -2.899181 0
M  V30 15 C -2.800556 1.997672 -3.281696 0
M  V30 16 C -3.672559 3.110088 -2.917500 0
M  V30 17 C -5.014789 2.956205 -2.655383 0
M  V30 18 C -5.867833 3.996599 -2.308395 0
M  V30 19 C -5.301665 5.268566 -2.227008 0
M  V30 20 C -3.950504 5.450770 -2.486411 0
M  V30 21 C -3.149168 4.376571 -2.828251 0
M  V30 22 C -3.217660 0.886146 -3.980403 0
M  V30 23 C -2.308099 -0.089257 -4.262239 0
M  V30 24 C 0.225717 -3.415818 -1.122739 0
M  V30 25 N -0.220333 -4.657322 -1.392001 0
M  V30 26 C -0.067268 -5.365987 -0.248830 0
M  V30 27 N 0.464738 -4.524200 0.666034 0
M  V30 28 C 0.732467 -5.017154 1.975636 0
M  V30 29 C -0.516317 -5.768806 2.450802 0
M  V30 30 C -1.162276 -4.901831 3.498683 0
M  V30 31 C -0.404900 -3.591060 3.491214 0
M  V30 32 C 0.959135 -4.005899 3.035713 0
M  V30 33 C 0.658981 -3.312817 0.162743 0
M  V30 34 N 1.144317 -2.157081 0.636323 0
M  V30 35 C 1.107674 0.548539 2.593151 0
M  V30 36 C 1.422324 -0.077172 3.902773 0
M  V30 37 H 3.433459 1.501642 5.840775 0
M  V30 38 H 2.060786 2.018296 4.872677 0
M  V30 39 H 2.931884 -0.552184 5.304772 0
M  V30 40 H 4.516572 -0.959296 3.736847 0
M  V30 41 H 4.602321 0.764765 3.348881 0
M  V30 42 H 3.066944 -1.480503 1.920017 0
M  V30 43 H 4.212768 -0.260748 1.317712 0
M  V30 44 H 2.649857 1.536894 1.575322 0
M  V30 45 H 1.730085 0.964507 -0.439587 0
M  V30 46 H -0.486904 -3.229554 -3.622846 0
M  V30 47 H 0.944133 -0.873419 -4.419013 0
M  V30 48 H -0.516519 -1.596759 -5.245404 0
M  V30 49 H 0.458016 1.109069 -2.911573 0
M  V30 50 H -1.073873 2.906874 -2.351793 0
M  V30 51 H -5.446515 1.958288 -2.718843 0
M  V30 52 H -6.907522 3.767752 -2.122947 0
M  V30 53 H -6.003327 6.051462 -1.954246 0
M  V30 54 H -3.555227 6.453843 -2.412819 0
M  V30 55 H -2.090897 4.555481 -3.025383 0
M  V30 56 H -4.250082 0.828416 -4.279164 0
M  V30 57 H -2.676604 -0.953609 -4.817749 0
M  V30 58 H -0.352627 -6.410000 -0.192671 0
M  V30 59 H 1.555656 -5.776822 1.904298 0
M  V30 60 H -1.237663 -5.909455 1.611610 0
M  V30 61 H -0.232013 -6.771046 2.838686 0
M  V30 62 H -1.088371 -5.422602 4.476660 0
M  V30 63 H -2.256832 -4.729617 3.292824 0
M  V30 64 H -0.876339 -2.824962 2.861781 0
M  V30 65 H -0.395444 -3.249877 4.549688 0
M  V30 66 H 1.442556 -4.545803 3.903608 0
M  V30 67 H 1.650801 -3.205468 2.786320 0
M  V30 68 H 0.243545 -0.032915 2.154066 0
M  V30 69 H 0.696098 1.575736 2.723117 0
M  V30 70 H 1.133008 -1.160237 3.881490 0
M  V30 71 H 0.681745 0.364900 4.641982 0
M  V30 END ATOM
M  V30 BEGIN BOND
M  V30 1 1 1 2
M  V30 2 1 2 3
M  V30 3 1 3 4
M  V30 4 1 4 5
M  V30 5 1 5 6
M  V30 6 1 6 7
M  V30 7 2 7 8
M  V30 8 1 8 9
M  V30 9 1 9 10
M  V30 10 1 10 11
M  V30 11 1 11 12
M  V30 12 2 12 13
M  V30 13 1 13 14
M  V30 14 2 14 15
M  V30 15 1 15 16
M  V30 16 2 16 17
M  V30 17 1 17 18
M  V30 18 2 18 19
M  V30 19 1 19 20
M  V30 20 2 20 21
M  V30 21 1 15 22
M  V30 22 2 22 23
M  V30 23 2 9 24
M  V30 24 1 24 25
M  V30 25 2 25 26
M  V30 26 1 26 27
M  V30 27 1 27 28
M  V30 28 1 28 29
M  V30 29 1 29 30
M  V30 30 1 30 31
M  V30 31 1 31 32
M  V30 32 1 27 33
M  V30 33 2 33 34
M  V30 34 1 5 35
M  V30 35 1 35 36
M  V30 36 1 36 2
M  V30 37 1 34 7
M  V30 38 1 23 12
M  V30 39 1 33 24
M  V30 40 1 21 16
M  V30 41 1 32 28
M  V30 42 1 1 37
M  V30 43 1 1 38
M  V30 44 1 2 39
M  V30 45 1 3 40
M  V30 46 1 3 41
M  V30 47 1 4 42
M  V30 48 1 4 43
M  V30 49 1 5 44
M  V30 50 1 6 45
M  V30 51 1 10 46
M  V30 52 1 11 47
M  V30 53 1 11 48
M  V30 54 1 13 49
M  V30 55 1 14 50
M  V30 56 1 17 51
M  V30 57 1 18 52
M  V30 58 1 19 53
M  V30 59 1 20 54
M  V30 60 1 21 55
M  V30 61 1 22 56
M  V30 62 1 23 57
M  V30 63 1 26 58
M  V30 64 1 28 59
M  V30 65 1 29 60
M  V30 66 1 29 61
M  V30 67 1 30 62
M  V30 68 1 30 63
M  V30 69 1 31 64
M  V30 70 1 31 65
M  V30 71 1 32 66
M  V30 72 1 32 67
M  V30 73 1 35 68
M  V30 74 1 35 69
M  V30 75 1 36 70
M  V30 76 1 36 71
M  V30 END BOND
M  V30 END CTAB
M  END
>  <Dataset>  (71) 
ChEMBL_Kinases

>  <Ligand_Instance>  (71) 
nan

>  <PDB_ID>  (71) 
nan

>  <Standardized_SMILES>  (71) 
NC1CCC(Nc2nc(NCc3ccc(-c4ccccc4)cc3)c3ncn(C4CCCC4)c3n2)CC1

>  <Name>  (71) 
nan

>  <Pocket>  (71) 
nan

>  <ATP_Site>  (71) 
nan

>  <Peripheral>  (71) 
nan

>  <Num_H_Atoms_ProtBoundConf>  (71) 
nan

>  <Num_Resolved_Atoms>  (71) 
nan

>  <Num_Not_Resolved_Atoms>  (71) 
nan

$$$$
CHEMBL2402949
     RDKit          3D

  0  0  0  0  0  0  0  0  0  0999 V3000
M  V30 BEGIN CTAB
M  V30 COUNTS 65 69 0 0 0
M  V30 BEGIN ATOM
M  V30 1 C 3.039362 -0.499680 3.923319 0
M  V30 2 C 2.133061 -0.307968 2.727266 0
M  V30 3 C 2.903581 0.134799 1.510101 0 CFG=2
M  V30 4 C 3.587512 1.435329 1.793724 0
M  V30 5 O 2.705133 2.480817 2.005378 0
M  V30 6 N 2.084418 0.220769 0.337159 0
M  V30 7 C 1.390798 -0.873827 -0.249331 0
M  V30 8 N 0.633083 -0.706203 -1.345270 0
M  V30 9 C -0.049891 -1.680804 -1.961597 0
M  V30 10 N -0.797604 -1.340901 -3.102262 0
M  V30 11 C -0.975840 -0.084338 -3.760709 0
M  V30 12 C -1.588863 0.971846 -2.926269 0
M  V30 13 C -0.957118 1.916098 -2.154429 0
M  V30 14 C -1.662102 2.840769 -1.417840 0
M  V30 15 C -3.033818 2.883489 -1.403563 0
M  V30 16 C -3.839114 3.834813 -0.646909 0
M  V30 17 C -3.260590 4.804131 0.144749 0
M  V30 18 C -3.995221 5.703218 0.860354 0
M  V30 19 C -5.373942 5.679758 0.821141 0
M  V30 20 C -5.925780 4.696411 0.018551 0
M  V30 21 N -5.201105 3.809735 -0.687188 0
M  V30 22 C -3.701213 1.946128 -2.170652 0
M  V30 23 C -2.987764 1.023196 -2.905548 0
M  V30 24 C 0.076417 -2.923304 -1.377999 0
M  V30 25 N -0.500231 -4.090834 -1.784688 0
M  V30 26 C -0.103475 -5.066033 -0.918051 0
M  V30 27 N 0.699295 -4.454915 -0.017179 0
M  V30 28 C 1.359065 -5.118413 1.108319 0
M  V30 29 C 0.682972 -6.447095 1.370393 0
M  V30 30 C 0.890209 -6.605245 2.862592 0
M  V30 31 C 0.661639 -5.233840 3.425600 0
M  V30 32 C 1.173128 -4.295723 2.357575 0
M  V30 33 C 0.840185 -3.136141 -0.258836 0
M  V30 34 N 1.483882 -2.104026 0.284563 0
M  V30 35 H 2.425131 -0.992144 4.704634 0
M  V30 36 H 3.902062 -1.146805 3.629862 0
M  V30 37 H 3.367095 0.470049 4.346793 0
M  V30 38 H 1.370537 0.439454 3.035701 0
M  V30 39 H 1.627268 -1.258885 2.488767 0
M  V30 40 H 3.721997 -0.620350 1.364891 0
M  V30 41 H 4.301165 1.654460 0.960193 0
M  V30 42 H 4.213639 1.323701 2.699638 0
M  V30 43 H 2.717317 2.800780 2.948008 0
M  V30 44 H 1.986574 1.168948 -0.129458 0
M  V30 45 H -1.285796 -2.205844 -3.489329 0
M  V30 46 H -1.627847 -0.236451 -4.642809 0
M  V30 47 H 0.009555 0.300296 -4.167465 0
M  V30 48 H 0.113666 1.891104 -2.164740 0
M  V30 49 H -1.125744 3.559370 -0.829354 0
M  V30 50 H -2.209327 4.906142 0.242596 0
M  V30 51 H -3.563916 6.484480 1.497902 0
M  V30 52 H -6.073735 6.322169 1.329932 0
M  V30 53 H -6.992511 4.528450 -0.132750 0
M  V30 54 H -4.784191 1.941373 -2.190446 0
M  V30 55 H -3.567833 0.321429 -3.481012 0
M  V30 56 H -0.368119 -6.110066 -0.937097 0
M  V30 57 H 2.426424 -5.280844 0.943155 0
M  V30 58 H -0.387962 -6.414632 1.088784 0
M  V30 59 H 1.230569 -7.253324 0.834785 0
M  V30 60 H 1.953348 -6.896074 3.018739 0
M  V30 61 H 0.186783 -7.349061 3.295497 0
M  V30 62 H -0.395521 -5.041098 3.695523 0
M  V30 63 H 1.250986 -5.026661 4.343093 0
M  V30 64 H 0.395057 -3.519686 2.168581 0
M  V30 65 H 2.112193 -3.780103 2.669714 0
M  V30 END ATOM
M  V30 BEGIN BOND
M  V30 1 1 1 2
M  V30 2 1 2 3
M  V30 3 1 3 4
M  V30 4 1 4 5
M  V30 5 1 3 6
M  V30 6 1 6 7
M  V30 7 2 7 8
M  V30 8 1 8 9
M  V30 9 1 9 10
M  V30 10 1 10 11
M  V30 11 1 11 12
M  V30 12 2 12 13
M  V30 13 1 13 14
M  V30 14 2 14 15
M  V30 15 1 15 16
M  V30 16 2 16 17
M  V30 17 1 17 18
M  V30 18 2 18 19
M  V30 19 1 19 20
M  V30 20 2 20 21
M  V30 21 1 15 22
M  V30 22 2 22 23
M  V30 23 2 9 24
M  V30 24 1 24 25
M  V30 25 2 25 26
M  V30 26 1 26 27
M  V30 27 1 27 28
M  V30 28 1 28 29
M  V30 29 1 29 30
M  V30 30 1 30 31
M  V30 31 1 31 32
M  V30 32 1 27 33
M  V30 33 2 33 34
M  V30 34 1 34 7
M  V30 35 1 23 12
M  V30 36 1 33 24
M  V30 37 1 21 16
M  V30 38 1 32 28
M  V30 39 1 1 35
M  V30 40 1 1 36
M  V30 41 1 1 37
M  V30 42 1 2 38
M  V30 43 1 2 39
M  V30 44 1 3 40 CFG=3
M  V30 45 1 4 41
M  V30 46 1 4 42
M  V30 47 1 5 43
M  V30 48 1 6 44
M  V30 49 1 10 45
M  V30 50 1 11 46
M  V30 51 1 11 47
M  V30 52 1 13 48
M  V30 53 1 14 49
M  V30 54 1 17 50
M  V30 55 1 18 51
M  V30 56 1 19 52
M  V30 57 1 20 53
M  V30 58 1 22 54
M  V30 59 1 23 55
M  V30 60 1 26 56
M  V30 61 1 28 57
M  V30 62 1 29 58
M  V30 63 1 29 59
M  V30 64 1 30 60
M  V30 65 1 30 61
M  V30 66 1 31 62
M  V30 67 1 31 63
M  V30 68 1 32 64
M  V30 69 1 32 65
M  V30 END BOND
M  V30 END CTAB
M  END
>  <Dataset>  (72) 
ChEMBL_Kinases

>  <Ligand_Instance>  (72) 
nan

>  <PDB_ID>  (72) 
nan

>  <Standardized_SMILES>  (72) 
CC[C@H](CO)Nc1nc(NCc2ccc(-c3ccccn3)cc2)c2ncn(C3CCCC3)c2n1

>  <Name>  (72) 
nan

>  <Pocket>  (72) 
nan

>  <ATP_Site>  (72) 
nan

>  <Peripheral>  (72) 
nan

>  <Num_H_Atoms_ProtBoundConf>  (72) 
nan

>  <Num_Resolved_Atoms>  (72) 
nan

>  <Num_Not_Resolved_Atoms>  (72) 
nan

$$$$
CHEMBL2402948
     RDKit          3D

  0  0  0  0  0  0  0  0  0  0999 V3000
M  V30 BEGIN CTAB
M  V30 COUNTS 63 67 0 0 0
M  V30 BEGIN ATOM
M  V30 1 N 3.374273 -0.465495 4.886611 0
M  V30 2 C 4.594596 -0.033450 4.318610 0
M  V30 3 C 5.806856 -0.234850 4.941195 0
M  V30 4 C 7.028871 0.164775 4.434155 0
M  V30 5 C 6.976997 0.806952 3.214582 0
M  V30 6 C 5.787483 1.043728 2.529936 0
M  V30 7 C 4.585730 0.620381 3.085775 0
M  V30 8 C 3.290937 0.841425 2.410986 0
M  V30 9 N 2.753142 -0.347095 1.789435 0
M  V30 10 C 1.559461 -0.508711 1.073037 0
M  V30 11 N 0.764076 0.548059 0.911616 0
M  V30 12 C -0.410500 0.545274 0.251601 0
M  V30 13 N -1.175422 1.737289 0.143590 0
M  V30 14 C -2.425158 1.795740 -0.540802 0
M  V30 15 C -3.498644 0.890985 0.011302 0
M  V30 16 C -4.486212 0.714535 -1.121119 0
M  V30 17 C -4.913911 1.955750 -1.798028 0
M  V30 18 N -5.127087 1.640838 -3.221643 0
M  V30 19 C -4.023732 3.129668 -1.733847 0
M  V30 20 C -3.026153 3.157425 -0.629731 0
M  V30 21 N -0.797151 -0.626344 -0.281488 0
M  V30 22 C -0.055130 -1.752193 -0.168769 0
M  V30 23 C 1.138671 -1.698305 0.515863 0
M  V30 24 N 1.705049 -2.919810 0.503612 0
M  V30 25 C 0.894195 -3.762365 -0.179176 0
M  V30 26 N -0.154230 -3.032280 -0.570291 0
M  V30 27 C -1.258522 -3.575015 -1.336595 0
M  V30 28 C -0.905382 -4.849405 -2.047886 0
M  V30 29 C -1.470438 -5.916926 -1.138913 0
M  V30 30 C -2.829557 -5.335302 -0.797110 0
M  V30 31 C -2.455909 -3.898615 -0.459534 0
M  V30 32 H 3.011287 -1.409772 4.637227 0
M  V30 33 H 2.761665 0.077742 5.561555 0
M  V30 34 H 5.859044 -0.745859 5.913822 0
M  V30 35 H 7.966432 -0.006416 4.944590 0
M  V30 36 H 7.875971 1.160764 2.728838 0
M  V30 37 H 5.726828 1.544655 1.574445 0
M  V30 38 H 3.472824 1.590534 1.591687 0
M  V30 39 H 2.587904 1.292818 3.148000 0
M  V30 40 H 3.350555 -1.219973 1.892679 0
M  V30 41 H -0.817716 2.613812 0.579328 0
M  V30 42 H -2.238090 1.477042 -1.608098 0
M  V30 43 H -3.160532 -0.091874 0.331171 0
M  V30 44 H -4.024871 1.464893 0.801629 0
M  V30 45 H -3.959410 0.056803 -1.860544 0
M  V30 46 H -5.381187 0.141918 -0.800459 0
M  V30 47 H -5.945360 2.228854 -1.435426 0
M  V30 48 H -4.199153 1.375296 -3.639731 0
M  V30 49 H -5.696244 0.752040 -3.298779 0
M  V30 50 H -3.461782 3.274729 -2.702419 0
M  V30 51 H -4.656672 4.062043 -1.667691 0
M  V30 52 H -2.192446 3.856659 -0.918100 0
M  V30 53 H -3.467162 3.512647 0.337829 0
M  V30 54 H 1.172573 -4.791931 -0.301442 0
M  V30 55 H -1.537353 -2.789605 -2.094528 0
M  V30 56 H -1.501070 -4.890913 -2.986346 0
M  V30 57 H 0.175933 -4.964440 -2.238145 0
M  V30 58 H -0.914126 -5.968477 -0.198183 0
M  V30 59 H -1.563633 -6.895864 -1.650589 0
M  V30 60 H -3.499691 -5.335152 -1.664321 0
M  V30 61 H -3.245486 -5.822844 0.107932 0
M  V30 62 H -2.099319 -3.912072 0.579695 0
M  V30 63 H -3.302379 -3.207287 -0.642307 0
M  V30 END ATOM
M  V30 BEGIN BOND
M  V30 1 1 1 2
M  V30 2 2 2 3
M  V30 3 1 3 4
M  V30 4 2 4 5
M  V30 5 1 5 6
M  V30 6 2 6 7
M  V30 7 1 7 8
M  V30 8 1 8 9
M  V30 9 1 9 10
M  V30 10 2 10 11
M  V30 11 1 11 12
M  V30 12 1 12 13
M  V30 13 1 13 14
M  V30 14 1 14 15
M  V30 15 1 15 16
M  V30 16 1 16 17
M  V30 17 1 17 18
M  V30 18 1 17 19
M  V30 19 1 19 20
M  V30 20 2 12 21
M  V30 21 1 21 22
M  V30 22 2 22 23
M  V30 23 1 23 24
M  V30 24 2 24 25
M  V30 25 1 25 26
M  V30 26 1 26 27
M  V30 27 1 27 28
M  V30 28 1 28 29
M  V30 29 1 29 30
M  V30 30 1 30 31
M  V30 31 1 7 2
M  V30 32 1 23 10
M  V30 33 1 31 27
M  V30 34 1 20 14
M  V30 35 1 26 22
M  V30 36 1 1 32
M  V30 37 1 1 33
M  V30 38 1 3 34
M  V30 39 1 4 35
M  V30 40 1 5 36
M  V30 41 1 6 37
M  V30 42 1 8 38
M  V30 43 1 8 39
M  V30 44 1 9 40
M  V30 45 1 13 41
M  V30 46 1 14 42
M  V30 47 1 15 43
M  V30 48 1 15 44
M  V30 49 1 16 45
M  V30 50 1 16 46
M  V30 51 1 17 47
M  V30 52 1 18 48
M  V30 53 1 18 49
M  V30 54 1 19 50
M  V30 55 1 19 51
M  V30 56 1 20 52
M  V30 57 1 20 53
M  V30 58 1 25 54
M  V30 59 1 27 55
M  V30 60 1 28 56
M  V30 61 1 28 57
M  V30 62 1 29 58
M  V30 63 1 29 59
M  V30 64 1 30 60
M  V30 65 1 30 61
M  V30 66 1 31 62
M  V30 67 1 31 63
M  V30 END BOND
M  V30 END CTAB
M  END
>  <Dataset>  (73) 
ChEMBL_Kinases

>  <Ligand_Instance>  (73) 
nan

>  <PDB_ID>  (73) 
nan

>  <Standardized_SMILES>  (73) 
Nc1ccccc1CNc1nc(NC2CCC(N)CC2)nc2c1ncn2C1CCCC1

>  <Name>  (73) 
nan

>  <Pocket>  (73) 
nan

>  <ATP_Site>  (73) 
nan

>  <Peripheral>  (73) 
nan

>  <Num_H_Atoms_ProtBoundConf>  (73) 
nan

>  <Num_Resolved_Atoms>  (73) 
nan

>  <Num_Not_Resolved_Atoms>  (73) 
nan

$$$$
CHEMBL2402947
     RDKit          3D

  0  0  0  0  0  0  0  0  0  0999 V3000
M  V30 BEGIN CTAB
M  V30 COUNTS 62 66 0 0 0
M  V30 BEGIN ATOM
M  V30 1 N 1.361019 -0.559038 5.812974 0
M  V30 2 C 0.784515 -1.708973 5.151821 0
M  V30 3 C 1.694349 -2.257640 4.106873 0
M  V30 4 C 1.699373 -1.482531 2.809949 0
M  V30 5 C 0.955635 -0.169328 2.941709 0
M  V30 6 N 0.993808 0.529043 1.678027 0
M  V30 7 C 0.482852 0.054634 0.423542 0
M  V30 8 N 0.554984 0.767084 -0.711705 0
M  V30 9 C 0.084148 0.340014 -1.889446 0
M  V30 10 N 0.213138 1.173205 -3.009298 0
M  V30 11 C 0.834324 2.495251 -2.996531 0
M  V30 12 C 0.136535 3.405293 -2.059307 0
M  V30 13 C 0.729422 3.703752 -0.838227 0
M  V30 14 C 0.097846 4.561802 0.064895 0
M  V30 15 Cl 0.811935 4.971468 1.627785 0
M  V30 16 C -1.122059 5.136547 -0.219766 0
M  V30 17 C -1.666461 4.803087 -1.452388 0
M  V30 18 C -1.079345 3.960875 -2.375345 0
M  V30 19 O -1.679511 3.675226 -3.580730 0
M  V30 20 C -0.515701 -0.894001 -1.988649 0
M  V30 21 N -1.076565 -1.604856 -2.980005 0
M  V30 22 C -1.516669 -2.793471 -2.475025 0
M  V30 23 N -1.224170 -2.812801 -1.165447 0
M  V30 24 C -1.467384 -3.822665 -0.163324 0
M  V30 25 C -2.343104 -4.890165 -0.757651 0
M  V30 26 C -1.420789 -5.830128 -1.466936 0
M  V30 27 C -0.010780 -5.282857 -1.260882 0
M  V30 28 C -0.169177 -4.563878 0.068255 0
M  V30 29 C -0.604480 -1.648947 -0.839654 0
M  V30 30 N -0.108594 -1.142223 0.286107 0
M  V30 31 C -0.454465 -0.494529 3.316839 0
M  V30 32 C -0.534670 -1.351039 4.557031 0
M  V30 33 H 2.117987 -0.763569 6.471656 0
M  V30 34 H 0.688838 0.157309 6.108617 0
M  V30 35 H 0.619597 -2.511972 5.902599 0
M  V30 36 H 1.378551 -3.312205 3.900815 0
M  V30 37 H 2.730340 -2.297802 4.495588 0
M  V30 38 H 1.184027 -2.074333 2.026687 0
M  V30 39 H 2.727722 -1.309153 2.470593 0
M  V30 40 H 1.449724 0.498527 3.687517 0
M  V30 41 H 1.426553 1.482287 1.611496 0
M  V30 42 H -0.162432 0.838351 -3.947470 0
M  V30 43 H 0.854049 2.939690 -3.999164 0
M  V30 44 H 1.894648 2.378046 -2.675082 0
M  V30 45 H 1.683726 3.312474 -0.510436 0
M  V30 46 H -1.637829 5.804910 0.456500 0
M  V30 47 H -2.634886 5.245636 -1.704048 0
M  V30 48 H -2.673307 3.649327 -3.697855 0
M  V30 49 H -2.005267 -3.575255 -3.004489 0
M  V30 50 H -1.879602 -3.400987 0.774420 0
M  V30 51 H -3.123327 -4.462341 -1.425220 0
M  V30 52 H -2.820453 -5.410747 0.116690 0
M  V30 53 H -1.624476 -5.894591 -2.543838 0
M  V30 54 H -1.467434 -6.834577 -0.990259 0
M  V30 55 H 0.182314 -4.528131 -2.038475 0
M  V30 56 H 0.753029 -6.078374 -1.223428 0
M  V30 57 H 0.676923 -3.874848 0.264409 0
M  V30 58 H -0.361261 -5.286248 0.890671 0
M  V30 59 H -0.958695 -0.995908 2.476814 0
M  V30 60 H -1.021744 0.437839 3.531710 0
M  V30 61 H -1.189387 -0.902607 5.341349 0
M  V30 62 H -1.049068 -2.321198 4.299850 0
M  V30 END ATOM
M  V30 BEGIN BOND
M  V30 1 1 1 2
M  V30 2 1 2 3
M  V30 3 1 3 4
M  V30 4 1 4 5
M  V30 5 1 5 6
M  V30 6 1 6 7
M  V30 7 2 7 8
M  V30 8 1 8 9
M  V30 9 1 9 10
M  V30 10 1 10 11
M  V30 11 1 11 12
M  V30 12 2 12 13
M  V30 13 1 13 14
M  V30 14 1 14 15
M  V30 15 2 14 16
M  V30 16 1 16 17
M  V30 17 2 17 18
M  V30 18 1 18 19
M  V30 19 2 9 20
M  V30 20 1 20 21
M  V30 21 2 21 22
M  V30 22 1 22 23
M  V30 23 1 23 24
M  V30 24 1 24 25
M  V30 25 1 25 26
M  V30 26 1 26 27
M  V30 27 1 27 28
M  V30 28 1 23 29
M  V30 29 2 29 30
M  V30 30 1 5 31
M  V30 31 1 31 32
M  V30 32 1 32 2
M  V30 33 1 30 7
M  V30 34 1 18 12
M  V30 35 1 29 20
M  V30 36 1 28 24
M  V30 37 1 1 33
M  V30 38 1 1 34
M  V30 39 1 2 35
M  V30 40 1 3 36
M  V30 41 1 3 37
M  V30 42 1 4 38
M  V30 43 1 4 39
M  V30 44 1 5 40
M  V30 45 1 6 41
M  V30 46 1 10 42
M  V30 47 1 11 43
M  V30 48 1 11 44
M  V30 49 1 13 45
M  V30 50 1 16 46
M  V30 51 1 17 47
M  V30 52 1 19 48
M  V30 53 1 22 49
M  V30 54 1 24 50
M  V30 55 1 25 51
M  V30 56 1 25 52
M  V30 57 1 26 53
M  V30 58 1 26 54
M  V30 59 1 27 55
M  V30 60 1 27 56
M  V30 61 1 28 57
M  V30 62 1 28 58
M  V30 63 1 31 59
M  V30 64 1 31 60
M  V30 65 1 32 61
M  V30 66 1 32 62
M  V30 END BOND
M  V30 END CTAB
M  END
>  <Dataset>  (74) 
ChEMBL_Kinases

>  <Ligand_Instance>  (74) 
nan

>  <PDB_ID>  (74) 
nan

>  <Standardized_SMILES>  (74) 
NC1CCC(Nc2nc(NCc3cc(Cl)ccc3O)c3ncn(C4CCCC4)c3n2)CC1

>  <Name>  (74) 
nan

>  <Pocket>  (74) 
nan

>  <ATP_Site>  (74) 
nan

>  <Peripheral>  (74) 
nan

>  <Num_H_Atoms_ProtBoundConf>  (74) 
nan

>  <Num_Resolved_Atoms>  (74) 
nan

>  <Num_Not_Resolved_Atoms>  (74) 
nan

$$$$
CHEMBL2402946
     RDKit          3D

  0  0  0  0  0  0  0  0  0  0999 V3000
M  V30 BEGIN CTAB
M  V30 COUNTS 71 76 0 0 0
M  V30 BEGIN ATOM
M  V30 1 N -1.540479 -4.230573 3.670131 0
M  V30 2 C -0.443825 -5.129083 3.456953 0
M  V30 3 C 0.840607 -4.339681 3.613137 0
M  V30 4 C 0.886641 -3.144462 2.700220 0
M  V30 5 C -0.145475 -3.130921 1.636343 0
M  V30 6 N 0.449057 -2.439881 0.479656 0
M  V30 7 C 0.883839 -1.095073 0.628064 0
M  V30 8 N 1.428702 -0.425391 -0.388020 0
M  V30 9 C 1.872574 0.819716 -0.388173 0
M  V30 10 N 2.446237 1.485378 -1.500127 0
M  V30 11 C 2.672528 0.992578 -2.836240 0
M  V30 12 C 1.407148 0.615696 -3.475919 0
M  V30 13 C 0.711255 1.594306 -4.154663 0
M  V30 14 C -0.474916 1.269739 -4.769844 0
M  V30 15 C -1.058068 0.031420 -4.778989 0
M  V30 16 C -2.288965 -0.397773 -5.391999 0
M  V30 17 C -2.657346 -1.718400 -5.250676 0
M  V30 18 C -3.808988 -2.235655 -5.792784 0
M  V30 19 C -4.672125 -1.445381 -6.520038 0
M  V30 20 C -4.339303 -0.118604 -6.684126 0
M  V30 21 C -3.173598 0.342611 -6.118399 0
M  V30 22 O -2.914827 1.683959 -6.330371 0
M  V30 23 N -0.333751 -0.876567 -4.102748 0
M  V30 24 C 0.822156 -0.631348 -3.484057 0
M  V30 25 C 1.733090 1.469242 0.843291 0
M  V30 26 N 2.068162 2.731274 1.224316 0
M  V30 27 C 1.730405 2.876984 2.517759 0
M  V30 28 N 1.194268 1.718100 2.926115 0
M  V30 29 C 0.683451 1.392932 4.236794 0
M  V30 30 C 1.194915 2.280415 5.325438 0
M  V30 31 C 0.035016 2.253660 6.328709 0
M  V30 32 C -1.141190 2.471367 5.395095 0
M  V30 33 C -0.822369 1.447594 4.299838 0
M  V30 34 C 1.175084 0.810072 1.915466 0
M  V30 35 N 0.758071 -0.463298 1.792971 0
M  V30 36 C -0.643775 -4.438321 1.147006 0
M  V30 37 C -0.394618 -5.624030 2.005724 0
M  V30 38 H -2.430080 -4.761099 3.808348 0
M  V30 39 H -1.365795 -3.715887 4.550736 0
M  V30 40 H -0.397137 -5.972954 4.164443 0
M  V30 41 H 1.657434 -5.032008 3.279117 0
M  V30 42 H 1.066331 -4.109782 4.661459 0
M  V30 43 H 1.912117 -3.019568 2.280954 0
M  V30 44 H 0.737426 -2.259304 3.354441 0
M  V30 45 H -1.003263 -2.463640 1.936376 0
M  V30 46 H 0.567081 -2.908327 -0.467323 0
M  V30 47 H 2.758446 2.491108 -1.342089 0
M  V30 48 H 3.274266 1.663650 -3.449245 0
M  V30 49 H 3.254281 0.032142 -2.707284 0
M  V30 50 H 1.091747 2.599709 -4.202364 0
M  V30 51 H -0.982189 2.064941 -5.286825 0
M  V30 52 H -2.042719 -2.440236 -4.689513 0
M  V30 53 H -4.064789 -3.274552 -5.661450 0
M  V30 54 H -5.562719 -1.890191 -6.927073 0
M  V30 55 H -5.002662 0.516974 -7.250729 0
M  V30 56 H -3.578731 2.338011 -5.896703 0
M  V30 57 H 1.329337 -1.421816 -2.974172 0
M  V30 58 H 1.881756 3.779599 3.083380 0
M  V30 59 H 0.994553 0.352329 4.493973 0
M  V30 60 H 2.091615 1.834156 5.828000 0
M  V30 61 H 1.413024 3.318822 5.014213 0
M  V30 62 H -0.026071 1.231829 6.726159 0
M  V30 63 H 0.124413 3.046769 7.090313 0
M  V30 64 H -2.108006 2.297110 5.877643 0
M  V30 65 H -1.022967 3.459407 4.926353 0
M  V30 66 H -1.262352 1.726699 3.324506 0
M  V30 67 H -1.255461 0.472493 4.632598 0
M  V30 68 H -1.756184 -4.373330 1.004399 0
M  V30 69 H -0.268947 -4.691030 0.115060 0
M  V30 70 H 0.635889 -6.021680 1.862946 0
M  V30 71 H -1.161960 -6.402375 1.933092 0
M  V30 END ATOM
M  V30 BEGIN BOND
M  V30 1 1 1 2
M  V30 2 1 2 3
M  V30 3 1 3 4
M  V30 4 1 4 5
M  V30 5 1 5 6
M  V30 6 1 6 7
M  V30 7 2 7 8
M  V30 8 1 8 9
M  V30 9 1 9 10
M  V30 10 1 10 11
M  V30 11 1 11 12
M  V30 12 2 12 13
M  V30 13 1 13 14
M  V30 14 2 14 15
M  V30 15 1 15 16
M  V30 16 2 16 17
M  V30 17 1 17 18
M  V30 18 2 18 19
M  V30 19 1 19 20
M  V30 20 2 20 21
M  V30 21 1 21 22
M  V30 22 1 15 23
M  V30 23 2 23 24
M  V30 24 2 9 25
M  V30 25 1 25 26
M  V30 26 2 26 27
M  V30 27 1 27 28
M  V30 28 1 28 29
M  V30 29 1 29 30
M  V30 30 1 30 31
M  V30 31 1 31 32
M  V30 32 1 32 33
M  V30 33 1 28 34
M  V30 34 2 34 35
M  V30 35 1 5 36
M  V30 36 1 36 37
M  V30 37 1 37 2
M  V30 38 1 35 7
M  V30 39 1 24 12
M  V30 40 1 34 25
M  V30 41 1 21 16
M  V30 42 1 33 29
M  V30 43 1 1 38
M  V30 44 1 1 39
M  V30 45 1 2 40
M  V30 46 1 3 41
M  V30 47 1 3 42
M  V30 48 1 4 43
M  V30 49 1 4 44
M  V30 50 1 5 45
M  V30 51 1 6 46
M  V30 52 1 10 47
M  V30 53 1 11 48
M  V30 54 1 11 49
M  V30 55 1 13 50
M  V30 56 1 14 51
M  V30 57 1 17 52
M  V30 58 1 18 53
M  V30 59 1 19 54
M  V30 60 1 20 55
M  V30 61 1 22 56
M  V30 62 1 24 57
M  V30 63 1 27 58
M  V30 64 1 29 59
M  V30 65 1 30 60
M  V30 66 1 30 61
M  V30 67 1 31 62
M  V30 68 1 31 63
M  V30 69 1 32 64
M  V30 70 1 32 65
M  V30 71 1 33 66
M  V30 72 1 33 67
M  V30 73 1 36 68
M  V30 74 1 36 69
M  V30 75 1 37 70
M  V30 76 1 37 71
M  V30 END BOND
M  V30 END CTAB
M  END
>  <Dataset>  (75) 
ChEMBL_Kinases

>  <Ligand_Instance>  (75) 
nan

>  <PDB_ID>  (75) 
nan

>  <Standardized_SMILES>  (75) 
NC1CCC(Nc2nc(NCc3ccc(-c4ccccc4O)nc3)c3ncn(C4CCCC4)c3n2)CC1

>  <Name>  (75) 
nan

>  <Pocket>  (75) 
nan

>  <ATP_Site>  (75) 
nan

>  <Peripheral>  (75) 
nan

>  <Num_H_Atoms_ProtBoundConf>  (75) 
nan

>  <Num_Resolved_Atoms>  (75) 
nan

>  <Num_Not_Resolved_Atoms>  (75) 
nan

$$$$
CHEMBL2403365
     RDKit          3D

  0  0  0  0  0  0  0  0  0  0999 V3000
M  V30 BEGIN CTAB
M  V30 COUNTS 51 53 0 0 0
M  V30 BEGIN ATOM
M  V30 1 C 3.363926 -8.082394 -1.756317 0
M  V30 2 O 3.423829 -6.656384 -1.633837 0
M  V30 3 C 2.243406 -6.058140 -1.214367 0
M  V30 4 C 1.097848 -6.804488 -0.938366 0
M  V30 5 C -0.108117 -6.285311 -0.518857 0
M  V30 6 C -0.192672 -4.898896 -0.355913 0
M  V30 7 C 0.941322 -4.165065 -0.629569 0
M  V30 8 C 2.145736 -4.690895 -1.049323 0
M  V30 9 C 0.586674 -2.769729 -0.383068 0
M  V30 10 C 1.240504 -1.633614 -0.518742 0
M  V30 11 C 0.877855 -0.251297 -0.263339 0
M  V30 12 N 0.923228 0.686216 -1.203707 0
M  V30 13 C 0.586483 1.898872 -0.727455 0
M  V30 14 C 0.558419 3.135235 -1.591553 0
M  V30 15 C 0.299318 1.764110 0.611553 0
M  V30 16 C -0.101527 2.908703 1.402528 0
M  V30 17 O -0.202936 4.041779 0.854336 0
M  V30 18 N -0.424012 2.995520 2.778768 0
M  V30 19 C -0.808878 4.208305 3.427332 0
M  V30 20 C -2.058344 4.848416 2.866171 0
M  V30 21 C -3.251381 3.920348 2.978673 0
M  V30 22 N -3.549275 3.555232 4.338778 0
M  V30 23 C 0.487585 0.428741 0.872807 0
M  V30 24 C 0.322356 -0.159927 2.223545 0
M  V30 25 C -0.794655 -2.723178 0.042117 0
M  V30 26 O -1.540076 -1.793944 0.357793 0
M  V30 27 N -1.267414 -4.063524 0.054302 0
M  V30 28 H 4.337980 -8.530436 -1.978855 0
M  V30 29 H 3.033658 -8.534542 -0.779340 0
M  V30 30 H 2.559571 -8.329217 -2.481826 0
M  V30 31 H 1.116096 -7.899203 -1.052504 0
M  V30 32 H -0.954885 -6.928893 -0.324182 0
M  V30 33 H 3.001814 -4.031907 -1.245274 0
M  V30 34 H 2.272935 -1.727308 -0.900328 0
M  V30 35 H 1.192082 0.517936 -2.220932 0
M  V30 36 H -0.466916 3.543915 -1.701138 0
M  V30 37 H 1.156088 3.915824 -1.073470 0
M  V30 38 H 1.047087 2.953958 -2.553909 0
M  V30 39 H -0.366796 2.106433 3.319357 0
M  V30 40 H -1.030416 4.009636 4.497054 0
M  V30 41 H 0.026213 4.960667 3.459222 0
M  V30 42 H -2.226269 5.762226 3.481737 0
M  V30 43 H -1.972148 5.196493 1.831846 0
M  V30 44 H -3.120621 2.998065 2.404765 0
M  V30 45 H -4.153148 4.429782 2.581950 0
M  V30 46 H -3.674126 2.544739 4.491794 0
M  V30 47 H -2.997554 4.074160 5.027430 0
M  V30 48 H 1.057694 0.261550 2.926603 0
M  V30 49 H 0.550024 -1.268236 2.165267 0
M  V30 50 H -0.727480 -0.082937 2.518045 0
M  V30 51 H -2.212382 -4.424103 0.307057 0
M  V30 END ATOM
M  V30 BEGIN BOND
M  V30 1 1 1 2
M  V30 2 1 2 3
M  V30 3 2 3 4
M  V30 4 1 4 5
M  V30 5 2 5 6
M  V30 6 1 6 7
M  V30 7 2 7 8
M  V30 8 1 7 9
M  V30 9 2 9 10
M  V30 10 1 10 11
M  V30 11 1 11 12
M  V30 12 1 12 13
M  V30 13 1 13 14
M  V30 14 2 13 15
M  V30 15 1 15 16
M  V30 16 2 16 17
M  V30 17 1 16 18
M  V30 18 1 18 19
M  V30 19 1 19 20
M  V30 20 1 20 21
M  V30 21 1 21 22
M  V30 22 1 15 23
M  V30 23 1 23 24
M  V30 24 1 9 25
M  V30 25 2 25 26
M  V30 26 1 25 27
M  V30 27 1 8 3
M  V30 28 2 23 11
M  V30 29 1 27 6
M  V30 30 1 1 28
M  V30 31 1 1 29
M  V30 32 1 1 30
M  V30 33 1 4 31
M  V30 34 1 5 32
M  V30 35 1 8 33
M  V30 36 1 10 34
M  V30 37 1 12 35
M  V30 38 1 14 36
M  V30 39 1 14 37
M  V30 40 1 14 38
M  V30 41 1 18 39
M  V30 42 1 19 40
M  V30 43 1 19 41
M  V30 44 1 20 42
M  V30 45 1 20 43
M  V30 46 1 21 44
M  V30 47 1 21 45
M  V30 48 1 22 46
M  V30 49 1 22 47
M  V30 50 1 24 48
M  V30 51 1 24 49
M  V30 52 1 24 50
M  V30 53 1 27 51
M  V30 END BOND
M  V30 END CTAB
M  END
>  <Dataset>  (76) 
ChEMBL_Kinases

>  <Ligand_Instance>  (76) 
nan

>  <PDB_ID>  (76) 
nan

>  <Standardized_SMILES>  (76) 
COc1ccc2c(c1)/C(=C/c1[nH]c(C)c(C(=O)NCCCN)c1C)C(=O)N2

>  <Name>  (76) 
nan

>  <Pocket>  (76) 
nan

>  <ATP_Site>  (76) 
nan

>  <Peripheral>  (76) 
nan

>  <Num_H_Atoms_ProtBoundConf>  (76) 
nan

>  <Num_Resolved_Atoms>  (76) 
nan

>  <Num_Not_Resolved_Atoms>  (76) 
nan

$$$$
CHEMBL2398652
     RDKit          3D

  0  0  0  0  0  0  0  0  0  0999 V3000
M  V30 BEGIN CTAB
M  V30 COUNTS 73 78 0 0 0
M  V30 BEGIN ATOM
M  V30 1 O 2.870638 3.794706 2.982951 0
M  V30 2 C 3.897683 3.129524 2.818026 0
M  V30 3 N 3.821939 1.802884 2.336085 0
M  V30 4 C 2.636445 1.099905 1.985391 0
M  V30 5 C 2.309983 1.224758 0.631995 0
M  V30 6 C 1.192436 0.628687 0.089778 0
M  V30 7 C 0.349166 -0.130072 0.916051 0
M  V30 8 C -0.838314 -0.744983 0.276100 0
M  V30 9 C -0.631239 -2.151353 -0.201476 0
M  V30 10 N -1.861808 -2.665567 -0.838092 0
M  V30 11 C -2.274177 -2.092045 -2.067549 0
M  V30 12 N -1.586173 -1.132456 -2.658642 0
M  V30 13 C -1.965272 -0.594847 -3.822645 0
M  V30 14 N -3.072695 -0.995222 -4.469690 0
M  V30 15 C -3.844932 -1.981024 -3.932261 0
M  V30 16 O -4.961223 -2.585021 -4.303584 0
M  V30 17 C -5.309556 -3.480487 -3.433147 0
M  V30 18 C -6.505805 -4.297142 -3.593163 0
M  V30 19 C -6.475980 -5.055101 -4.753617 0
M  V30 20 C -7.514121 -5.919297 -5.126232 0
M  V30 21 C -8.613573 -6.004326 -4.276094 0
M  V30 22 C -8.653623 -5.250421 -3.112859 0
M  V30 23 C -7.614152 -4.410431 -2.778000 0
M  V30 24 C -4.356160 -3.458572 -2.423812 0
M  V30 25 C -4.451012 -4.339725 -1.289973 0
M  V30 26 C -3.954158 -5.623553 -1.222265 0
M  V30 27 C -4.097189 -6.416772 -0.087639 0
M  V30 28 C -4.763061 -5.864068 0.982641 0
M  V30 29 C -5.297772 -4.577784 1.005434 0
M  V30 30 C -5.107556 -3.854235 -0.175282 0
M  V30 31 C -3.414095 -2.514878 -2.717355 0
M  V30 32 C 0.670644 -0.254236 2.252416 0
M  V30 33 C 1.795090 0.351920 2.773500 0
M  V30 34 N 5.219202 3.526588 3.056060 0
M  V30 35 C 5.786324 4.731576 3.537982 0
M  V30 36 C 6.612606 4.559705 4.803787 0
M  V30 37 C 7.647018 3.523283 4.552424 0
M  V30 38 C 8.428704 3.807667 3.333415 0
M  V30 39 C 8.044538 4.919907 2.458521 0
M  V30 40 C 6.658088 5.475823 2.568558 0
M  V30 41 H 4.581915 1.084677 2.141721 0
M  V30 42 H 2.905163 1.794760 -0.081830 0
M  V30 43 H 0.938341 0.726371 -0.965895 0
M  V30 44 H -1.640229 -0.709929 1.051864 0
M  V30 45 H -1.168194 -0.122929 -0.581216 0
M  V30 46 H 0.138658 -2.154258 -0.997115 0
M  V30 47 H -0.270583 -2.826906 0.599230 0
M  V30 48 H -2.308856 -3.427743 -0.292725 0
M  V30 49 H -1.297042 0.186543 -4.183709 0
M  V30 50 H -5.656066 -5.059598 -5.493246 0
M  V30 51 H -7.506041 -6.510575 -6.020546 0
M  V30 52 H -9.490257 -6.634065 -4.447816 0
M  V30 53 H -9.469218 -5.255391 -2.391923 0
M  V30 54 H -7.543946 -3.782230 -1.897446 0
M  V30 55 H -3.447017 -5.999792 -2.085369 0
M  V30 56 H -3.712839 -7.412410 -0.031081 0
M  V30 57 H -4.883859 -6.467225 1.874281 0
M  V30 58 H -5.814257 -4.158509 1.847442 0
M  V30 59 H -5.518318 -2.842168 -0.174158 0
M  V30 60 H 0.030892 -0.838065 2.892449 0
M  V30 61 H 2.101410 0.294569 3.799335 0
M  V30 62 H 6.084980 2.966148 2.908748 0
M  V30 63 H 4.952198 5.412666 3.831930 0
M  V30 64 H 7.134838 5.519797 5.002195 0
M  V30 65 H 5.921900 4.285234 5.629104 0
M  V30 66 H 8.284083 3.489068 5.489777 0
M  V30 67 H 7.189879 2.488919 4.547163 0
M  V30 68 H 9.510865 3.911763 3.655835 0
M  V30 69 H 8.465564 2.840051 2.740748 0
M  V30 70 H 8.144056 4.588699 1.380634 0
M  V30 71 H 8.836791 5.723201 2.523515 0
M  V30 72 H 6.175379 5.699913 1.595923 0
M  V30 73 H 6.793680 6.500478 3.017569 0
M  V30 END ATOM
M  V30 BEGIN BOND
M  V30 1 2 1 2
M  V30 2 1 2 3
M  V30 3 1 3 4
M  V30 4 2 4 5
M  V30 5 1 5 6
M  V30 6 2 6 7
M  V30 7 1 7 8
M  V30 8 1 8 9
M  V30 9 1 9 10
M  V30 10 1 10 11
M  V30 11 2 11 12
M  V30 12 1 12 13
M  V30 13 2 13 14
M  V30 14 1 14 15
M  V30 15 1 15 16
M  V30 16 1 16 17
M  V30 17 1 17 18
M  V30 18 2 18 19
M  V30 19 1 19 20
M  V30 20 2 20 21
M  V30 21 1 21 22
M  V30 22 2 22 23
M  V30 23 2 17 24
M  V30 24 1 24 25
M  V30 25 2 25 26
M  V30 26 1 26 27
M  V30 27 2 27 28
M  V30 28 1 28 29
M  V30 29 2 29 30
M  V30 30 1 24 31
M  V30 31 1 7 32
M  V30 32 2 32 33
M  V30 33 1 2 34
M  V30 34 1 34 35
M  V30 35 1 35 36
M  V30 36 1 36 37
M  V30 37 1 37 38
M  V30 38 1 38 39
M  V30 39 1 39 40
M  V30 40 1 33 4
M  V30 41 1 40 35
M  V30 42 1 31 11
M  V30 43 2 31 15
M  V30 44 1 23 18
M  V30 45 1 30 25
M  V30 46 1 3 41
M  V30 47 1 5 42
M  V30 48 1 6 43
M  V30 49 1 8 44
M  V30 50 1 8 45
M  V30 51 1 9 46
M  V30 52 1 9 47
M  V30 53 1 10 48
M  V30 54 1 13 49
M  V30 55 1 19 50
M  V30 56 1 20 51
M  V30 57 1 21 52
M  V30 58 1 22 53
M  V30 59 1 23 54
M  V30 60 1 26 55
M  V30 61 1 27 56
M  V30 62 1 28 57
M  V30 63 1 29 58
M  V30 64 1 30 59
M  V30 65 1 32 60
M  V30 66 1 33 61
M  V30 67 1 34 62
M  V30 68 1 35 63
M  V30 69 1 36 64
M  V30 70 1 36 65
M  V30 71 1 37 66
M  V30 72 1 37 67
M  V30 73 1 38 68
M  V30 74 1 38 69
M  V30 75 1 39 70
M  V30 76 1 39 71
M  V30 77 1 40 72
M  V30 78 1 40 73
M  V30 END BOND
M  V30 END CTAB
M  END
>  <Dataset>  (77) 
ChEMBL_Kinases

>  <Ligand_Instance>  (77) 
nan

>  <PDB_ID>  (77) 
nan

>  <Standardized_SMILES>  (77) 
O=C(Nc1ccc(CCNc2ncnc3oc(-c4ccccc4)c(-c4ccccc4)c23)cc1)NC1CCCCC1

>  <Name>  (77) 
nan

>  <Pocket>  (77) 
nan

>  <ATP_Site>  (77) 
nan

>  <Peripheral>  (77) 
nan

>  <Num_H_Atoms_ProtBoundConf>  (77) 
nan

>  <Num_Resolved_Atoms>  (77) 
nan

>  <Num_Not_Resolved_Atoms>  (77) 
nan

$$$$
CHEMBL2398653
     RDKit          3D

  0  0  0  0  0  0  0  0  0  0999 V3000
M  V30 BEGIN CTAB
M  V30 COUNTS 71 76 0 0 0
M  V30 BEGIN ATOM
M  V30 1 C 6.631062 -4.431628 5.090120 0
M  V30 2 O 5.651457 -4.802950 4.161122 0
M  V30 3 C 5.378619 -4.013082 3.052851 0
M  V30 4 C 6.048208 -2.837416 2.811282 0
M  V30 5 C 5.745454 -2.078602 1.693275 0
M  V30 6 C 4.783528 -2.482386 0.818013 0
M  V30 7 N 4.322977 -1.865291 -0.373737 0
M  V30 8 C 3.306296 -0.929053 -0.675427 0
M  V30 9 O 2.547054 -0.429327 0.194576 0
M  V30 10 N 3.226213 -0.608082 -2.057309 0
M  V30 11 C 2.204578 0.345147 -2.432969 0
M  V30 12 C 2.415640 1.709105 -2.474826 0
M  V30 13 C 1.349534 2.536892 -2.854835 0
M  V30 14 C 0.106505 2.003237 -3.183104 0
M  V30 15 C -1.029681 2.868036 -3.592570 0
M  V30 16 C -1.851270 3.321033 -2.394463 0
M  V30 17 N -2.424647 2.245986 -1.640584 0
M  V30 18 C -3.347995 1.336481 -2.219432 0
M  V30 19 N -3.718184 1.474809 -3.510467 0
M  V30 20 C -4.597483 0.625655 -4.071923 0
M  V30 21 N -5.147920 -0.400294 -3.372084 0
M  V30 22 C -4.828596 -0.605296 -2.077056 0
M  V30 23 O -5.140536 -1.443671 -1.133740 0
M  V30 24 C -4.509656 -1.173065 -0.010359 0
M  V30 25 C -4.710577 -1.992710 1.192193 0
M  V30 26 C -3.535443 -2.613649 1.560376 0
M  V30 27 C -3.497780 -3.443875 2.683433 0
M  V30 28 C -4.649217 -3.651585 3.441749 0
M  V30 29 C -5.806271 -3.012654 3.041370 0
M  V30 30 C -5.855037 -2.194152 1.938909 0
M  V30 31 C -3.705178 -0.048885 -0.236268 0
M  V30 32 C -2.923430 0.426558 0.868798 0
M  V30 33 C -3.681752 1.319091 1.635684 0
M  V30 34 C -3.152351 1.918885 2.783199 0
M  V30 35 C -1.841495 1.624555 3.175809 0
M  V30 36 C -1.110392 0.743298 2.407716 0
M  V30 37 C -1.625354 0.153840 1.283089 0
M  V30 38 C -3.925274 0.286134 -1.540965 0
M  V30 39 C -0.046454 0.616883 -3.122202 0
M  V30 40 C 0.980376 -0.261669 -2.749888 0
M  V30 41 C 4.106829 -3.680708 1.071834 0
M  V30 42 C 4.391376 -4.462103 2.187473 0
M  V30 43 H 6.563162 -3.331441 5.318053 0
M  V30 44 H 7.650601 -4.658404 4.683636 0
M  V30 45 H 6.497212 -5.010185 6.037581 0
M  V30 46 H 6.820702 -2.478596 3.481235 0
M  V30 47 H 6.218253 -1.146229 1.425520 0
M  V30 48 H 4.962760 -2.293009 -1.067388 0
M  V30 49 H 3.841502 -1.005722 -2.802134 0
M  V30 50 H 3.393342 2.090117 -2.213516 0
M  V30 51 H 1.506788 3.609628 -2.890353 0
M  V30 52 H -0.653752 3.774521 -4.117379 0
M  V30 53 H -1.666761 2.330319 -4.288152 0
M  V30 54 H -1.133289 3.912047 -1.777712 0
M  V30 55 H -2.614653 4.075539 -2.705970 0
M  V30 56 H -2.126543 2.176382 -0.648231 0
M  V30 57 H -4.846294 0.802995 -5.119136 0
M  V30 58 H -2.549775 -2.586753 1.116566 0
M  V30 59 H -2.633202 -3.981918 3.066078 0
M  V30 60 H -4.659025 -4.289891 4.321652 0
M  V30 61 H -6.742619 -3.128831 3.585505 0
M  V30 62 H -6.700746 -1.654717 1.547212 0
M  V30 63 H -4.703795 1.647742 1.467219 0
M  V30 64 H -3.690718 2.613450 3.412168 0
M  V30 65 H -1.413753 2.077282 4.059503 0
M  V30 66 H -0.090827 0.465162 2.645063 0
M  V30 67 H -1.154445 -0.544346 0.608451 0
M  V30 68 H -0.989107 0.126872 -3.366226 0
M  V30 69 H 0.824015 -1.321757 -2.715264 0
M  V30 70 H 3.317200 -4.103809 0.440608 0
M  V30 71 H 3.877303 -5.389367 2.396342 0
M  V30 END ATOM
M  V30 BEGIN BOND
M  V30 1 1 1 2
M  V30 2 1 2 3
M  V30 3 2 3 4
M  V30 4 1 4 5
M  V30 5 2 5 6
M  V30 6 1 6 7
M  V30 7 1 7 8
M  V30 8 2 8 9
M  V30 9 1 8 10
M  V30 10 1 10 11
M  V30 11 2 11 12
M  V30 12 1 12 13
M  V30 13 2 13 14
M  V30 14 1 14 15
M  V30 15 1 15 16
M  V30 16 1 16 17
M  V30 17 1 17 18
M  V30 18 2 18 19
M  V30 19 1 19 20
M  V30 20 2 20 21
M  V30 21 1 21 22
M  V30 22 1 22 23
M  V30 23 1 23 24
M  V30 24 1 24 25
M  V30 25 2 25 26
M  V30 26 1 26 27
M  V30 27 2 27 28
M  V30 28 1 28 29
M  V30 29 2 29 30
M  V30 30 2 24 31
M  V30 31 1 31 32
M  V30 32 2 32 33
M  V30 33 1 33 34
M  V30 34 2 34 35
M  V30 35 1 35 36
M  V30 36 2 36 37
M  V30 37 1 31 38
M  V30 38 1 14 39
M  V30 39 2 39 40
M  V30 40 1 6 41
M  V30 41 2 41 42
M  V30 42 1 42 3
M  V30 43 1 40 11
M  V30 44 1 38 18
M  V30 45 2 38 22
M  V30 46 1 30 25
M  V30 47 1 37 32
M  V30 48 1 1 43
M  V30 49 1 1 44
M  V30 50 1 1 45
M  V30 51 1 4 46
M  V30 52 1 5 47
M  V30 53 1 7 48
M  V30 54 1 10 49
M  V30 55 1 12 50
M  V30 56 1 13 51
M  V30 57 1 15 52
M  V30 58 1 15 53
M  V30 59 1 16 54
M  V30 60 1 16 55
M  V30 61 1 17 56
M  V30 62 1 20 57
M  V30 63 1 26 58
M  V30 64 1 27 59
M  V30 65 1 28 60
M  V30 66 1 29 61
M  V30 67 1 30 62
M  V30 68 1 33 63
M  V30 69 1 34 64
M  V30 70 1 35 65
M  V30 71 1 36 66
M  V30 72 1 37 67
M  V30 73 1 39 68
M  V30 74 1 40 69
M  V30 75 1 41 70
M  V30 76 1 42 71
M  V30 END BOND
M  V30 END CTAB
M  END
>  <Dataset>  (78) 
ChEMBL_Kinases

>  <Ligand_Instance>  (78) 
nan

>  <PDB_ID>  (78) 
nan

>  <Standardized_SMILES>  (78) 
COc1ccc(NC(=O)Nc2ccc(CCNc3ncnc4oc(-c5ccccc5)c(-c5ccccc5)c34)cc2)cc1

>  <Name>  (78) 
nan

>  <Pocket>  (78) 
nan

>  <ATP_Site>  (78) 
nan

>  <Peripheral>  (78) 
nan

>  <Num_H_Atoms_ProtBoundConf>  (78) 
nan

>  <Num_Resolved_Atoms>  (78) 
nan

>  <Num_Not_Resolved_Atoms>  (78) 
nan

$$$$
CHEMBL2398654
     RDKit          3D

  0  0  0  0  0  0  0  0  0  0999 V3000
M  V30 BEGIN CTAB
M  V30 COUNTS 67 72 0 0 0
M  V30 BEGIN ATOM
M  V30 1 O 5.425813 0.520671 0.197850 0
M  V30 2 C 5.003715 -0.632011 -0.002533 0
M  V30 3 N 5.807731 -1.788133 0.157595 0
M  V30 4 C 7.171058 -1.714934 0.563235 0
M  V30 5 C 7.404675 -1.763134 1.941761 0
M  V30 6 C 8.694096 -1.700823 2.471748 0
M  V30 7 C 9.732276 -1.587713 1.540717 0
M  V30 8 F 10.984521 -1.529475 2.097786 0
M  V30 9 C 9.542535 -1.537258 0.176327 0
M  V30 10 C 8.242593 -1.602826 -0.298063 0
M  V30 11 N 3.685738 -0.951950 -0.411465 0
M  V30 12 C 2.603231 -0.066933 -0.671488 0
M  V30 13 C 1.699237 0.333001 0.291219 0
M  V30 14 C 0.680166 1.193864 -0.046889 0
M  V30 15 C 0.493779 1.697046 -1.309994 0
M  V30 16 C -0.555719 2.607055 -1.773517 0
M  V30 17 C -1.748648 1.903622 -2.318028 0
M  V30 18 N -2.427042 1.029502 -1.388381 0
M  V30 19 C -3.572490 0.318697 -1.841404 0
M  V30 20 N -4.021127 0.461315 -3.100504 0
M  V30 21 C -5.117577 -0.205532 -3.545297 0
M  V30 22 N -5.805465 -1.044716 -2.733354 0
M  V30 23 C -5.411323 -1.237106 -1.453619 0
M  V30 24 O -5.839379 -1.962283 -0.421668 0
M  V30 25 C -5.050654 -1.761229 0.619885 0
M  V30 26 C -5.330468 -2.462941 1.885157 0
M  V30 27 C -5.271170 -3.851757 1.782208 0
M  V30 28 C -5.501165 -4.684790 2.850401 0
M  V30 29 C -5.806817 -4.127277 4.090899 0
M  V30 30 C -5.861846 -2.754702 4.177374 0
M  V30 31 C -5.633032 -1.907260 3.112700 0
M  V30 32 C -4.037662 -0.855534 0.278591 0
M  V30 33 C -3.045731 -0.474664 1.254478 0
M  V30 34 C -3.386308 0.623961 2.054616 0
M  V30 35 C -2.504392 1.059366 3.025026 0
M  V30 36 C -1.291650 0.468535 3.256220 0
M  V30 37 C -0.969690 -0.596970 2.474903 0
M  V30 38 C -1.803400 -1.083174 1.488302 0
M  V30 39 C -4.293590 -0.541781 -1.040942 0
M  V30 40 C 1.435976 1.258850 -2.238698 0
M  V30 41 C 2.487339 0.394980 -1.973747 0
M  V30 42 H 5.560981 -2.781409 0.019500 0
M  V30 43 H 6.592692 -1.850648 2.649218 0
M  V30 44 H 8.880058 -1.737114 3.525232 0
M  V30 45 H 10.387951 -1.449033 -0.500680 0
M  V30 46 H 8.037990 -1.567557 -1.357940 0
M  V30 47 H 3.302913 -1.897603 -0.586487 0
M  V30 48 H 1.806123 -0.038384 1.302552 0
M  V30 49 H -0.008761 1.498702 0.710520 0
M  V30 50 H -0.847930 3.363272 -1.013142 0
M  V30 51 H -0.138347 3.217916 -2.618811 0
M  V30 52 H -2.454188 2.622336 -2.798741 0
M  V30 53 H -1.395007 1.268330 -3.182845 0
M  V30 54 H -2.007036 1.005170 -0.458185 0
M  V30 55 H -5.412517 -0.034955 -4.571581 0
M  V30 56 H -5.040889 -4.408464 0.862100 0
M  V30 57 H -5.462298 -5.765215 2.800858 0
M  V30 58 H -5.987086 -4.764460 4.926723 0
M  V30 59 H -6.098873 -2.267251 5.133931 0
M  V30 60 H -5.661056 -0.841774 3.116862 0
M  V30 61 H -4.345438 1.149323 1.925791 0
M  V30 62 H -2.796559 1.909817 3.625944 0
M  V30 63 H -0.576547 0.777849 4.002411 0
M  V30 64 H -0.037554 -1.149942 2.560907 0
M  V30 65 H -1.627470 -1.919796 0.825326 0
M  V30 66 H 1.363220 1.607926 -3.261898 0
M  V30 67 H 3.168256 0.109186 -2.752198 0
M  V30 END ATOM
M  V30 BEGIN BOND
M  V30 1 2 1 2
M  V30 2 1 2 3
M  V30 3 1 3 4
M  V30 4 2 4 5
M  V30 5 1 5 6
M  V30 6 2 6 7
M  V30 7 1 7 8
M  V30 8 1 7 9
M  V30 9 2 9 10
M  V30 10 1 2 11
M  V30 11 1 11 12
M  V30 12 2 12 13
M  V30 13 1 13 14
M  V30 14 2 14 15
M  V30 15 1 15 16
M  V30 16 1 16 17
M  V30 17 1 17 18
M  V30 18 1 18 19
M  V30 19 2 19 20
M  V30 20 1 20 21
M  V30 21 2 21 22
M  V30 22 1 22 23
M  V30 23 1 23 24
M  V30 24 1 24 25
M  V30 25 1 25 26
M  V30 26 2 26 27
M  V30 27 1 27 28
M  V30 28 2 28 29
M  V30 29 1 29 30
M  V30 30 2 30 31
M  V30 31 2 25 32
M  V30 32 1 32 33
M  V30 33 2 33 34
M  V30 34 1 34 35
M  V30 35 2 35 36
M  V30 36 1 36 37
M  V30 37 2 37 38
M  V30 38 1 32 39
M  V30 39 1 15 40
M  V30 40 2 40 41
M  V30 41 1 10 4
M  V30 42 1 41 12
M  V30 43 1 39 19
M  V30 44 2 39 23
M  V30 45 1 31 26
M  V30 46 1 38 33
M  V30 47 1 3 42
M  V30 48 1 5 43
M  V30 49 1 6 44
M  V30 50 1 9 45
M  V30 51 1 10 46
M  V30 52 1 11 47
M  V30 53 1 13 48
M  V30 54 1 14 49
M  V30 55 1 16 50
M  V30 56 1 16 51
M  V30 57 1 17 52
M  V30 58 1 17 53
M  V30 59 1 18 54
M  V30 60 1 21 55
M  V30 61 1 27 56
M  V30 62 1 28 57
M  V30 63 1 29 58
M  V30 64 1 30 59
M  V30 65 1 31 60
M  V30 66 1 34 61
M  V30 67 1 35 62
M  V30 68 1 36 63
M  V30 69 1 37 64
M  V30 70 1 38 65
M  V30 71 1 40 66
M  V30 72 1 41 67
M  V30 END BOND
M  V30 END CTAB
M  END
>  <Dataset>  (79) 
ChEMBL_Kinases

>  <Ligand_Instance>  (79) 
nan

>  <PDB_ID>  (79) 
nan

>  <Standardized_SMILES>  (79) 
O=C(Nc1ccc(F)cc1)Nc1ccc(CCNc2ncnc3oc(-c4ccccc4)c(-c4ccccc4)c23)cc1

>  <Name>  (79) 
nan

>  <Pocket>  (79) 
nan

>  <ATP_Site>  (79) 
nan

>  <Peripheral>  (79) 
nan

>  <Num_H_Atoms_ProtBoundConf>  (79) 
nan

>  <Num_Resolved_Atoms>  (79) 
nan

>  <Num_Not_Resolved_Atoms>  (79) 
nan

$$$$
CHEMBL2398655
     RDKit          3D

  0  0  0  0  0  0  0  0  0  0999 V3000
M  V30 BEGIN CTAB
M  V30 COUNTS 57 61 0 0 0
M  V30 BEGIN ATOM
M  V30 1 O 2.420230 1.549297 1.344362 0
M  V30 2 C 3.452938 1.198434 0.703735 0
M  V30 3 N 4.662560 1.242423 1.416976 0
M  V30 4 C 4.715445 1.657613 2.777153 0
M  V30 5 C 4.567449 0.642972 3.706607 0
M  V30 6 C 4.603382 0.930450 5.074831 0
M  V30 7 C 4.789601 2.249517 5.498850 0
M  V30 8 C 4.938104 3.268710 4.551577 0
M  V30 9 C 4.902090 2.979618 3.183459 0
M  V30 10 N 3.289623 0.803533 -0.642721 0
M  V30 11 C 1.952813 0.848625 -1.125579 0
M  V30 12 C 1.308467 1.908523 -1.722703 0
M  V30 13 C -0.000178 1.762981 -2.130671 0
M  V30 14 C -0.766967 0.597969 -1.991908 0
M  V30 15 C -2.121020 0.774357 -2.540319 0
M  V30 16 C -3.071533 1.395748 -1.498738 0
M  V30 17 N -3.298388 0.588101 -0.389708 0
M  V30 18 C -3.551647 -0.185645 0.787906 0
M  V30 19 N -3.895648 0.201264 2.023053 0
M  V30 20 C -4.066740 -0.577786 3.081237 0
M  V30 21 N -3.864641 -1.870370 2.838986 0
M  V30 22 C -3.520825 -2.407862 1.667350 0
M  V30 23 O -3.309443 -3.659362 1.348097 0
M  V30 24 C -2.996016 -3.759490 0.079938 0
M  V30 25 C -2.684830 -4.960587 -0.682344 0
M  V30 26 C -2.702992 -6.196128 -0.027669 0
M  V30 27 C -2.398208 -7.277572 -0.832818 0
M  V30 28 C -2.086863 -7.235450 -2.189702 0
M  V30 29 C -2.083850 -5.989041 -2.784239 0
M  V30 30 C -2.381587 -4.874271 -2.024835 0
M  V30 31 C -3.018003 -2.471638 -0.406885 0
M  V30 32 C -3.354488 -1.553935 0.596602 0
M  V30 33 C -0.043128 -0.395900 -1.390589 0
M  V30 34 C 1.256282 -0.328981 -0.957552 0
M  V30 35 H 5.521489 0.944375 0.864238 0
M  V30 36 H 4.423020 -0.374164 3.447343 0
M  V30 37 H 4.496545 0.201760 5.846904 0
M  V30 38 H 4.816305 2.464129 6.560970 0
M  V30 39 H 5.082940 4.296763 4.860974 0
M  V30 40 H 5.010685 3.725113 2.410486 0
M  V30 41 H 4.144617 0.518873 -1.158659 0
M  V30 42 H 1.900568 2.799954 -1.827572 0
M  V30 43 H -0.361075 2.701995 -2.584663 0
M  V30 44 H -2.579055 -0.226741 -2.796435 0
M  V30 45 H -2.085695 1.422776 -3.427496 0
M  V30 46 H -2.684886 2.449083 -1.305721 0
M  V30 47 H -4.045597 1.583205 -2.066112 0
M  V30 48 H -3.632651 1.488491 0.085853 0
M  V30 49 H -4.345030 -0.122082 4.020074 0
M  V30 50 H -2.930355 -6.327523 1.011469 0
M  V30 51 H -2.406270 -8.245682 -0.348165 0
M  V30 52 H -1.867947 -8.177513 -2.687910 0
M  V30 53 H -1.844788 -5.941773 -3.838000 0
M  V30 54 H -2.379850 -3.891849 -2.490949 0
M  V30 55 H -2.818353 -2.150160 -1.420465 0
M  V30 56 H -0.630348 -1.291737 -1.294792 0
M  V30 57 H 1.635756 -1.217159 -0.512021 0
M  V30 END ATOM
M  V30 BEGIN BOND
M  V30 1 2 1 2
M  V30 2 1 2 3
M  V30 3 1 3 4
M  V30 4 2 4 5
M  V30 5 1 5 6
M  V30 6 2 6 7
M  V30 7 1 7 8
M  V30 8 2 8 9
M  V30 9 1 2 10
M  V30 10 1 10 11
M  V30 11 2 11 12
M  V30 12 1 12 13
M  V30 13 2 13 14
M  V30 14 1 14 15
M  V30 15 1 15 16
M  V30 16 1 16 17
M  V30 17 1 17 18
M  V30 18 2 18 19
M  V30 19 1 19 20
M  V30 20 2 20 21
M  V30 21 1 21 22
M  V30 22 1 22 23
M  V30 23 1 23 24
M  V30 24 1 24 25
M  V30 25 2 25 26
M  V30 26 1 26 27
M  V30 27 2 27 28
M  V30 28 1 28 29
M  V30 29 2 29 30
M  V30 30 2 24 31
M  V30 31 1 31 32
M  V30 32 1 14 33
M  V30 33 2 33 34
M  V30 34 1 9 4
M  V30 35 1 34 11
M  V30 36 1 32 18
M  V30 37 2 32 22
M  V30 38 1 30 25
M  V30 39 1 3 35
M  V30 40 1 5 36
M  V30 41 1 6 37
M  V30 42 1 7 38
M  V30 43 1 8 39
M  V30 44 1 9 40
M  V30 45 1 10 41
M  V30 46 1 12 42
M  V30 47 1 13 43
M  V30 48 1 15 44
M  V30 49 1 15 45
M  V30 50 1 16 46
M  V30 51 1 16 47
M  V30 52 1 17 48
M  V30 53 1 20 49
M  V30 54 1 26 50
M  V30 55 1 27 51
M  V30 56 1 28 52
M  V30 57 1 29 53
M  V30 58 1 30 54
M  V30 59 1 31 55
M  V30 60 1 33 56
M  V30 61 1 34 57
M  V30 END BOND
M  V30 END CTAB
M  END
>  <Dataset>  (80) 
ChEMBL_Kinases

>  <Ligand_Instance>  (80) 
nan

>  <PDB_ID>  (80) 
nan

>  <Standardized_SMILES>  (80) 
O=C(Nc1ccccc1)Nc1ccc(CCNc2ncnc3oc(-c4ccccc4)cc23)cc1

>  <Name>  (80) 
nan

>  <Pocket>  (80) 
nan

>  <ATP_Site>  (80) 
nan

>  <Peripheral>  (80) 
nan

>  <Num_H_Atoms_ProtBoundConf>  (80) 
nan

>  <Num_Resolved_Atoms>  (80) 
nan

>  <Num_Not_Resolved_Atoms>  (80) 
nan

$$$$
CHEMBL2398656
     RDKit          3D

  0  0  0  0  0  0  0  0  0  0999 V3000
M  V30 BEGIN CTAB
M  V30 COUNTS 57 61 0 0 0
M  V30 BEGIN ATOM
M  V30 1 O 2.707894 0.296920 1.062886 0
M  V30 2 C 3.378326 0.847263 0.138974 0
M  V30 3 N 4.781084 0.860383 0.328935 0
M  V30 4 C 5.471963 0.314268 1.453148 0
M  V30 5 C 5.896380 -0.993987 1.448288 0
M  V30 6 C 6.562415 -1.490983 2.552956 0
M  V30 7 C 6.804841 -0.679017 3.664748 0
M  V30 8 C 6.385326 0.644457 3.691240 0
M  V30 9 C 5.715087 1.124208 2.565037 0
M  V30 10 N 2.785316 1.423731 -1.026792 0
M  V30 11 C 1.367096 1.375710 -1.154112 0
M  V30 12 C 0.638980 2.426653 -0.636149 0
M  V30 13 C -0.735239 2.401552 -0.747852 0
M  V30 14 C -1.453205 1.366766 -1.360275 0
M  V30 15 C -2.899493 1.538239 -1.375632 0
M  V30 16 C -3.645948 1.014061 -0.202841 0
M  V30 17 N -3.522571 -0.403006 0.046436 0
M  V30 18 C -4.220222 -0.925659 1.165496 0
M  V30 19 N -4.995553 -0.112189 1.902027 0
M  V30 20 C -5.691272 -0.609162 2.938286 0
M  V30 21 N -5.676161 -1.901091 3.314337 0
M  V30 22 C -4.915899 -2.762832 2.612996 0
M  V30 23 O -4.657891 -4.049886 2.678570 0
M  V30 24 C -3.812945 -4.378444 1.709004 0
M  V30 25 C -3.482316 -3.245177 0.945884 0
M  V30 26 C -2.520483 -3.418920 -0.127146 0
M  V30 27 C -2.968147 -4.325602 -1.103263 0
M  V30 28 C -2.234661 -4.704308 -2.215229 0
M  V30 29 C -0.984528 -4.142134 -2.353999 0
M  V30 30 C -0.489817 -3.250790 -1.436023 0
M  V30 31 C -1.255970 -2.911327 -0.356190 0
M  V30 32 C -4.204829 -2.244192 1.551994 0
M  V30 33 C -0.677378 0.341943 -1.860844 0
M  V30 34 C 0.698480 0.335862 -1.765850 0
M  V30 35 H 5.422289 1.297696 -0.388720 0
M  V30 36 H 5.732976 -1.648394 0.622351 0
M  V30 37 H 6.939688 -2.512379 2.649814 0
M  V30 38 H 7.330382 -1.044479 4.555441 0
M  V30 39 H 6.562952 1.291028 4.542734 0
M  V30 40 H 5.378966 2.168522 2.574765 0
M  V30 41 H 3.374174 1.870978 -1.770848 0
M  V30 42 H 1.150217 3.248401 -0.154010 0
M  V30 43 H -1.244278 3.275053 -0.310466 0
M  V30 44 H -3.290433 1.052728 -2.292969 0
M  V30 45 H -3.165182 2.618692 -1.473419 0
M  V30 46 H -3.375492 1.584430 0.732745 0
M  V30 47 H -4.745459 1.197506 -0.309146 0
M  V30 48 H -2.922861 -0.791598 -0.689828 0
M  V30 49 H -6.304127 0.116224 3.495291 0
M  V30 50 H -3.511231 -5.426349 1.645775 0
M  V30 51 H -3.951703 -4.818938 -1.068282 0
M  V30 52 H -2.592358 -5.398073 -2.950602 0
M  V30 53 H -0.375323 -4.401930 -3.197980 0
M  V30 54 H 0.470666 -2.792069 -1.503591 0
M  V30 55 H -0.987593 -2.220880 0.442819 0
M  V30 56 H -1.238244 -0.451283 -2.334779 0
M  V30 57 H 1.255327 -0.491948 -2.175052 0
M  V30 END ATOM
M  V30 BEGIN BOND
M  V30 1 2 1 2
M  V30 2 1 2 3
M  V30 3 1 3 4
M  V30 4 2 4 5
M  V30 5 1 5 6
M  V30 6 2 6 7
M  V30 7 1 7 8
M  V30 8 2 8 9
M  V30 9 1 2 10
M  V30 10 1 10 11
M  V30 11 2 11 12
M  V30 12 1 12 13
M  V30 13 2 13 14
M  V30 14 1 14 15
M  V30 15 1 15 16
M  V30 16 1 16 17
M  V30 17 1 17 18
M  V30 18 2 18 19
M  V30 19 1 19 20
M  V30 20 2 20 21
M  V30 21 1 21 22
M  V30 22 1 22 23
M  V30 23 1 23 24
M  V30 24 2 24 25
M  V30 25 1 25 26
M  V30 26 2 26 27
M  V30 27 1 27 28
M  V30 28 2 28 29
M  V30 29 1 29 30
M  V30 30 2 30 31
M  V30 31 1 25 32
M  V30 32 1 14 33
M  V30 33 2 33 34
M  V30 34 1 9 4
M  V30 35 1 34 11
M  V30 36 1 32 18
M  V30 37 2 32 22
M  V30 38 1 31 26
M  V30 39 1 3 35
M  V30 40 1 5 36
M  V30 41 1 6 37
M  V30 42 1 7 38
M  V30 43 1 8 39
M  V30 44 1 9 40
M  V30 45 1 10 41
M  V30 46 1 12 42
M  V30 47 1 13 43
M  V30 48 1 15 44
M  V30 49 1 15 45
M  V30 50 1 16 46
M  V30 51 1 16 47
M  V30 52 1 17 48
M  V30 53 1 20 49
M  V30 54 1 24 50
M  V30 55 1 27 51
M  V30 56 1 28 52
M  V30 57 1 29 53
M  V30 58 1 30 54
M  V30 59 1 31 55
M  V30 60 1 33 56
M  V30 61 1 34 57
M  V30 END BOND
M  V30 END CTAB
M  END
>  <Dataset>  (81) 
ChEMBL_Kinases

>  <Ligand_Instance>  (81) 
nan

>  <PDB_ID>  (81) 
nan

>  <Standardized_SMILES>  (81) 
O=C(Nc1ccccc1)Nc1ccc(CCNc2ncnc3occ(-c4ccccc4)c23)cc1

>  <Name>  (81) 
nan

>  <Pocket>  (81) 
nan

>  <ATP_Site>  (81) 
nan

>  <Peripheral>  (81) 
nan

>  <Num_H_Atoms_ProtBoundConf>  (81) 
nan

>  <Num_Resolved_Atoms>  (81) 
nan

>  <Num_Not_Resolved_Atoms>  (81) 
nan

$$$$
CHEMBL2398658
     RDKit          3D

  0  0  0  0  0  0  0  0  0  0999 V3000
M  V30 BEGIN CTAB
M  V30 COUNTS 78 82 0 0 0
M  V30 BEGIN ATOM
M  V30 1 C 0.688946 -7.432885 1.376835 0
M  V30 2 C 2.191115 -7.410051 1.424474 0
M  V30 3 N 2.841665 -6.497876 0.546433 0
M  V30 4 C 2.727182 -6.894227 -0.817261 0
M  V30 5 C 1.359963 -6.791894 -1.414780 0
M  V30 6 C 4.191448 -6.229303 0.968502 0
M  V30 7 C 4.926739 -5.246838 0.108441 0
M  V30 8 O 4.369072 -3.989177 0.003438 0
M  V30 9 C 4.122824 -3.034512 0.950959 0
M  V30 10 C 3.522119 -1.943807 0.300822 0
M  V30 11 C 3.134806 -0.784838 0.970439 0
M  V30 12 C 3.343224 -0.689783 2.330387 0
M  V30 13 C 2.965173 0.470992 3.126341 0
M  V30 14 C 2.329558 1.561478 2.567930 0
M  V30 15 C 2.107182 2.482448 3.570642 0
M  V30 16 C 1.504968 3.726110 3.514402 0
M  V30 17 N 0.996908 4.218402 2.283961 0
M  V30 18 C 0.345035 5.485990 2.073781 0
M  V30 19 C -0.142366 5.711671 0.668392 0
M  V30 20 C -1.137313 4.681436 0.227013 0
M  V30 21 C -2.476424 4.907286 0.539829 0
M  V30 22 C -3.445652 3.982010 0.153207 0
M  V30 23 C -3.096156 2.839546 -0.538674 0
M  V30 24 N -3.964344 1.810225 -0.984163 0
M  V30 25 C -4.627559 1.750860 -2.236739 0
M  V30 26 O -4.415033 2.709404 -3.016116 0
M  V30 27 N -5.477185 0.695612 -2.611325 0
M  V30 28 C -6.188692 0.526511 -3.819148 0
M  V30 29 C -6.204513 1.367338 -4.903704 0
M  V30 30 C -6.920016 1.147503 -6.057578 0
M  V30 31 C -7.692744 0.013894 -6.179700 0
M  V30 32 C -7.692616 -0.846701 -5.102052 0
M  V30 33 C -6.960705 -0.588174 -3.965159 0
M  V30 34 C -1.758535 2.619578 -0.849095 0
M  V30 35 C -0.787895 3.528767 -0.471553 0
M  V30 36 N 1.443342 4.384870 4.685231 0
M  V30 37 C 1.927586 3.878969 5.826214 0
M  V30 38 N 2.502063 2.666438 5.827064 0
M  V30 39 C 2.620509 1.915025 4.716676 0
M  V30 40 O 3.107945 0.742831 4.397669 0
M  V30 41 C 3.926633 -1.741991 2.977147 0
M  V30 42 C 4.307310 -2.883408 2.309024 0
M  V30 43 H 0.343331 -7.955444 2.321672 0
M  V30 44 H 0.245147 -6.403327 1.446845 0
M  V30 45 H 0.276188 -8.043636 0.565992 0
M  V30 46 H 2.525057 -7.217982 2.473306 0
M  V30 47 H 2.514337 -8.469567 1.223940 0
M  V30 48 H 3.157773 -7.934291 -0.960234 0
M  V30 49 H 3.397913 -6.270822 -1.482748 0
M  V30 50 H 1.398590 -6.295302 -2.441281 0
M  V30 51 H 0.650247 -6.170728 -0.854571 0
M  V30 52 H 0.987256 -7.816532 -1.668049 0
M  V30 53 H 4.813003 -7.184109 0.942226 0
M  V30 54 H 4.209430 -5.912491 2.013698 0
M  V30 55 H 5.171688 -5.621705 -0.901713 0
M  V30 56 H 5.926605 -5.106681 0.607565 0
M  V30 57 H 3.275589 -1.829560 -0.764027 0
M  V30 58 H 2.671154 0.078611 0.517736 0
M  V30 59 H 2.043532 1.702574 1.543742 0
M  V30 60 H 1.099068 3.616258 1.442051 0
M  V30 61 H 1.032156 6.345030 2.296913 0
M  V30 62 H -0.492266 5.637822 2.816745 0
M  V30 63 H -0.510443 6.732091 0.569523 0
M  V30 64 H 0.762851 5.617120 0.012751 0
M  V30 65 H -2.823458 5.780519 1.078360 0
M  V30 66 H -4.507384 4.089648 0.361391 0
M  V30 67 H -4.100299 1.031234 -0.280483 0
M  V30 68 H -5.556376 -0.023114 -1.868563 0
M  V30 69 H -5.624340 2.270781 -4.877809 0
M  V30 70 H -6.914795 1.825657 -6.898217 0
M  V30 71 H -8.299070 -0.281063 -7.021364 0
M  V30 72 H -8.279690 -1.756715 -5.134424 0
M  V30 73 H -7.016889 -1.327907 -3.150900 0
M  V30 74 H -1.412059 1.741080 -1.392553 0
M  V30 75 H 0.246392 3.340805 -0.731671 0
M  V30 76 H 1.884936 4.399213 6.779270 0
M  V30 77 H 4.146645 -1.793048 4.047179 0
M  V30 78 H 4.777468 -3.764617 2.711414 0
M  V30 END ATOM
M  V30 BEGIN BOND
M  V30 1 1 1 2
M  V30 2 1 2 3
M  V30 3 1 3 4
M  V30 4 1 4 5
M  V30 5 1 3 6
M  V30 6 1 6 7
M  V30 7 1 7 8
M  V30 8 1 8 9
M  V30 9 2 9 10
M  V30 10 1 10 11
M  V30 11 2 11 12
M  V30 12 1 12 13
M  V30 13 2 13 14
M  V30 14 1 14 15
M  V30 15 2 15 16
M  V30 16 1 16 17
M  V30 17 1 17 18
M  V30 18 1 18 19
M  V30 19 1 19 20
M  V30 20 2 20 21
M  V30 21 1 21 22
M  V30 22 2 22 23
M  V30 23 1 23 24
M  V30 24 1 24 25
M  V30 25 2 25 26
M  V30 26 1 25 27
M  V30 27 1 27 28
M  V30 28 2 28 29
M  V30 29 1 29 30
M  V30 30 2 30 31
M  V30 31 1 31 32
M  V30 32 2 32 33
M  V30 33 1 23 34
M  V30 34 2 34 35
M  V30 35 1 16 36
M  V30 36 2 36 37
M  V30 37 1 37 38
M  V30 38 2 38 39
M  V30 39 1 39 40
M  V30 40 1 12 41
M  V30 41 2 41 42
M  V30 42 1 42 9
M  V30 43 1 40 13
M  V30 44 1 39 15
M  V30 45 1 35 20
M  V30 46 1 33 28
M  V30 47 1 1 43
M  V30 48 1 1 44
M  V30 49 1 1 45
M  V30 50 1 2 46
M  V30 51 1 2 47
M  V30 52 1 4 48
M  V30 53 1 4 49
M  V30 54 1 5 50
M  V30 55 1 5 51
M  V30 56 1 5 52
M  V30 57 1 6 53
M  V30 58 1 6 54
M  V30 59 1 7 55
M  V30 60 1 7 56
M  V30 61 1 10 57
M  V30 62 1 11 58
M  V30 63 1 14 59
M  V30 64 1 17 60
M  V30 65 1 18 61
M  V30 66 1 18 62
M  V30 67 1 19 63
M  V30 68 1 19 64
M  V30 69 1 21 65
M  V30 70 1 22 66
M  V30 71 1 24 67
M  V30 72 1 27 68
M  V30 73 1 29 69
M  V30 74 1 30 70
M  V30 75 1 31 71
M  V30 76 1 32 72
M  V30 77 1 33 73
M  V30 78 1 34 74
M  V30 79 1 35 75
M  V30 80 1 37 76
M  V30 81 1 41 77
M  V30 82 1 42 78
M  V30 END BOND
M  V30 END CTAB
M  END
>  <Dataset>  (82) 
ChEMBL_Kinases

>  <Ligand_Instance>  (82) 
nan

>  <PDB_ID>  (82) 
nan

>  <Standardized_SMILES>  (82) 
CCN(CC)CCOc1ccc(-c2cc3c(NCCc4ccc(NC(=O)Nc5ccccc5)cc4)ncnc3o2)cc1

>  <Name>  (82) 
nan

>  <Pocket>  (82) 
nan

>  <ATP_Site>  (82) 
nan

>  <Peripheral>  (82) 
nan

>  <Num_H_Atoms_ProtBoundConf>  (82) 
nan

>  <Num_Resolved_Atoms>  (82) 
nan

>  <Num_Not_Resolved_Atoms>  (82) 
nan

$$$$
CHEMBL2398659
     RDKit          3D

  0  0  0  0  0  0  0  0  0  0999 V3000
M  V30 BEGIN CTAB
M  V30 COUNTS 90 94 0 0 0
M  V30 BEGIN ATOM
M  V30 1 C 2.814319 -5.449564 -5.695116 0
M  V30 2 C 3.222884 -4.207501 -4.931724 0
M  V30 3 C 2.239605 -3.062193 -5.291273 0
M  V30 4 C 2.672083 -1.854516 -4.526975 0
M  V30 5 N 1.963680 -0.657513 -4.669379 0
M  V30 6 C 2.479403 0.463856 -3.931933 0
M  V30 7 C 2.280819 0.236048 -2.465073 0
M  V30 8 C 2.822751 1.437956 -1.709587 0
M  V30 9 C 2.050303 2.648229 -2.179363 0
M  V30 10 C 1.285046 -0.276273 -5.810631 0
M  V30 11 C 0.015863 -0.935413 -6.224180 0
M  V30 12 O -1.063671 -0.888744 -5.397381 0
M  V30 13 C -1.413977 -1.265742 -4.163983 0
M  V30 14 C -2.755710 -0.869393 -3.982712 0
M  V30 15 C -3.426574 -1.124288 -2.770890 0
M  V30 16 C -2.766614 -1.765344 -1.752468 0
M  V30 17 C -3.416149 -2.077806 -0.485087 0
M  V30 18 C -2.852979 -2.641990 0.639322 0
M  V30 19 C -3.819670 -2.764233 1.618559 0
M  V30 20 C -3.720017 -3.270318 2.899948 0
M  V30 21 N -2.495681 -3.752997 3.428791 0
M  V30 22 C -2.230965 -4.299939 4.712323 0
M  V30 23 C -2.558863 -3.453770 5.893086 0
M  V30 24 C -1.894301 -2.149517 5.938532 0
M  V30 25 C -2.653485 -1.086637 5.427378 0
M  V30 26 C -2.207472 0.223757 5.367066 0
M  V30 27 C -0.930183 0.522046 5.839032 0
M  V30 28 N -0.569217 1.894278 5.743022 0
M  V30 29 C -0.012997 2.270177 4.480175 0
M  V30 30 O 0.063496 1.323710 3.671003 0
M  V30 31 N 0.353593 3.660150 4.370806 0
M  V30 32 C 0.914459 4.305389 3.218042 0
M  V30 33 C 2.212603 4.493332 2.808208 0
M  V30 34 C 2.474857 5.157335 1.646449 0
M  V30 35 C 1.439772 5.657884 0.853319 0
M  V30 36 C 0.113520 5.480257 1.246887 0
M  V30 37 C -0.117043 4.796737 2.439296 0
M  V30 38 C -0.168627 -0.505867 6.345406 0
M  V30 39 C -0.644975 -1.795304 6.389071 0
M  V30 40 N -4.889624 -3.226251 3.566452 0
M  V30 41 C -6.031144 -2.754076 3.074745 0
M  V30 42 N -6.060219 -2.272186 1.813412 0
M  V30 43 C -4.960140 -2.259945 1.042983 0
M  V30 44 O -4.675868 -1.874400 -0.175827 0
M  V30 45 C -1.456687 -2.169600 -1.887046 0
M  V30 46 C -0.849299 -1.899258 -3.084615 0
M  V30 47 H 3.642597 -5.851740 -6.323918 0
M  V30 48 H 1.963911 -5.253375 -6.374764 0
M  V30 49 H 2.553615 -6.223586 -4.956276 0
M  V30 50 H 3.215673 -4.322910 -3.851435 0
M  V30 51 H 4.210145 -3.881490 -5.308144 0
M  V30 52 H 2.362383 -2.965971 -6.386893 0
M  V30 53 H 1.239237 -3.441459 -4.970705 0
M  V30 54 H 2.662909 -2.143970 -3.418473 0
M  V30 55 H 3.772457 -1.689278 -4.745014 0
M  V30 56 H 2.004303 1.423193 -4.232200 0
M  V30 57 H 3.581507 0.607198 -4.131883 0
M  V30 58 H 1.182188 0.133307 -2.302886 0
M  V30 59 H 2.873228 -0.622186 -2.144721 0
M  V30 60 H 2.701083 1.261571 -0.619750 0
M  V30 61 H 3.890471 1.568425 -1.914785 0
M  V30 62 H 2.525597 3.025523 -3.088444 0
M  V30 63 H 0.996494 2.337252 -2.291737 0
M  V30 64 H 2.197994 3.432433 -1.398893 0
M  V30 65 H 1.153462 0.860209 -5.766657 0
M  V30 66 H 2.004103 -0.360227 -6.702153 0
M  V30 67 H -0.305965 -0.488732 -7.237513 0
M  V30 68 H 0.225797 -2.006404 -6.471053 0
M  V30 69 H -3.450923 -0.349764 -4.660202 0
M  V30 70 H -4.449119 -0.863471 -2.543431 0
M  V30 71 H -1.805845 -2.932010 0.701752 0
M  V30 72 H -1.676788 -3.685001 2.747312 0
M  V30 73 H -1.135905 -4.531627 4.786791 0
M  V30 74 H -2.716394 -5.298002 4.844461 0
M  V30 75 H -3.650947 -3.326983 6.070903 0
M  V30 76 H -2.215718 -4.047162 6.794561 0
M  V30 77 H -3.658610 -1.242073 5.044284 0
M  V30 78 H -2.857422 1.003181 4.958212 0
M  V30 79 H -0.699525 2.579234 6.542350 0
M  V30 80 H 0.229723 4.308227 5.153433 0
M  V30 81 H 2.908719 4.053986 3.520678 0
M  V30 82 H 3.534922 5.262496 1.392119 0
M  V30 83 H 1.754285 6.167268 -0.046603 0
M  V30 84 H -0.636324 5.894625 0.588951 0
M  V30 85 H -1.201870 4.736494 2.615838 0
M  V30 86 H 0.815705 -0.250697 6.706288 0
M  V30 87 H -0.069571 -2.620192 6.781586 0
M  V30 88 H -6.941531 -2.746417 3.661274 0
M  V30 89 H -0.855348 -2.675924 -1.143630 0
M  V30 90 H 0.154648 -2.189621 -3.267194 0
M  V30 END ATOM
M  V30 BEGIN BOND
M  V30 1 1 1 2
M  V30 2 1 2 3
M  V30 3 1 3 4
M  V30 4 1 4 5
M  V30 5 1 5 6
M  V30 6 1 6 7
M  V30 7 1 7 8
M  V30 8 1 8 9
M  V30 9 1 5 10
M  V30 10 1 10 11
M  V30 11 1 11 12
M  V30 12 1 12 13
M  V30 13 2 13 14
M  V30 14 1 14 15
M  V30 15 2 15 16
M  V30 16 1 16 17
M  V30 17 2 17 18
M  V30 18 1 18 19
M  V30 19 2 19 20
M  V30 20 1 20 21
M  V30 21 1 21 22
M  V30 22 1 22 23
M  V30 23 1 23 24
M  V30 24 2 24 25
M  V30 25 1 25 26
M  V30 26 2 26 27
M  V30 27 1 27 28
M  V30 28 1 28 29
M  V30 29 2 29 30
M  V30 30 1 29 31
M  V30 31 1 31 32
M  V30 32 2 32 33
M  V30 33 1 33 34
M  V30 34 2 34 35
M  V30 35 1 35 36
M  V30 36 2 36 37
M  V30 37 1 27 38
M  V30 38 2 38 39
M  V30 39 1 20 40
M  V30 40 2 40 41
M  V30 41 1 41 42
M  V30 42 2 42 43
M  V30 43 1 43 44
M  V30 44 1 16 45
M  V30 45 2 45 46
M  V30 46 1 46 13
M  V30 47 1 44 17
M  V30 48 1 43 19
M  V30 49 1 39 24
M  V30 50 1 37 32
M  V30 51 1 1 47
M  V30 52 1 1 48
M  V30 53 1 1 49
M  V30 54 1 2 50
M  V30 55 1 2 51
M  V30 56 1 3 52
M  V30 57 1 3 53
M  V30 58 1 4 54
M  V30 59 1 4 55
M  V30 60 1 6 56
M  V30 61 1 6 57
M  V30 62 1 7 58
M  V30 63 1 7 59
M  V30 64 1 8 60
M  V30 65 1 8 61
M  V30 66 1 9 62
M  V30 67 1 9 63
M  V30 68 1 9 64
M  V30 69 1 10 65
M  V30 70 1 10 66
M  V30 71 1 11 67
M  V30 72 1 11 68
M  V30 73 1 14 69
M  V30 74 1 15 70
M  V30 75 1 18 71
M  V30 76 1 21 72
M  V30 77 1 22 73
M  V30 78 1 22 74
M  V30 79 1 23 75
M  V30 80 1 23 76
M  V30 81 1 25 77
M  V30 82 1 26 78
M  V30 83 1 28 79
M  V30 84 1 31 80
M  V30 85 1 33 81
M  V30 86 1 34 82
M  V30 87 1 35 83
M  V30 88 1 36 84
M  V30 89 1 37 85
M  V30 90 1 38 86
M  V30 91 1 39 87
M  V30 92 1 41 88
M  V30 93 1 45 89
M  V30 94 1 46 90
M  V30 END BOND
M  V30 END CTAB
M  END
>  <Dataset>  (83) 
ChEMBL_Kinases

>  <Ligand_Instance>  (83) 
nan

>  <PDB_ID>  (83) 
nan

>  <Standardized_SMILES>  (83) 
CCCCN(CCCC)CCOc1ccc(-c2cc3c(NCCc4ccc(NC(=O)Nc5ccccc5)cc4)ncnc3o2)cc1

>  <Name>  (83) 
nan

>  <Pocket>  (83) 
nan

>  <ATP_Site>  (83) 
nan

>  <Peripheral>  (83) 
nan

>  <Num_H_Atoms_ProtBoundConf>  (83) 
nan

>  <Num_Resolved_Atoms>  (83) 
nan

>  <Num_Not_Resolved_Atoms>  (83) 
nan

$$$$
CHEMBL2402945
     RDKit          3D

  0  0  0  0  0  0  0  0  0  0999 V3000
M  V30 BEGIN CTAB
M  V30 COUNTS 72 77 0 0 0
M  V30 BEGIN ATOM
M  V30 1 N 2.246039 -2.252237 4.783208 0
M  V30 2 C 3.115110 -1.352607 4.093797 0
M  V30 3 C 2.798383 0.105271 4.297274 0
M  V30 4 C 1.568787 0.579994 3.593249 0
M  V30 5 C 1.438138 0.004348 2.192035 0
M  V30 6 N 0.546458 -1.133165 2.217409 0
M  V30 7 C 0.212602 -1.878920 1.040079 0
M  V30 8 N 0.692787 -1.583298 -0.172306 0
M  V30 9 C 0.408517 -2.253495 -1.299892 0
M  V30 10 N 0.918245 -1.941247 -2.575454 0
M  V30 11 C 1.820594 -0.870220 -2.940713 0
M  V30 12 C 1.239500 0.466820 -2.649595 0
M  V30 13 C 0.462829 0.981083 -3.696455 0
M  V30 14 C -0.171429 2.205617 -3.656933 0
M  V30 15 C -0.037415 2.976732 -2.520465 0
M  V30 16 C -0.690151 4.279221 -2.432119 0
M  V30 17 C -2.006746 4.297388 -2.867904 0
M  V30 18 C -2.742522 5.477314 -2.836174 0
M  V30 19 C -2.196565 6.670931 -2.372831 0
M  V30 20 C -0.883172 6.597267 -1.951180 0
M  V30 21 C -0.146073 5.447041 -1.975467 0
M  V30 22 O 1.182953 5.361626 -1.551304 0
M  V30 23 C 0.724261 2.484360 -1.480870 0
M  V30 24 C 1.355726 1.259263 -1.527060 0
M  V30 25 C -0.462690 -3.336550 -1.137625 0
M  V30 26 N -0.941885 -4.197247 -2.036178 0
M  V30 27 C -1.746545 -5.072169 -1.419093 0
M  V30 28 N -1.770641 -4.756926 -0.127992 0
M  V30 29 C -2.517003 -5.449104 0.890438 0
M  V30 30 C -3.723798 -6.181158 0.393082 0
M  V30 31 C -4.938815 -5.433381 0.910913 0
M  V30 32 C -4.450358 -4.753457 2.177529 0
M  V30 33 C -2.982776 -4.475494 1.942746 0
M  V30 34 C -0.984430 -3.683691 0.082956 0
M  V30 35 N -0.619365 -2.929943 1.132499 0
M  V30 36 C 2.810453 -0.508772 1.769218 0
M  V30 37 C 3.143662 -1.699015 2.640909 0
M  V30 38 H 2.727754 -2.916275 5.426551 0
M  V30 39 H 1.407730 -1.807990 5.196585 0
M  V30 40 H 4.148828 -1.501718 4.495828 0
M  V30 41 H 3.652194 0.683651 3.868898 0
M  V30 42 H 2.718797 0.361952 5.354317 0
M  V30 43 H 1.564156 1.671546 3.615957 0
M  V30 44 H 0.698363 0.238750 4.219625 0
M  V30 45 H 1.095689 0.763110 1.467936 0
M  V30 46 H 0.125954 -1.428198 3.125464 0
M  V30 47 H 0.618592 -2.548910 -3.376863 0
M  V30 48 H 2.725102 -0.973155 -2.285251 0
M  V30 49 H 2.131372 -0.915029 -3.986617 0
M  V30 50 H 0.302581 0.435249 -4.637334 0
M  V30 51 H -0.761425 2.579264 -4.471161 0
M  V30 52 H -2.565546 3.446053 -3.254977 0
M  V30 53 H -3.785402 5.550459 -3.167452 0
M  V30 54 H -2.735921 7.602438 -2.333943 0
M  V30 55 H -0.411843 7.505194 -1.579916 0
M  V30 56 H 1.390551 5.706280 -0.606630 0
M  V30 57 H 0.864349 3.049728 -0.560518 0
M  V30 58 H 1.964857 0.816035 -0.761960 0
M  V30 59 H -2.251634 -5.867418 -1.948479 0
M  V30 60 H -1.774751 -6.125212 1.405983 0
M  V30 61 H -3.764966 -6.372970 -0.677070 0
M  V30 62 H -3.738171 -7.181249 0.910467 0
M  V30 63 H -5.210897 -4.679637 0.160822 0
M  V30 64 H -5.760928 -6.102815 1.181791 0
M  V30 65 H -5.039731 -3.809331 2.282542 0
M  V30 66 H -4.634463 -5.350919 3.075299 0
M  V30 67 H -2.897692 -3.414196 1.618750 0
M  V30 68 H -2.460856 -4.581043 2.907192 0
M  V30 69 H 3.595013 0.267482 1.832415 0
M  V30 70 H 2.771539 -0.879039 0.728383 0
M  V30 71 H 2.380105 -2.481250 2.394985 0
M  V30 72 H 4.120304 -2.111153 2.319285 0
M  V30 END ATOM
M  V30 BEGIN BOND
M  V30 1 1 1 2
M  V30 2 1 2 3
M  V30 3 1 3 4
M  V30 4 1 4 5
M  V30 5 1 5 6
M  V30 6 1 6 7
M  V30 7 2 7 8
M  V30 8 1 8 9
M  V30 9 1 9 10
M  V30 10 1 10 11
M  V30 11 1 11 12
M  V30 12 2 12 13
M  V30 13 1 13 14
M  V30 14 2 14 15
M  V30 15 1 15 16
M  V30 16 2 16 17
M  V30 17 1 17 18
M  V30 18 2 18 19
M  V30 19 1 19 20
M  V30 20 2 20 21
M  V30 21 1 21 22
M  V30 22 1 15 23
M  V30 23 2 23 24
M  V30 24 2 9 25
M  V30 25 1 25 26
M  V30 26 2 26 27
M  V30 27 1 27 28
M  V30 28 1 28 29
M  V30 29 1 29 30
M  V30 30 1 30 31
M  V30 31 1 31 32
M  V30 32 1 32 33
M  V30 33 1 28 34
M  V30 34 2 34 35
M  V30 35 1 5 36
M  V30 36 1 36 37
M  V30 37 1 37 2
M  V30 38 1 35 7
M  V30 39 1 24 12
M  V30 40 1 34 25
M  V30 41 1 21 16
M  V30 42 1 33 29
M  V30 43 1 1 38
M  V30 44 1 1 39
M  V30 45 1 2 40
M  V30 46 1 3 41
M  V30 47 1 3 42
M  V30 48 1 4 43
M  V30 49 1 4 44
M  V30 50 1 5 45
M  V30 51 1 6 46
M  V30 52 1 10 47
M  V30 53 1 11 48
M  V30 54 1 11 49
M  V30 55 1 13 50
M  V30 56 1 14 51
M  V30 57 1 17 52
M  V30 58 1 18 53
M  V30 59 1 19 54
M  V30 60 1 20 55
M  V30 61 1 22 56
M  V30 62 1 23 57
M  V30 63 1 24 58
M  V30 64 1 27 59
M  V30 65 1 29 60
M  V30 66 1 30 61
M  V30 67 1 30 62
M  V30 68 1 31 63
M  V30 69 1 31 64
M  V30 70 1 32 65
M  V30 71 1 32 66
M  V30 72 1 33 67
M  V30 73 1 33 68
M  V30 74 1 36 69
M  V30 75 1 36 70
M  V30 76 1 37 71
M  V30 77 1 37 72
M  V30 END BOND
M  V30 END CTAB
M  END
>  <Dataset>  (84) 
ChEMBL_Kinases

>  <Ligand_Instance>  (84) 
nan

>  <PDB_ID>  (84) 
nan

>  <Standardized_SMILES>  (84) 
NC1CCC(Nc2nc(NCc3ccc(-c4ccccc4O)cc3)c3ncn(C4CCCC4)c3n2)CC1

>  <Name>  (84) 
nan

>  <Pocket>  (84) 
nan

>  <ATP_Site>  (84) 
nan

>  <Peripheral>  (84) 
nan

>  <Num_H_Atoms_ProtBoundConf>  (84) 
nan

>  <Num_Resolved_Atoms>  (84) 
nan

>  <Num_Not_Resolved_Atoms>  (84) 
nan

$$$$
CHEMBL2401832
     RDKit          3D

  0  0  0  0  0  0  0  0  0  0999 V3000
M  V30 BEGIN CTAB
M  V30 COUNTS 50 53 0 0 0
M  V30 BEGIN ATOM
M  V30 1 C 2.488047 -5.366876 0.615928 0
M  V30 2 C 1.639650 -4.191805 0.194686 0 CFG=1
M  V30 3 O 2.368062 -3.000368 0.074971 0
M  V30 4 C 2.240061 -1.879196 0.837733 0
M  V30 5 C 2.988812 -1.720257 1.990041 0
M  V30 6 N 3.918837 -2.700849 2.436778 0
M  V30 7 N 2.825743 -0.585868 2.716110 0
M  V30 8 C 1.958950 0.359524 2.326066 0
M  V30 9 C 1.204683 0.226793 1.188147 0
M  V30 10 C 0.288043 1.107937 0.676575 0
M  V30 11 C -0.261719 2.396679 1.005663 0
M  V30 12 C -0.086165 3.267841 1.973609 0
M  V30 13 C -0.760205 4.580896 2.154500 0
M  V30 14 N -2.193279 4.327601 1.927120 0
M  V30 15 C -3.187263 5.108672 2.593886 0
M  V30 16 N -4.541677 4.783609 2.305308 0
M  V30 17 O -2.325080 5.798865 3.193988 0
M  V30 18 C -2.526032 3.243118 0.990263 0
M  V30 19 C -1.300024 3.011542 0.097468 0
M  V30 20 C -0.125919 0.429632 -0.454016 0
M  V30 21 O 0.503026 -0.708350 -0.548796 0
M  V30 22 C 1.345684 -0.910688 0.429433 0
M  V30 23 C 0.817964 -4.550889 -0.968311 0
M  V30 24 C -0.460727 -5.095986 -0.792185 0
M  V30 25 Cl -1.010887 -5.319338 0.874496 0
M  V30 26 C -1.290744 -5.457892 -1.833149 0
M  V30 27 C -0.862337 -5.283954 -3.135881 0
M  V30 28 C 0.408935 -4.742330 -3.354671 0
M  V30 29 F 0.813405 -4.578556 -4.647652 0
M  V30 30 C 1.210855 -4.392188 -2.278708 0
M  V30 31 Cl 2.805511 -3.713132 -2.600071 0
M  V30 32 H 3.481621 -5.407126 0.155476 0
M  V30 33 H 1.938191 -6.284344 0.293414 0
M  V30 34 H 2.550978 -5.447794 1.739325 0
M  V30 35 H 0.937988 -4.013806 1.047627 0
M  V30 36 H 4.916820 -2.863320 2.122417 0
M  V30 37 H 3.927221 -3.466575 3.116009 0
M  V30 38 H 1.887024 1.224222 2.950771 0
M  V30 39 H 0.624336 2.975470 2.694479 0
M  V30 40 H -0.385038 5.338207 1.434764 0
M  V30 41 H -0.625014 4.896698 3.191291 0
M  V30 42 H -4.966366 4.357795 3.151562 0
M  V30 43 H -5.028793 4.347568 3.124509 0
M  V30 44 H -2.684316 2.282487 1.526342 0
M  V30 45 H -3.425873 3.455566 0.408348 0
M  V30 46 H -1.561532 2.380040 -0.747110 0
M  V30 47 H -0.962287 4.012784 -0.260198 0
M  V30 48 H -0.815758 0.576539 -1.270529 0
M  V30 49 H -2.266420 -5.873023 -1.581286 0
M  V30 50 H -1.535470 -5.577012 -3.917272 0
M  V30 END ATOM
M  V30 BEGIN BOND
M  V30 1 1 1 2
M  V30 2 1 2 3
M  V30 3 1 3 4
M  V30 4 2 4 5
M  V30 5 1 5 6
M  V30 6 1 5 7
M  V30 7 2 7 8
M  V30 8 1 8 9
M  V30 9 1 9 10
M  V30 10 1 10 11
M  V30 11 2 11 12
M  V30 12 1 12 13
M  V30 13 1 13 14
M  V30 14 1 14 15
M  V30 15 1 15 16
M  V30 16 2 15 17
M  V30 17 1 14 18
M  V30 18 1 18 19
M  V30 19 2 10 20
M  V30 20 1 20 21
M  V30 21 1 21 22
M  V30 22 1 2 23
M  V30 23 2 23 24
M  V30 24 1 24 25
M  V30 25 1 24 26
M  V30 26 2 26 27
M  V30 27 1 27 28
M  V30 28 1 28 29
M  V30 29 2 28 30
M  V30 30 1 30 31
M  V30 31 1 22 4
M  V30 32 1 30 23
M  V30 33 2 22 9
M  V30 34 1 19 11
M  V30 35 1 1 32
M  V30 36 1 1 33
M  V30 37 1 1 34
M  V30 38 1 2 35 CFG=1
M  V30 39 1 6 36
M  V30 40 1 6 37
M  V30 41 1 8 38
M  V30 42 1 12 39
M  V30 43 1 13 40
M  V30 44 1 13 41
M  V30 45 1 16 42
M  V30 46 1 16 43
M  V30 47 1 18 44
M  V30 48 1 18 45
M  V30 49 1 19 46
M  V30 50 1 19 47
M  V30 51 1 20 48
M  V30 52 1 26 49
M  V30 53 1 27 50
M  V30 END BOND
M  V30 END CTAB
M  END
>  <Dataset>  (85) 
ChEMBL_Kinases

>  <Ligand_Instance>  (85) 
nan

>  <PDB_ID>  (85) 
nan

>  <Standardized_SMILES>  (85) 
C[C@@H](Oc1c(N)ncc2c(C3=CCN(C(N)=O)CC3)coc12)c1c(Cl)ccc(F)c1Cl

>  <Name>  (85) 
nan

>  <Pocket>  (85) 
nan

>  <ATP_Site>  (85) 
nan

>  <Peripheral>  (85) 
nan

>  <Num_H_Atoms_ProtBoundConf>  (85) 
nan

>  <Num_Resolved_Atoms>  (85) 
nan

>  <Num_Not_Resolved_Atoms>  (85) 
nan

$$$$
CHEMBL2401960
     RDKit          3D

  0  0  0  0  0  0  0  0  0  0999 V3000
M  V30 BEGIN CTAB
M  V30 COUNTS 53 57 0 0 0
M  V30 BEGIN ATOM
M  V30 1 C 1.762538 -2.406385 -1.060284 0
M  V30 2 C 1.128632 -2.004535 0.249742 0
M  V30 3 C 1.710916 -2.745776 1.412148 0
M  V30 4 N -0.314289 -1.948342 0.211441 0
M  V30 5 C -1.019351 -0.705949 0.498066 0
M  V30 6 N -0.365803 0.472464 0.253151 0
M  V30 7 C -0.930657 1.661894 0.485425 0
M  V30 8 N -0.146548 2.821267 0.189291 0
M  V30 9 C -0.723379 3.792370 -0.577016 0
M  V30 10 C 0.194540 4.816009 -0.743644 0
M  V30 11 N 1.304860 4.448912 -0.079064 0
M  V30 12 C 1.111676 3.244882 0.489405 0
M  V30 13 C 1.948242 2.383437 1.305664 0
M  V30 14 C 1.753601 2.225712 2.668446 0
M  V30 15 C 2.557912 1.402950 3.429220 0
M  V30 16 C 3.595129 0.712560 2.803611 0
M  V30 17 F 4.365689 -0.092000 3.602928 0
M  V30 18 C 3.825610 0.839779 1.448047 0
M  V30 19 C 2.988430 1.676568 0.741118 0
M  V30 20 N -2.163922 1.732636 0.968975 0
M  V30 21 C -2.830075 0.602900 1.219337 0
M  V30 22 C -2.296471 -0.652651 0.998729 0
M  V30 23 N -2.941626 -1.892910 1.241158 0
M  V30 24 C -4.291596 -1.836812 1.770236 0
M  V30 25 C -2.254986 -3.115889 0.962233 0
M  V30 26 O -2.641953 -4.124357 1.649268 0
M  V30 27 C -1.178468 -3.046349 -0.095200 0
M  V30 28 C -0.702948 -4.386360 -0.409620 0
M  V30 29 C -1.846075 -4.553438 -1.386369 0
M  V30 30 C -1.867532 -3.021219 -1.444704 0
M  V30 31 H 2.519390 -1.674494 -1.401306 0
M  V30 32 H 2.338998 -3.340661 -0.850588 0
M  V30 33 H 1.060603 -2.546433 -1.894624 0
M  V30 34 H 1.484441 -0.962577 0.420180 0
M  V30 35 H 1.414013 -2.210455 2.327116 0
M  V30 36 H 1.573817 -3.823331 1.414786 0
M  V30 37 H 2.811679 -2.585092 1.356172 0
M  V30 38 H -1.713561 3.871840 -1.035944 0
M  V30 39 H 0.078873 5.747649 -1.294962 0
M  V30 40 H 0.925223 2.798585 3.074773 0
M  V30 41 H 2.344401 1.329836 4.490945 0
M  V30 42 H 4.639970 0.272541 1.065835 0
M  V30 43 H 3.202193 1.748259 -0.314905 0
M  V30 44 H -3.843072 0.621882 1.616211 0
M  V30 45 H -4.661279 -2.861521 1.827173 0
M  V30 46 H -4.900489 -1.245473 1.072006 0
M  V30 47 H -4.238428 -1.383144 2.779607 0
M  V30 48 H 0.297759 -4.595051 -0.788431 0
M  V30 49 H -0.866201 -5.131463 0.411888 0
M  V30 50 H -1.601448 -5.048875 -2.338188 0
M  V30 51 H -2.772102 -5.004058 -0.971423 0
M  V30 52 H -2.935736 -2.707511 -1.416601 0
M  V30 53 H -1.305073 -2.585804 -2.283854 0
M  V30 END ATOM
M  V30 BEGIN BOND
M  V30 1 1 1 2
M  V30 2 1 2 3
M  V30 3 1 2 4
M  V30 4 1 4 5
M  V30 5 2 5 6
M  V30 6 1 6 7
M  V30 7 1 7 8
M  V30 8 1 8 9
M  V30 9 2 9 10
M  V30 10 1 10 11
M  V30 11 2 11 12
M  V30 12 1 12 13
M  V30 13 2 13 14
M  V30 14 1 14 15
M  V30 15 2 15 16
M  V30 16 1 16 17
M  V30 17 1 16 18
M  V30 18 2 18 19
M  V30 19 2 7 20
M  V30 20 1 20 21
M  V30 21 2 21 22
M  V30 22 1 22 23
M  V30 23 1 23 24
M  V30 24 1 23 25
M  V30 25 2 25 26
M  V30 26 1 25 27
M  V30 27 1 27 28
M  V30 28 1 28 29
M  V30 29 1 29 30
M  V30 30 1 27 4
M  V30 31 1 22 5
M  V30 32 1 30 27
M  V30 33 1 12 8
M  V30 34 1 19 13
M  V30 35 1 1 31
M  V30 36 1 1 32
M  V30 37 1 1 33
M  V30 38 1 2 34
M  V30 39 1 3 35
M  V30 40 1 3 36
M  V30 41 1 3 37
M  V30 42 1 9 38
M  V30 43 1 10 39
M  V30 44 1 14 40
M  V30 45 1 15 41
M  V30 46 1 18 42
M  V30 47 1 19 43
M  V30 48 1 21 44
M  V30 49 1 24 45
M  V30 50 1 24 46
M  V30 51 1 24 47
M  V30 52 1 28 48
M  V30 53 1 28 49
M  V30 54 1 29 50
M  V30 55 1 29 51
M  V30 56 1 30 52
M  V30 57 1 30 53
M  V30 END BOND
M  V30 END CTAB
M  END
>  <Dataset>  (86) 
ChEMBL_Kinases

>  <Ligand_Instance>  (86) 
nan

>  <PDB_ID>  (86) 
nan

>  <Standardized_SMILES>  (86) 
CC(C)N1c2nc(-n3ccnc3-c3ccc(F)cc3)ncc2N(C)C(=O)C12CCC2

>  <Name>  (86) 
nan

>  <Pocket>  (86) 
nan

>  <ATP_Site>  (86) 
nan

>  <Peripheral>  (86) 
nan

>  <Num_H_Atoms_ProtBoundConf>  (86) 
nan

>  <Num_Resolved_Atoms>  (86) 
nan

>  <Num_Not_Resolved_Atoms>  (86) 
nan

$$$$
CHEMBL2401961
     RDKit          3D

  0  0  0  0  0  0  0  0  0  0999 V3000
M  V30 BEGIN CTAB
M  V30 COUNTS 52 55 0 0 0
M  V30 BEGIN ATOM
M  V30 1 C 1.278111 -1.250325 -1.844427 0
M  V30 2 C 0.732692 -2.465040 -1.113290 0
M  V30 3 C 1.843424 -3.210668 -0.417779 0
M  V30 4 N -0.377381 -2.187193 -0.258546 0
M  V30 5 C -0.953501 -0.884565 -0.061513 0
M  V30 6 N -0.154696 0.187766 -0.283189 0
M  V30 7 C -0.596517 1.448108 -0.127259 0
M  V30 8 N 0.227594 2.596246 -0.355271 0
M  V30 9 C 0.237161 3.598015 -1.264849 0
M  V30 10 C 1.296312 4.433870 -0.970977 0
M  V30 11 N 1.907096 3.915321 0.116568 0
M  V30 12 C 1.255506 2.793790 0.493007 0
M  V30 13 C 1.738321 2.041330 1.667089 0
M  V30 14 C 1.267173 2.210731 2.965567 0
M  V30 15 C 1.797825 1.447214 3.980972 0
M  V30 16 C 2.786410 0.527389 3.698216 0
M  V30 17 F 3.320323 -0.233123 4.686387 0
M  V30 18 C 3.285846 0.323801 2.425758 0
M  V30 19 C 2.727538 1.111604 1.424533 0
M  V30 20 N -1.876514 1.669558 0.262867 0
M  V30 21 C -2.727042 0.633858 0.500839 0
M  V30 22 C -2.252884 -0.641256 0.334874 0
M  V30 23 N -3.111977 -1.753936 0.574263 0
M  V30 24 C -4.492625 -1.601604 0.993493 0
M  V30 25 C -2.552412 -3.048077 0.382414 0
M  V30 26 O -3.308839 -4.021789 0.093314 0
M  V30 27 C -1.065434 -3.222965 0.529917 0
M  V30 28 C -0.754207 -3.092757 2.004376 0
M  V30 29 C -0.696884 -4.607292 0.082591 0
M  V30 30 H 1.930325 -1.690663 -2.660207 0
M  V30 31 H 1.876585 -0.583305 -1.202276 0
M  V30 32 H 0.478741 -0.718842 -2.370735 0
M  V30 33 H 0.370045 -3.141521 -1.944115 0
M  V30 34 H 2.827123 -2.704594 -0.642215 0
M  V30 35 H 1.857421 -4.267862 -0.733595 0
M  V30 36 H 1.770239 -3.198194 0.688185 0
M  V30 37 H -0.577035 3.501536 -1.991677 0
M  V30 38 H 1.398903 5.277307 -1.642132 0
M  V30 39 H 0.491788 2.955399 3.086990 0
M  V30 40 H 1.409686 1.600937 4.989688 0
M  V30 41 H 4.059278 -0.397659 2.212525 0
M  V30 42 H 3.114069 0.958544 0.420519 0
M  V30 43 H -3.759485 0.767232 0.814697 0
M  V30 44 H -4.597417 -1.357287 2.055604 0
M  V30 45 H -5.022323 -2.554595 0.716351 0
M  V30 46 H -5.011135 -0.804745 0.401300 0
M  V30 47 H -1.632503 -3.472967 2.561872 0
M  V30 48 H 0.095334 -3.740553 2.319038 0
M  V30 49 H -0.572661 -2.045070 2.306910 0
M  V30 50 H 0.124421 -4.999507 0.750848 0
M  V30 51 H -1.562502 -5.279409 0.309781 0
M  V30 52 H -0.484975 -4.718735 -0.983614 0
M  V30 END ATOM
M  V30 BEGIN BOND
M  V30 1 1 1 2
M  V30 2 1 2 3
M  V30 3 1 2 4
M  V30 4 1 4 5
M  V30 5 2 5 6
M  V30 6 1 6 7
M  V30 7 1 7 8
M  V30 8 1 8 9
M  V30 9 2 9 10
M  V30 10 1 10 11
M  V30 11 2 11 12
M  V30 12 1 12 13
M  V30 13 2 13 14
M  V30 14 1 14 15
M  V30 15 2 15 16
M  V30 16 1 16 17
M  V30 17 1 16 18
M  V30 18 2 18 19
M  V30 19 2 7 20
M  V30 20 1 20 21
M  V30 21 2 21 22
M  V30 22 1 22 23
M  V30 23 1 23 24
M  V30 24 1 23 25
M  V30 25 2 25 26
M  V30 26 1 25 27
M  V30 27 1 27 28
M  V30 28 1 27 29
M  V30 29 1 27 4
M  V30 30 1 22 5
M  V30 31 1 12 8
M  V30 32 1 19 13
M  V30 33 1 1 30
M  V30 34 1 1 31
M  V30 35 1 1 32
M  V30 36 1 2 33
M  V30 37 1 3 34
M  V30 38 1 3 35
M  V30 39 1 3 36
M  V30 40 1 9 37
M  V30 41 1 10 38
M  V30 42 1 14 39
M  V30 43 1 15 40
M  V30 44 1 18 41
M  V30 45 1 19 42
M  V30 46 1 21 43
M  V30 47 1 24 44
M  V30 48 1 24 45
M  V30 49 1 24 46
M  V30 50 1 28 47
M  V30 51 1 28 48
M  V30 52 1 28 49
M  V30 53 1 29 50
M  V30 54 1 29 51
M  V30 55 1 29 52
M  V30 END BOND
M  V30 END CTAB
M  END
>  <Dataset>  (87) 
ChEMBL_Kinases

>  <Ligand_Instance>  (87) 
nan

>  <PDB_ID>  (87) 
nan

>  <Standardized_SMILES>  (87) 
CC(C)N1c2nc(-n3ccnc3-c3ccc(F)cc3)ncc2N(C)C(=O)C1(C)C

>  <Name>  (87) 
nan

>  <Pocket>  (87) 
nan

>  <ATP_Site>  (87) 
nan

>  <Peripheral>  (87) 
nan

>  <Num_H_Atoms_ProtBoundConf>  (87) 
nan

>  <Num_Resolved_Atoms>  (87) 
nan

>  <Num_Not_Resolved_Atoms>  (87) 
nan

$$$$
CHEMBL2401962
     RDKit          3D

  0  0  0  0  0  0  0  0  0  0999 V3000
M  V30 BEGIN CTAB
M  V30 COUNTS 51 55 0 0 0
M  V30 BEGIN ATOM
M  V30 1 C 0.117709 -2.461668 3.367525 0
M  V30 2 C 0.745563 -3.636931 2.642565 0
M  V30 3 C 1.804147 -3.012168 1.721330 0
M  V30 4 C 2.734544 -2.312055 2.610440 0
M  V30 5 O 3.326696 -3.123711 3.372903 0
M  V30 6 N 2.962030 -0.918056 2.636626 0
M  V30 7 C 3.918620 -0.351529 3.563658 0
M  V30 8 C 2.225963 -0.109933 1.731352 0
M  V30 9 C 2.491119 1.239772 1.796246 0
M  V30 10 N 1.794463 2.027842 0.927521 0
M  V30 11 C 0.900488 1.460272 0.067078 0
M  V30 12 N 0.245250 2.398533 -0.782017 0
M  V30 13 C 0.864811 3.406201 -1.433964 0
M  V30 14 C -0.028742 4.147941 -2.178997 0
M  V30 15 N -1.212202 3.572102 -1.969377 0
M  V30 16 C -1.052168 2.527669 -1.136050 0
M  V30 17 C -2.102632 1.648407 -0.667344 0
M  V30 18 C -2.755314 1.021184 -1.727924 0
M  V30 19 C -3.798845 0.132167 -1.522425 0
M  V30 20 C -4.203068 -0.139852 -0.234182 0
M  V30 21 C -3.561835 0.476890 0.816487 0
M  V30 22 C -2.522806 1.362256 0.614973 0
M  V30 23 N 0.694151 0.136280 0.060915 0
M  V30 24 C 1.331597 -0.714905 0.877046 0
M  V30 25 N 1.071739 -2.112920 0.818792 0
M  V30 26 C 0.125224 -2.701966 -0.054800 0
M  V30 27 C 0.249553 -4.062688 -0.361137 0
M  V30 28 N -0.616550 -4.697876 -1.171206 0
M  V30 29 C -1.659036 -4.058634 -1.737777 0
M  V30 30 N -1.796733 -2.749549 -1.456082 0
M  V30 31 C -0.932535 -2.109541 -0.645735 0
M  V30 32 H -0.861484 -2.854811 3.769676 0
M  V30 33 H 0.721813 -2.136382 4.226497 0
M  V30 34 H -0.064793 -1.587513 2.720203 0
M  V30 35 H 1.196711 -4.309957 3.379151 0
M  V30 36 H -0.010361 -4.214016 2.077894 0
M  V30 37 H 2.347630 -3.798698 1.163795 0
M  V30 38 H 4.807214 0.086551 3.027169 0
M  V30 39 H 3.384592 0.479882 4.108279 0
M  V30 40 H 4.230400 -1.124624 4.274413 0
M  V30 41 H 3.187156 1.674807 2.467230 0
M  V30 42 H 1.929491 3.595334 -1.370012 0
M  V30 43 H 0.197560 5.017251 -2.801984 0
M  V30 44 H -2.531493 1.151119 -2.786849 0
M  V30 45 H -4.329069 -0.373200 -2.314283 0
M  V30 46 H -5.017250 -0.832411 -0.056054 0
M  V30 47 H -3.841387 0.296252 1.832554 0
M  V30 48 H -1.954036 1.898165 1.360990 0
M  V30 49 H 1.014488 -4.735781 -0.008569 0
M  V30 50 H -2.361223 -4.552738 -2.388573 0
M  V30 51 H -1.159455 -1.089471 -0.503310 0
M  V30 END ATOM
M  V30 BEGIN BOND
M  V30 1 1 1 2
M  V30 2 1 2 3
M  V30 3 1 3 4
M  V30 4 2 4 5
M  V30 5 1 4 6
M  V30 6 1 6 7
M  V30 7 1 6 8
M  V30 8 2 8 9
M  V30 9 1 9 10
M  V30 10 2 10 11
M  V30 11 1 11 12
M  V30 12 1 12 13
M  V30 13 2 13 14
M  V30 14 1 14 15
M  V30 15 2 15 16
M  V30 16 1 16 17
M  V30 17 2 17 18
M  V30 18 1 18 19
M  V30 19 2 19 20
M  V30 20 1 20 21
M  V30 21 2 21 22
M  V30 22 1 11 23
M  V30 23 2 23 24
M  V30 24 1 24 25
M  V30 25 1 25 26
M  V30 26 2 26 27
M  V30 27 1 27 28
M  V30 28 2 28 29
M  V30 29 1 29 30
M  V30 30 2 30 31
M  V30 31 1 25 3
M  V30 32 1 31 26
M  V30 33 1 24 8
M  V30 34 1 16 12
M  V30 35 1 22 17
M  V30 36 1 1 32
M  V30 37 1 1 33
M  V30 38 1 1 34
M  V30 39 1 2 35
M  V30 40 1 2 36
M  V30 41 1 3 37
M  V30 42 1 7 38
M  V30 43 1 7 39
M  V30 44 1 7 40
M  V30 45 1 9 41
M  V30 46 1 13 42
M  V30 47 1 14 43
M  V30 48 1 18 44
M  V30 49 1 19 45
M  V30 50 1 20 46
M  V30 51 1 21 47
M  V30 52 1 22 48
M  V30 53 1 27 49
M  V30 54 1 29 50
M  V30 55 1 31 51
M  V30 END BOND
M  V30 END CTAB
M  END
>  <Dataset>  (88) 
ChEMBL_Kinases

>  <Ligand_Instance>  (88) 
nan

>  <PDB_ID>  (88) 
nan

>  <Standardized_SMILES>  (88) 
CCC1C(=O)N(C)c2cnc(-n3ccnc3-c3ccccc3)nc2N1c1cncnc1

>  <Name>  (88) 
nan

>  <Pocket>  (88) 
nan

>  <ATP_Site>  (88) 
nan

>  <Peripheral>  (88) 
nan

>  <Num_H_Atoms_ProtBoundConf>  (88) 
nan

>  <Num_Resolved_Atoms>  (88) 
nan

>  <Num_Not_Resolved_Atoms>  (88) 
nan

$$$$
CHEMBL2401970
     RDKit          3D

  0  0  0  0  0  0  0  0  0  0999 V3000
M  V30 BEGIN CTAB
M  V30 COUNTS 51 55 0 0 0
M  V30 BEGIN ATOM
M  V30 1 C 0.670395 -1.752566 3.749285 0
M  V30 2 C 0.057361 -2.955198 3.117910 0
M  V30 3 C 0.523436 -3.226638 1.705663 0 CFG=2
M  V30 4 C 1.971717 -3.440390 1.662029 0
M  V30 5 O 2.509751 -4.599695 1.661766 0
M  V30 6 N 2.824912 -2.279281 1.617315 0
M  V30 7 C 4.215397 -2.360695 2.043480 0
M  V30 8 C 2.328570 -1.016057 1.153165 0
M  V30 9 C 3.097263 0.126043 1.091808 0
M  V30 10 N 2.486432 1.247040 0.633062 0
M  V30 11 C 1.195715 1.264424 0.251965 0
M  V30 12 N 0.615126 2.475530 -0.220389 0
M  V30 13 C 1.289405 3.597344 -0.539961 0
M  V30 14 C 0.448048 4.594344 -0.964178 0
M  V30 15 N -0.784804 4.039596 -0.893675 0
M  V30 16 C -0.668108 2.761242 -0.443375 0
M  V30 17 C -1.802923 1.863324 -0.245499 0
M  V30 18 C -2.499058 1.641667 -1.421696 0
M  V30 19 C -3.610662 0.816162 -1.440932 0
M  V30 20 C -3.998544 0.224347 -0.250170 0
M  V30 21 F -5.095269 -0.598392 -0.236475 0
M  V30 22 C -3.300769 0.447723 0.924076 0
M  V30 23 C -2.193074 1.271168 0.939926 0
M  V30 24 N 0.467957 0.135385 0.321891 0
M  V30 25 C 1.002971 -1.017837 0.766450 0
M  V30 26 N 0.123288 -2.143254 0.793236 0
M  V30 27 C -1.078522 -2.309996 0.038416 0
M  V30 28 C -0.981429 -3.559320 -0.842685 0
M  V30 29 O -0.507528 -2.822941 -1.926503 0
M  V30 30 C -1.146269 -1.713248 -1.335633 0
M  V30 31 H 0.327347 -0.818760 3.234942 0
M  V30 32 H 1.755027 -1.789059 3.882518 0
M  V30 33 H 0.232825 -1.678886 4.773498 0
M  V30 34 H -1.047886 -2.813540 3.132912 0
M  V30 35 H 0.313606 -3.846356 3.712795 0
M  V30 36 H 0.056869 -4.197335 1.433344 0
M  V30 37 H 4.465298 -1.520424 2.738908 0
M  V30 38 H 4.355577 -3.276238 2.658100 0
M  V30 39 H 4.926885 -2.333971 1.192160 0
M  V30 40 H 4.119592 0.086005 1.400234 0
M  V30 41 H 2.385331 3.670054 -0.458272 0
M  V30 42 H 0.758286 5.585129 -1.274190 0
M  V30 43 H -2.258990 2.067063 -2.391718 0
M  V30 44 H -4.179260 0.625749 -2.364720 0
M  V30 45 H -3.586339 -0.006314 1.872996 0
M  V30 46 H -1.577148 1.513928 1.796710 0
M  V30 47 H -2.025303 -2.278843 0.618585 0
M  V30 48 H -0.229831 -4.294065 -0.567346 0
M  V30 49 H -1.958044 -3.996254 -1.113732 0
M  V30 50 H -0.550659 -0.831019 -1.560672 0
M  V30 51 H -2.196264 -1.703404 -1.702666 0
M  V30 END ATOM
M  V30 BEGIN BOND
M  V30 1 1 1 2
M  V30 2 1 2 3
M  V30 3 1 3 4
M  V30 4 2 4 5
M  V30 5 1 4 6
M  V30 6 1 6 7
M  V30 7 1 6 8
M  V30 8 2 8 9
M  V30 9 1 9 10
M  V30 10 2 10 11
M  V30 11 1 11 12
M  V30 12 1 12 13
M  V30 13 2 13 14
M  V30 14 1 14 15
M  V30 15 2 15 16
M  V30 16 1 16 17
M  V30 17 2 17 18
M  V30 18 1 18 19
M  V30 19 2 19 20
M  V30 20 1 20 21
M  V30 21 1 20 22
M  V30 22 2 22 23
M  V30 23 1 11 24
M  V30 24 2 24 25
M  V30 25 1 25 26
M  V30 26 1 26 27
M  V30 27 1 27 28
M  V30 28 1 28 29
M  V30 29 1 29 30
M  V30 30 1 26 3
M  V30 31 1 30 27
M  V30 32 1 25 8
M  V30 33 1 16 12
M  V30 34 1 23 17
M  V30 35 1 1 31
M  V30 36 1 1 32
M  V30 37 1 1 33
M  V30 38 1 2 34
M  V30 39 1 2 35
M  V30 40 1 3 36 CFG=3
M  V30 41 1 7 37
M  V30 42 1 7 38
M  V30 43 1 7 39
M  V30 44 1 9 40
M  V30 45 1 13 41
M  V30 46 1 14 42
M  V30 47 1 18 43
M  V30 48 1 19 44
M  V30 49 1 22 45
M  V30 50 1 23 46
M  V30 51 1 27 47
M  V30 52 1 28 48
M  V30 53 1 28 49
M  V30 54 1 30 50
M  V30 55 1 30 51
M  V30 END BOND
M  V30 END CTAB
M  END
>  <Dataset>  (89) 
ChEMBL_Kinases

>  <Ligand_Instance>  (89) 
nan

>  <PDB_ID>  (89) 
nan

>  <Standardized_SMILES>  (89) 
CC[C@@H]1C(=O)N(C)c2cnc(-n3ccnc3-c3ccc(F)cc3)nc2N1C1COC1

>  <Name>  (89) 
nan

>  <Pocket>  (89) 
nan

>  <ATP_Site>  (89) 
nan

>  <Peripheral>  (89) 
nan

>  <Num_H_Atoms_ProtBoundConf>  (89) 
nan

>  <Num_Resolved_Atoms>  (89) 
nan

>  <Num_Not_Resolved_Atoms>  (89) 
nan

$$$$
CHEMBL2402003
     RDKit          3D

  0  0  0  0  0  0  0  0  0  0999 V3000
M  V30 BEGIN CTAB
M  V30 COUNTS 47 50 0 0 0
M  V30 BEGIN ATOM
M  V30 1 C 0.348815 1.250628 4.258547 0
M  V30 2 C 1.217967 1.524285 3.081672 0
M  V30 3 C 2.219558 2.474513 3.061919 0
M  V30 4 C 2.974392 2.644291 1.896945 0
M  V30 5 C 2.724370 1.873778 0.779207 0
M  V30 6 C 3.568924 2.130315 -0.384048 0
M  V30 7 O 4.446634 3.005564 -0.311358 0
M  V30 8 N 3.455311 1.434547 -1.619970 0
M  V30 9 C 4.293352 1.702189 -2.746700 0
M  V30 10 C 4.580279 0.714981 -3.799274 0
M  V30 11 C 3.540419 1.789957 -4.054450 0
M  V30 12 C 1.728250 0.919671 0.779759 0
M  V30 13 C 0.992592 0.769144 1.946594 0
M  V30 14 N -0.020720 -0.229129 1.888917 0
M  V30 15 C 0.102485 -1.606736 2.220204 0
M  V30 16 O 1.172396 -2.133480 2.623081 0
M  V30 17 C -1.040585 -2.504615 2.105760 0
M  V30 18 C -0.885701 -3.837073 2.435984 0
M  V30 19 C -1.956210 -4.731997 2.340488 0
M  V30 20 C -3.200740 -4.321521 1.915458 0
M  V30 21 C -4.436701 -4.908813 1.708694 0
M  V30 22 C -5.307182 -3.933348 1.262430 0
M  V30 23 N -4.649396 -2.770182 1.188374 0
M  V30 24 C -5.223043 -1.503975 0.759326 0
M  V30 25 C -3.364220 -2.984128 1.581846 0
M  V30 26 C -2.298566 -2.126049 1.684007 0
M  V30 27 H 0.791469 0.380178 4.821843 0
M  V30 28 H 0.330831 2.131650 4.917815 0
M  V30 29 H -0.655260 0.906454 3.940969 0
M  V30 30 H 2.379590 3.059890 3.971420 0
M  V30 31 H 3.736543 3.410704 1.973140 0
M  V30 32 H 2.730075 0.695429 -1.713549 0
M  V30 33 H 5.050019 2.516384 -2.558002 0
M  V30 34 H 5.540652 0.847181 -4.346031 0
M  V30 35 H 4.260198 -0.313625 -3.615666 0
M  V30 36 H 3.786317 2.594789 -4.763321 0
M  V30 37 H 2.463231 1.478266 -4.081221 0
M  V30 38 H 1.542379 0.324976 -0.097251 0
M  V30 39 H -0.894215 0.194900 1.561291 0
M  V30 40 H 0.052372 -4.274890 2.784142 0
M  V30 41 H -1.836852 -5.789138 2.601533 0
M  V30 42 H -4.653495 -5.956670 1.876919 0
M  V30 43 H -6.358042 -4.053531 1.004579 0
M  V30 44 H -6.272442 -1.463414 1.123643 0
M  V30 45 H -5.322941 -1.525255 -0.364952 0
M  V30 46 H -4.604425 -0.645722 1.060950 0
M  V30 47 H -2.458597 -1.105648 1.419934 0
M  V30 END ATOM
M  V30 BEGIN BOND
M  V30 1 1 1 2
M  V30 2 2 2 3
M  V30 3 1 3 4
M  V30 4 2 4 5
M  V30 5 1 5 6
M  V30 6 2 6 7
M  V30 7 1 6 8
M  V30 8 1 8 9
M  V30 9 1 9 10
M  V30 10 1 10 11
M  V30 11 1 5 12
M  V30 12 2 12 13
M  V30 13 1 13 14
M  V30 14 1 14 15
M  V30 15 2 15 16
M  V30 16 1 15 17
M  V30 17 2 17 18
M  V30 18 1 18 19
M  V30 19 2 19 20
M  V30 20 1 20 21
M  V30 21 2 21 22
M  V30 22 1 22 23
M  V30 23 1 23 24
M  V30 24 1 23 25
M  V30 25 2 25 26
M  V30 26 1 13 2
M  V30 27 1 26 17
M  V30 28 1 11 9
M  V30 29 1 25 20
M  V30 30 1 1 27
M  V30 31 1 1 28
M  V30 32 1 1 29
M  V30 33 1 3 30
M  V30 34 1 4 31
M  V30 35 1 8 32
M  V30 36 1 9 33
M  V30 37 1 10 34
M  V30 38 1 10 35
M  V30 39 1 11 36
M  V30 40 1 11 37
M  V30 41 1 12 38
M  V30 42 1 14 39
M  V30 43 1 18 40
M  V30 44 1 19 41
M  V30 45 1 21 42
M  V30 46 1 22 43
M  V30 47 1 24 44
M  V30 48 1 24 45
M  V30 49 1 24 46
M  V30 50 1 26 47
M  V30 END BOND
M  V30 END CTAB
M  END
>  <Dataset>  (90) 
ChEMBL_Kinases

>  <Ligand_Instance>  (90) 
nan

>  <PDB_ID>  (90) 
nan

>  <Standardized_SMILES>  (90) 
Cc1ccc(C(=O)NC2CC2)cc1NC(=O)c1ccc2ccn(C)c2c1

>  <Name>  (90) 
nan

>  <Pocket>  (90) 
nan

>  <ATP_Site>  (90) 
nan

>  <Peripheral>  (90) 
nan

>  <Num_H_Atoms_ProtBoundConf>  (90) 
nan

>  <Num_Resolved_Atoms>  (90) 
nan

>  <Num_Not_Resolved_Atoms>  (90) 
nan

$$$$
CHEMBL2402004
     RDKit          3D

  0  0  0  0  0  0  0  0  0  0999 V3000
M  V30 BEGIN CTAB
M  V30 COUNTS 53 56 0 0 0
M  V30 BEGIN ATOM
M  V30 1 C -1.060040 1.285741 -1.670871 0
M  V30 2 C 0.052924 1.587742 -0.726042 0
M  V30 3 C 0.878947 2.632799 -1.133050 0
M  V30 4 C 1.933886 2.982332 -0.318854 0
M  V30 5 C 2.203575 2.343331 0.876540 0
M  V30 6 C 3.317125 2.674469 1.761207 0
M  V30 7 O 3.519026 2.119381 2.870461 0
M  V30 8 N 4.242155 3.670412 1.383511 0
M  V30 9 C 5.373448 4.062206 2.194784 0
M  V30 10 C 6.753375 4.057349 1.497543 0
M  V30 11 C 6.120131 5.303531 2.018651 0
M  V30 12 C 1.374112 1.308409 1.265809 0
M  V30 13 C 0.329155 0.943174 0.483209 0
M  V30 14 N -0.643326 -0.105685 0.691348 0
M  V30 15 C -0.066381 -1.235869 0.045704 0
M  V30 16 O 1.045218 -1.036135 -0.488065 0
M  V30 17 C -0.671088 -2.582831 -0.034037 0
M  V30 18 C 0.072497 -3.502036 -0.751191 0
M  V30 19 C -0.370712 -4.818273 -0.914335 0
M  V30 20 C -1.574552 -5.114808 -0.318282 0
M  V30 21 C -2.308274 -6.275849 -0.265277 0
M  V30 22 C -3.435303 -5.988795 0.471620 0
M  V30 23 N -3.459528 -4.704655 0.891715 0
M  V30 24 C -4.488738 -4.076568 1.681666 0
M  V30 25 C -5.218569 -3.089758 0.805410 0
M  V30 26 C -5.389191 -5.161957 2.215544 0
M  V30 27 C -2.309369 -4.210867 0.389336 0
M  V30 28 C -1.874412 -2.891887 0.557625 0
M  V30 29 H -1.767474 0.590465 -1.165883 0
M  V30 30 H -0.587600 0.802089 -2.564948 0
M  V30 31 H -1.559293 2.216008 -1.973919 0
M  V30 32 H 0.718316 3.174552 -2.064469 0
M  V30 33 H 2.574476 3.791420 -0.633692 0
M  V30 34 H 4.206223 4.216047 0.494586 0
M  V30 35 H 5.432990 3.559026 3.177837 0
M  V30 36 H 7.593701 3.555639 1.980431 0
M  V30 37 H 6.669952 3.835443 0.395056 0
M  V30 38 H 5.815023 6.117501 1.319769 0
M  V30 39 H 6.644682 5.734034 2.897902 0
M  V30 40 H 1.468978 0.731407 2.166330 0
M  V30 41 H -1.579878 -0.255285 1.148583 0
M  V30 42 H 1.031691 -3.298279 -1.236383 0
M  V30 43 H 0.176272 -5.548765 -1.459780 0
M  V30 44 H -2.080946 -7.238108 -0.699751 0
M  V30 45 H -4.208146 -6.712596 0.686793 0
M  V30 46 H -4.030015 -3.481781 2.505459 0
M  V30 47 H -4.491024 -2.722037 0.049642 0
M  V30 48 H -6.038383 -3.539512 0.225767 0
M  V30 49 H -5.559320 -2.226710 1.414924 0
M  V30 50 H -6.100482 -4.822478 2.972389 0
M  V30 51 H -4.738211 -6.003235 2.527791 0
M  V30 52 H -5.974295 -5.538242 1.334557 0
M  V30 53 H -2.377261 -2.125486 1.086934 0
M  V30 END ATOM
M  V30 BEGIN BOND
M  V30 1 1 1 2
M  V30 2 2 2 3
M  V30 3 1 3 4
M  V30 4 2 4 5
M  V30 5 1 5 6
M  V30 6 2 6 7
M  V30 7 1 6 8
M  V30 8 1 8 9
M  V30 9 1 9 10
M  V30 10 1 10 11
M  V30 11 1 5 12
M  V30 12 2 12 13
M  V30 13 1 13 14
M  V30 14 1 14 15
M  V30 15 2 15 16
M  V30 16 1 15 17
M  V30 17 2 17 18
M  V30 18 1 18 19
M  V30 19 2 19 20
M  V30 20 1 20 21
M  V30 21 2 21 22
M  V30 22 1 22 23
M  V30 23 1 23 24
M  V30 24 1 24 25
M  V30 25 1 24 26
M  V30 26 1 23 27
M  V30 27 2 27 28
M  V30 28 1 13 2
M  V30 29 1 28 17
M  V30 30 1 11 9
M  V30 31 1 27 20
M  V30 32 1 1 29
M  V30 33 1 1 30
M  V30 34 1 1 31
M  V30 35 1 3 32
M  V30 36 1 4 33
M  V30 37 1 8 34
M  V30 38 1 9 35
M  V30 39 1 10 36
M  V30 40 1 10 37
M  V30 41 1 11 38
M  V30 42 1 11 39
M  V30 43 1 12 40
M  V30 44 1 14 41
M  V30 45 1 18 42
M  V30 46 1 19 43
M  V30 47 1 21 44
M  V30 48 1 22 45
M  V30 49 1 24 46
M  V30 50 1 25 47
M  V30 51 1 25 48
M  V30 52 1 25 49
M  V30 53 1 26 50
M  V30 54 1 26 51
M  V30 55 1 26 52
M  V30 56 1 28 53
M  V30 END BOND
M  V30 END CTAB
M  END
>  <Dataset>  (91) 
ChEMBL_Kinases

>  <Ligand_Instance>  (91) 
nan

>  <PDB_ID>  (91) 
nan

>  <Standardized_SMILES>  (91) 
Cc1ccc(C(=O)NC2CC2)cc1NC(=O)c1ccc2ccn(C(C)C)c2c1

>  <Name>  (91) 
nan

>  <Pocket>  (91) 
nan

>  <ATP_Site>  (91) 
nan

>  <Peripheral>  (91) 
nan

>  <Num_H_Atoms_ProtBoundConf>  (91) 
nan

>  <Num_Resolved_Atoms>  (91) 
nan

>  <Num_Not_Resolved_Atoms>  (91) 
nan

$$$$
CHEMBL2402082
     RDKit          3D

  0  0  0  0  0  0  0  0  0  0999 V3000
M  V30 BEGIN CTAB
M  V30 COUNTS 53 57 0 0 0
M  V30 BEGIN ATOM
M  V30 1 C 0.882699 -2.259358 3.216038 0
M  V30 2 C 0.403301 -3.487740 2.487107 0
M  V30 3 C 0.896583 -3.538376 1.065209 0 CFG=2
M  V30 4 C 2.393353 -3.545826 1.157689 0
M  V30 5 O 3.066248 -4.599125 1.268309 0
M  V30 6 N 3.051111 -2.293695 1.115747 0
M  V30 7 C 4.415098 -2.145488 1.543680 0
M  V30 8 C 2.379549 -1.131708 0.645398 0
M  V30 9 C 3.009455 0.096195 0.599027 0
M  V30 10 N 2.323034 1.158546 0.144494 0
M  V30 11 C 1.034359 1.101138 -0.277111 0
M  V30 12 N 0.463265 2.325956 -0.727232 0
M  V30 13 C 1.132407 3.186731 -1.528186 0
M  V30 14 C 0.353238 4.288951 -1.813049 0
M  V30 15 N -0.793614 4.088960 -1.178057 0
M  V30 16 C -0.727315 2.914343 -0.528544 0
M  V30 17 C -1.763927 2.304488 0.293505 0
M  V30 18 C -1.677014 1.749551 1.553431 0
M  V30 19 C -2.808944 1.224637 2.142113 0
M  V30 20 C -4.029827 1.238574 1.505180 0
M  V30 21 F -5.100174 0.705987 2.141258 0
M  V30 22 C -4.144316 1.788145 0.243339 0
M  V30 23 C -3.010910 2.312304 -0.342990 0
M  V30 24 N 0.400491 -0.092959 -0.239170 0
M  V30 25 C 1.069320 -1.192652 0.217295 0
M  V30 26 N 0.398387 -2.446920 0.255283 0
M  V30 27 C -0.800398 -2.682059 -0.507709 0
M  V30 28 C -0.700155 -3.180338 -1.812116 0
M  V30 29 C -1.998724 -3.296223 -2.271536 0
M  V30 30 N -2.804918 -2.881781 -1.271930 0
M  V30 31 N -2.085024 -2.519216 -0.229194 0
M  V30 32 C -2.566382 -2.022055 1.027448 0
M  V30 33 H 0.434972 -1.333741 2.795186 0
M  V30 34 H 0.432360 -2.335540 4.248777 0
M  V30 35 H 1.990560 -2.226695 3.302354 0
M  V30 36 H -0.675987 -3.549507 2.611012 0
M  V30 37 H 0.881609 -4.351430 3.006799 0
M  V30 38 H 0.610706 -4.489684 0.591276 0
M  V30 39 H 4.478645 -1.541532 2.492499 0
M  V30 40 H 5.033008 -1.692141 0.737499 0
M  V30 41 H 4.854554 -3.131011 1.794445 0
M  V30 42 H 4.026248 0.153327 0.929229 0
M  V30 43 H 2.147391 3.081645 -1.926971 0
M  V30 44 H 0.621414 5.141016 -2.427482 0
M  V30 45 H -0.675273 1.791760 1.958599 0
M  V30 46 H -2.676190 0.803789 3.130702 0
M  V30 47 H -5.111900 1.789439 -0.240074 0
M  V30 48 H -3.198268 2.727053 -1.345614 0
M  V30 49 H 0.207396 -3.429940 -2.364291 0
M  V30 50 H -2.277563 -3.652997 -3.247010 0
M  V30 51 H -1.838403 -1.453765 1.601712 0
M  V30 52 H -2.793400 -2.933621 1.654885 0
M  V30 53 H -3.546067 -1.549396 0.869347 0
M  V30 END ATOM
M  V30 BEGIN BOND
M  V30 1 1 1 2
M  V30 2 1 2 3
M  V30 3 1 3 4
M  V30 4 2 4 5
M  V30 5 1 4 6
M  V30 6 1 6 7
M  V30 7 1 6 8
M  V30 8 2 8 9
M  V30 9 1 9 10
M  V30 10 2 10 11
M  V30 11 1 11 12
M  V30 12 1 12 13
M  V30 13 2 13 14
M  V30 14 1 14 15
M  V30 15 2 15 16
M  V30 16 1 16 17
M  V30 17 2 17 18
M  V30 18 1 18 19
M  V30 19 2 19 20
M  V30 20 1 20 21
M  V30 21 1 20 22
M  V30 22 2 22 23
M  V30 23 1 11 24
M  V30 24 2 24 25
M  V30 25 1 25 26
M  V30 26 1 26 27
M  V30 27 2 27 28
M  V30 28 1 28 29
M  V30 29 2 29 30
M  V30 30 1 30 31
M  V30 31 1 31 32
M  V30 32 1 26 3
M  V30 33 1 31 27
M  V30 34 1 25 8
M  V30 35 1 16 12
M  V30 36 1 23 17
M  V30 37 1 1 33
M  V30 38 1 1 34
M  V30 39 1 1 35
M  V30 40 1 2 36
M  V30 41 1 2 37
M  V30 42 1 3 38 CFG=3
M  V30 43 1 7 39
M  V30 44 1 7 40
M  V30 45 1 7 41
M  V30 46 1 9 42
M  V30 47 1 13 43
M  V30 48 1 14 44
M  V30 49 1 18 45
M  V30 50 1 19 46
M  V30 51 1 22 47
M  V30 52 1 23 48
M  V30 53 1 28 49
M  V30 54 1 29 50
M  V30 55 1 32 51
M  V30 56 1 32 52
M  V30 57 1 32 53
M  V30 END BOND
M  V30 END CTAB
M  END
>  <Dataset>  (92) 
ChEMBL_Kinases

>  <Ligand_Instance>  (92) 
nan

>  <PDB_ID>  (92) 
nan

>  <Standardized_SMILES>  (92) 
CC[C@@H]1C(=O)N(C)c2cnc(-n3ccnc3-c3ccc(F)cc3)nc2N1c1ccnn1C

>  <Name>  (92) 
nan

>  <Pocket>  (92) 
nan

>  <ATP_Site>  (92) 
nan

>  <Peripheral>  (92) 
nan

>  <Num_H_Atoms_ProtBoundConf>  (92) 
nan

>  <Num_Resolved_Atoms>  (92) 
nan

>  <Num_Not_Resolved_Atoms>  (92) 
nan

$$$$
CHEMBL2398660
     RDKit          3D

  0  0  0  0  0  0  0  0  0  0999 V3000
M  V30 BEGIN CTAB
M  V30 COUNTS 76 81 0 0 0
M  V30 BEGIN ATOM
M  V30 1 O 3.102836 4.028324 2.710450 0
M  V30 2 C 2.878088 2.884016 3.170304 0
M  V30 3 N 2.359735 2.572747 4.454418 0
M  V30 4 C 2.009645 3.525767 5.440954 0
M  V30 5 C 3.054486 3.848554 6.314235 0
M  V30 6 C 2.820012 4.771961 7.321963 0
M  V30 7 C 1.572798 5.380101 7.480882 0
M  V30 8 C 0.542689 5.067349 6.627082 0
M  V30 9 C 0.803915 4.155916 5.646261 0
M  V30 10 N 3.120734 1.701276 2.442731 0
M  V30 11 C 3.615699 1.374185 1.154349 0
M  V30 12 C 2.763657 1.242900 0.087908 0
M  V30 13 C 3.122756 0.928514 -1.195618 0
M  V30 14 C 4.460205 0.723431 -1.445420 0
M  V30 15 C 4.956609 0.362847 -2.795342 0
M  V30 16 C 5.051634 -1.114410 -2.972761 0
M  V30 17 N 3.809525 -1.795257 -2.808004 0
M  V30 18 C 3.805701 -3.222014 -2.958816 0
M  V30 19 N 4.882100 -3.965503 -3.248535 0
M  V30 20 C 4.790852 -5.319112 -3.373769 0
M  V30 21 N 3.625569 -6.008450 -3.217764 0
M  V30 22 C 2.505372 -5.324910 -2.924817 0
M  V30 23 O 1.255651 -5.665623 -2.713365 0
M  V30 24 C 0.500760 -4.606505 -2.452164 0
M  V30 25 C -0.926505 -4.506567 -2.157222 0
M  V30 26 C -1.498062 -3.269830 -1.954100 0
M  V30 27 C -2.832665 -3.130514 -1.659791 0
M  V30 28 C -3.643909 -4.240730 -1.558494 0
M  V30 29 O -4.979247 -4.376377 -1.279116 0
M  V30 30 C -5.916876 -3.400248 -0.999829 0
M  V30 31 C -5.700325 -2.560491 0.214084 0
M  V30 32 N -6.827720 -1.606755 0.268310 0
M  V30 33 C -6.731907 -0.731976 1.379180 0
M  V30 34 C -7.055109 0.632292 0.848277 0
M  V30 35 C -7.290412 0.499714 -0.620882 0
M  V30 36 C -6.742558 -0.867146 -0.966808 0
M  V30 37 C -3.066698 -5.502442 -1.765054 0
M  V30 38 C -1.704496 -5.643502 -2.065695 0
M  V30 39 C 1.367175 -3.514736 -2.509039 0
M  V30 40 C 2.643741 -3.960487 -2.808189 0
M  V30 41 C 5.396771 0.838353 -0.414363 0
M  V30 42 C 4.963765 1.160874 0.867170 0
M  V30 43 H 2.158253 1.641339 4.870368 0
M  V30 44 H 4.062360 3.425261 6.268328 0
M  V30 45 H 3.617877 5.030421 8.005572 0
M  V30 46 H 1.472632 6.088919 8.293314 0
M  V30 47 H -0.423118 5.516839 6.724515 0
M  V30 48 H 0.056861 3.843642 4.918920 0
M  V30 49 H 2.970297 0.710189 2.734078 0
M  V30 50 H 1.694974 1.408088 0.295769 0
M  V30 51 H 2.366918 0.858946 -1.951925 0
M  V30 52 H 4.186254 0.727134 -3.518286 0
M  V30 53 H 5.899737 0.892339 -3.047278 0
M  V30 54 H 5.498826 -1.308952 -3.989098 0
M  V30 55 H 5.776647 -1.591902 -2.257737 0
M  V30 56 H 2.891114 -1.357963 -2.585131 0
M  V30 57 H 5.722631 -5.850109 -3.613457 0
M  V30 58 H -0.928281 -2.332178 -2.014116 0
M  V30 59 H -3.324092 -2.188106 -1.504438 0
M  V30 60 H -5.898891 -2.679903 -1.876950 0
M  V30 61 H -6.961822 -3.771678 -1.002442 0
M  V30 62 H -5.760740 -3.236193 1.125389 0
M  V30 63 H -4.746913 -2.055535 0.313154 0
M  V30 64 H -7.351738 -1.022508 2.250690 0
M  V30 65 H -5.643064 -0.722230 1.680563 0
M  V30 66 H -7.913604 1.113422 1.369862 0
M  V30 67 H -6.189004 1.346284 0.968337 0
M  V30 68 H -8.356552 0.533372 -0.904891 0
M  V30 69 H -6.747940 1.270452 -1.233644 0
M  V30 70 H -7.395013 -1.306549 -1.763607 0
M  V30 71 H -5.703255 -0.736267 -1.317066 0
M  V30 72 H -3.580095 -6.474738 -1.719004 0
M  V30 73 H -1.245056 -6.610491 -2.226289 0
M  V30 74 H 1.081736 -2.466060 -2.340909 0
M  V30 75 H 6.448214 0.689463 -0.556958 0
M  V30 76 H 5.630456 1.269889 1.728221 0
M  V30 END ATOM
M  V30 BEGIN BOND
M  V30 1 2 1 2
M  V30 2 1 2 3
M  V30 3 1 3 4
M  V30 4 2 4 5
M  V30 5 1 5 6
M  V30 6 2 6 7
M  V30 7 1 7 8
M  V30 8 2 8 9
M  V30 9 1 2 10
M  V30 10 1 10 11
M  V30 11 2 11 12
M  V30 12 1 12 13
M  V30 13 2 13 14
M  V30 14 1 14 15
M  V30 15 1 15 16
M  V30 16 1 16 17
M  V30 17 1 17 18
M  V30 18 2 18 19
M  V30 19 1 19 20
M  V30 20 2 20 21
M  V30 21 1 21 22
M  V30 22 1 22 23
M  V30 23 1 23 24
M  V30 24 1 24 25
M  V30 25 2 25 26
M  V30 26 1 26 27
M  V30 27 2 27 28
M  V30 28 1 28 29
M  V30 29 1 29 30
M  V30 30 1 30 31
M  V30 31 1 31 32
M  V30 32 1 32 33
M  V30 33 1 33 34
M  V30 34 1 34 35
M  V30 35 1 35 36
M  V30 36 1 28 37
M  V30 37 2 37 38
M  V30 38 2 24 39
M  V30 39 1 39 40
M  V30 40 1 14 41
M  V30 41 2 41 42
M  V30 42 1 9 4
M  V30 43 1 42 11
M  V30 44 1 40 18
M  V30 45 2 40 22
M  V30 46 1 38 25
M  V30 47 1 36 32
M  V30 48 1 3 43
M  V30 49 1 5 44
M  V30 50 1 6 45
M  V30 51 1 7 46
M  V30 52 1 8 47
M  V30 53 1 9 48
M  V30 54 1 10 49
M  V30 55 1 12 50
M  V30 56 1 13 51
M  V30 57 1 15 52
M  V30 58 1 15 53
M  V30 59 1 16 54
M  V30 60 1 16 55
M  V30 61 1 17 56
M  V30 62 1 20 57
M  V30 63 1 26 58
M  V30 64 1 27 59
M  V30 65 1 30 60
M  V30 66 1 30 61
M  V30 67 1 31 62
M  V30 68 1 31 63
M  V30 69 1 33 64
M  V30 70 1 33 65
M  V30 71 1 34 66
M  V30 72 1 34 67
M  V30 73 1 35 68
M  V30 74 1 35 69
M  V30 75 1 36 70
M  V30 76 1 36 71
M  V30 77 1 37 72
M  V30 78 1 38 73
M  V30 79 1 39 74
M  V30 80 1 41 75
M  V30 81 1 42 76
M  V30 END BOND
M  V30 END CTAB
M  END
>  <Dataset>  (93) 
ChEMBL_Kinases

>  <Ligand_Instance>  (93) 
nan

>  <PDB_ID>  (93) 
nan

>  <Standardized_SMILES>  (93) 
O=C(Nc1ccccc1)Nc1ccc(CCNc2ncnc3oc(-c4ccc(OCCN5CCCC5)cc4)cc23)cc1

>  <Name>  (93) 
nan

>  <Pocket>  (93) 
nan

>  <ATP_Site>  (93) 
nan

>  <Peripheral>  (93) 
nan

>  <Num_H_Atoms_ProtBoundConf>  (93) 
nan

>  <Num_Resolved_Atoms>  (93) 
nan

>  <Num_Not_Resolved_Atoms>  (93) 
nan

$$$$
CHEMBL2403364
     RDKit          3D

  0  0  0  0  0  0  0  0  0  0999 V3000
M  V30 BEGIN CTAB
M  V30 COUNTS 57 61 0 0 0
M  V30 BEGIN ATOM
M  V30 1 C 4.643424 0.491348 6.269410 0
M  V30 2 O 5.029218 -0.750060 5.726820 0
M  V30 3 C 4.580818 -1.251731 4.537712 0
M  V30 4 C 5.062846 -2.491347 4.153639 0
M  V30 5 C 4.693413 -3.115083 2.978503 0
M  V30 6 C 3.791389 -2.470358 2.132177 0
M  V30 7 C 3.315345 -1.237424 2.519455 0
M  V30 8 C 3.679662 -0.606337 3.693535 0
M  V30 9 C 2.378795 -0.732672 1.492519 0
M  V30 10 C 1.656304 0.363105 1.386633 0
M  V30 11 C 0.764376 0.751470 0.305572 0
M  V30 12 C -0.536959 1.151139 0.625940 0
M  V30 13 C -1.215919 1.504090 -0.532732 0
M  V30 14 C -0.275643 1.301889 -1.552959 0
M  V30 15 N 0.885457 0.856729 -1.023274 0
M  V30 16 C -0.504496 1.548266 -3.022943 0
M  V30 17 C -1.981488 1.519089 -3.358591 0
M  V30 18 N -2.783975 1.117616 -2.232776 0
M  V30 19 C -3.703184 0.108726 -2.025318 0
M  V30 20 O -3.312514 -0.028502 -3.209233 0
M  V30 21 N -4.637038 -0.885741 -1.754541 0
M  V30 22 C -5.204303 -0.875602 -0.443531 0
M  V30 23 C -5.038143 -2.248214 0.169317 0
M  V30 24 O -5.656993 -3.155349 -0.719582 0
M  V30 25 C -4.882849 -3.254930 -1.880692 0
M  V30 26 C -5.116334 -1.939674 -2.628062 0
M  V30 27 C -2.532828 1.988187 -1.072594 0
M  V30 28 C 2.351751 -1.766698 0.489337 0
M  V30 29 O 1.726822 -1.846733 -0.578951 0
M  V30 30 N 3.222921 -2.842040 0.879649 0
M  V30 31 C 3.508629 -4.094766 0.167355 0
M  V30 32 H 3.537784 0.636348 6.207373 0
M  V30 33 H 4.908475 0.487664 7.362158 0
M  V30 34 H 5.183890 1.282495 5.712350 0
M  V30 35 H 5.763279 -3.026800 4.777248 0
M  V30 36 H 5.049279 -4.081643 2.647048 0
M  V30 37 H 3.301081 0.362026 3.989177 0
M  V30 38 H 1.754214 1.062373 2.233348 0
M  V30 39 H -1.118547 1.245188 1.547644 0
M  V30 40 H 1.766687 0.630413 -1.522913 0
M  V30 41 H 0.036799 0.828406 -3.634232 0
M  V30 42 H -0.072576 2.545744 -3.247504 0
M  V30 43 H -2.252247 2.548198 -3.707521 0
M  V30 44 H -2.092403 0.845777 -4.230303 0
M  V30 45 H -4.878355 -0.047887 0.213337 0
M  V30 46 H -6.322061 -0.742945 -0.548642 0
M  V30 47 H -3.956595 -2.429766 0.248629 0
M  V30 48 H -5.593041 -2.351784 1.127460 0
M  V30 49 H -3.836173 -3.253666 -1.540098 0
M  V30 50 H -5.195174 -4.120450 -2.470715 0
M  V30 51 H -6.218684 -1.807455 -2.732658 0
M  V30 52 H -4.588987 -1.942622 -3.602293 0
M  V30 53 H -3.334340 1.941849 -0.323025 0
M  V30 54 H -2.402500 3.021534 -1.408986 0
M  V30 55 H 2.988304 -4.093158 -0.796857 0
M  V30 56 H 3.125139 -4.906068 0.823413 0
M  V30 57 H 4.600261 -4.255919 0.075856 0
M  V30 END ATOM
M  V30 BEGIN BOND
M  V30 1 1 1 2
M  V30 2 1 2 3
M  V30 3 2 3 4
M  V30 4 1 4 5
M  V30 5 2 5 6
M  V30 6 1 6 7
M  V30 7 2 7 8
M  V30 8 1 7 9
M  V30 9 2 9 10
M  V30 10 1 10 11
M  V30 11 2 11 12
M  V30 12 1 12 13
M  V30 13 2 13 14
M  V30 14 1 14 15
M  V30 15 1 14 16
M  V30 16 1 16 17
M  V30 17 1 17 18
M  V30 18 1 18 19
M  V30 19 2 19 20
M  V30 20 1 19 21
M  V30 21 1 21 22
M  V30 22 1 22 23
M  V30 23 1 23 24
M  V30 24 1 24 25
M  V30 25 1 25 26
M  V30 26 1 18 27
M  V30 27 1 9 28
M  V30 28 2 28 29
M  V30 29 1 28 30
M  V30 30 1 30 31
M  V30 31 1 8 3
M  V30 32 1 15 11
M  V30 33 1 26 21
M  V30 34 1 30 6
M  V30 35 1 27 13
M  V30 36 1 1 32
M  V30 37 1 1 33
M  V30 38 1 1 34
M  V30 39 1 4 35
M  V30 40 1 5 36
M  V30 41 1 8 37
M  V30 42 1 10 38
M  V30 43 1 12 39
M  V30 44 1 15 40
M  V30 45 1 16 41
M  V30 46 1 16 42
M  V30 47 1 17 43
M  V30 48 1 17 44
M  V30 49 1 22 45
M  V30 50 1 22 46
M  V30 51 1 23 47
M  V30 52 1 23 48
M  V30 53 1 25 49
M  V30 54 1 25 50
M  V30 55 1 26 51
M  V30 56 1 26 52
M  V30 57 1 27 53
M  V30 58 1 27 54
M  V30 59 1 31 55
M  V30 60 1 31 56
M  V30 61 1 31 57
M  V30 END BOND
M  V30 END CTAB
M  END
>  <Dataset>  (94) 
ChEMBL_Kinases

>  <Ligand_Instance>  (94) 
nan

>  <PDB_ID>  (94) 
nan

>  <Standardized_SMILES>  (94) 
COc1ccc2c(c1)/C(=C/c1cc3c([nH]1)CCN(C(=O)N1CCOCC1)C3)C(=O)N2C

>  <Name>  (94) 
nan

>  <Pocket>  (94) 
nan

>  <ATP_Site>  (94) 
nan

>  <Peripheral>  (94) 
nan

>  <Num_H_Atoms_ProtBoundConf>  (94) 
nan

>  <Num_Resolved_Atoms>  (94) 
nan

>  <Num_Not_Resolved_Atoms>  (94) 
nan

$$$$
CHEMBL2403099
     RDKit          3D

  0  0  0  0  0  0  0  0  0  0999 V3000
M  V30 BEGIN CTAB
M  V30 COUNTS 62 66 0 0 0
M  V30 BEGIN ATOM
M  V30 1 C 5.307034 -0.095380 0.999810 0
M  V30 2 C 3.900625 -0.474858 1.440997 0
M  V30 3 C 3.438151 0.572934 2.426490 0
M  V30 4 O 3.981799 -1.709675 2.054699 0
M  V30 5 C 3.046417 -0.506116 0.202072 0
M  V30 6 N 1.689813 -0.906581 0.435714 0
M  V30 7 C 0.595776 -1.052176 -0.489159 0
M  V30 8 N -0.184475 0.017997 -0.711906 0
M  V30 9 C -1.237048 0.029836 -1.545180 0
M  V30 10 N -2.055351 1.144795 -1.783022 0
M  V30 11 C -1.930662 2.444245 -1.199675 0
M  V30 12 C -2.051414 2.499382 0.258935 0
M  V30 13 C -1.073033 2.422781 1.228783 0
M  V30 14 C -1.386143 2.489378 2.571112 0
M  V30 15 C -2.699130 2.636485 3.003178 0
M  V30 16 C -3.055435 2.709406 4.418793 0
M  V30 17 C -2.129318 2.639315 5.440897 0
M  V30 18 C -2.816594 2.741058 6.639805 0
M  V30 19 C -4.152092 2.870109 6.267118 0
M  V30 20 O -4.250635 2.846601 4.939478 0
M  V30 21 N -3.684631 2.714706 2.061387 0
M  V30 22 C -3.360285 2.647323 0.737131 0
M  V30 23 C -1.473614 -1.190547 -2.187546 0
M  V30 24 N -2.415716 -1.562959 -3.075879 0
M  V30 25 C -2.252270 -2.830182 -3.417331 0
M  V30 26 N -1.178488 -3.298366 -2.736982 0
M  V30 27 C -0.681584 -4.631257 -2.837483 0
M  V30 28 C 0.748350 -4.813421 -2.483769 0
M  V30 29 C 0.759978 -5.473344 -1.121765 0
M  V30 30 C -0.652689 -5.873663 -0.819531 0
M  V30 31 C -1.496205 -5.594740 -2.035805 0
M  V30 32 C -0.700935 -2.313633 -1.990513 0
M  V30 33 N 0.325964 -2.208778 -1.134253 0
M  V30 34 H 5.357588 1.015412 1.018949 0
M  V30 35 H 6.003608 -0.483605 1.748874 0
M  V30 36 H 5.488216 -0.485784 -0.026545 0
M  V30 37 H 4.070421 0.462349 3.331610 0
M  V30 38 H 2.365598 0.410918 2.702962 0
M  V30 39 H 3.628473 1.571813 2.007052 0
M  V30 40 H 3.108860 -2.195535 1.972287 0
M  V30 41 H 3.014306 0.548299 -0.192675 0
M  V30 42 H 3.546372 -1.141898 -0.537618 0
M  V30 43 H 1.132752 -1.191473 1.287709 0
M  V30 44 H -2.847733 1.030070 -2.457723 0
M  V30 45 H -0.876418 2.784025 -1.432453 0
M  V30 46 H -2.615237 3.191286 -1.633927 0
M  V30 47 H -0.082692 2.313909 0.850438 0
M  V30 48 H -0.605075 2.427010 3.302509 0
M  V30 49 H -1.051406 2.526595 5.404803 0
M  V30 50 H -2.510068 2.735678 7.679503 0
M  V30 51 H -5.026733 2.977206 6.911807 0
M  V30 52 H -4.256858 2.724844 0.130052 0
M  V30 53 H -2.851796 -3.422355 -4.114802 0
M  V30 54 H -0.797015 -4.939787 -3.918237 0
M  V30 55 H 1.359794 -3.921554 -2.435919 0
M  V30 56 H 1.268624 -5.518248 -3.190100 0
M  V30 57 H 1.389671 -6.368745 -1.083748 0
M  V30 58 H 1.101940 -4.792108 -0.320866 0
M  V30 59 H -1.091833 -5.261158 0.018628 0
M  V30 60 H -0.732422 -6.931762 -0.481742 0
M  V30 61 H -2.506662 -5.219493 -1.814129 0
M  V30 62 H -1.661612 -6.558827 -2.599591 0
M  V30 END ATOM
M  V30 BEGIN BOND
M  V30 1 1 1 2
M  V30 2 1 2 3
M  V30 3 1 2 4
M  V30 4 1 2 5
M  V30 5 1 5 6
M  V30 6 1 6 7
M  V30 7 2 7 8
M  V30 8 1 8 9
M  V30 9 1 9 10
M  V30 10 1 10 11
M  V30 11 1 11 12
M  V30 12 2 12 13
M  V30 13 1 13 14
M  V30 14 2 14 15
M  V30 15 1 15 16
M  V30 16 2 16 17
M  V30 17 1 17 18
M  V30 18 2 18 19
M  V30 19 1 19 20
M  V30 20 1 15 21
M  V30 21 2 21 22
M  V30 22 2 9 23
M  V30 23 1 23 24
M  V30 24 2 24 25
M  V30 25 1 25 26
M  V30 26 1 26 27
M  V30 27 1 27 28
M  V30 28 1 28 29
M  V30 29 1 29 30
M  V30 30 1 30 31
M  V30 31 1 26 32
M  V30 32 2 32 33
M  V30 33 1 33 7
M  V30 34 1 22 12
M  V30 35 1 32 23
M  V30 36 1 20 16
M  V30 37 1 31 27
M  V30 38 1 1 34
M  V30 39 1 1 35
M  V30 40 1 1 36
M  V30 41 1 3 37
M  V30 42 1 3 38
M  V30 43 1 3 39
M  V30 44 1 4 40
M  V30 45 1 5 41
M  V30 46 1 5 42
M  V30 47 1 6 43
M  V30 48 1 10 44
M  V30 49 1 11 45
M  V30 50 1 11 46
M  V30 51 1 13 47
M  V30 52 1 14 48
M  V30 53 1 17 49
M  V30 54 1 18 50
M  V30 55 1 19 51
M  V30 56 1 22 52
M  V30 57 1 25 53
M  V30 58 1 27 54
M  V30 59 1 28 55
M  V30 60 1 28 56
M  V30 61 1 29 57
M  V30 62 1 29 58
M  V30 63 1 30 59
M  V30 64 1 30 60
M  V30 65 1 31 61
M  V30 66 1 31 62
M  V30 END BOND
M  V30 END CTAB
M  END
>  <Dataset>  (95) 
ChEMBL_Kinases

>  <Ligand_Instance>  (95) 
nan

>  <PDB_ID>  (95) 
nan

>  <Standardized_SMILES>  (95) 
CC(C)(O)CNc1nc(NCc2ccc(-c3ccco3)nc2)c2ncn(C3CCCC3)c2n1

>  <Name>  (95) 
nan

>  <Pocket>  (95) 
nan

>  <ATP_Site>  (95) 
nan

>  <Peripheral>  (95) 
nan

>  <Num_H_Atoms_ProtBoundConf>  (95) 
nan

>  <Num_Resolved_Atoms>  (95) 
nan

>  <Num_Not_Resolved_Atoms>  (95) 
nan

$$$$
CHEMBL2403098
     RDKit          3D

  0  0  0  0  0  0  0  0  0  0999 V3000
M  V30 BEGIN CTAB
M  V30 COUNTS 66 71 0 0 0
M  V30 BEGIN ATOM
M  V30 1 O 6.310029 -1.520905 2.706532 0
M  V30 2 C 5.532043 -0.426859 2.340115 0
M  V30 3 C 4.075717 -0.753275 2.418664 0
M  V30 4 C 3.509917 -1.177222 1.055763 0
M  V30 5 C 3.526344 -0.058489 0.064470 0
M  V30 6 N 2.308578 0.657785 -0.102846 0
M  V30 7 C 1.235487 -0.124278 -0.560790 0
M  V30 8 N 0.061082 0.472074 -0.744149 0
M  V30 9 C -1.042722 -0.123757 -1.176786 0
M  V30 10 N -2.363409 0.301966 -1.453299 0
M  V30 11 C -3.657159 0.779229 -1.710328 0
M  V30 12 C -4.388466 1.392033 -0.548416 0
M  V30 13 C -4.199497 2.765623 -0.402223 0
M  V30 14 C -4.877510 3.295647 0.672760 0
M  V30 15 C -5.680504 2.617702 1.562836 0
M  V30 16 C -6.350526 3.281440 2.671055 0
M  V30 17 C -6.218122 4.656633 2.901931 0
M  V30 18 C -6.986822 4.887937 4.016013 0
M  V30 19 C -7.555098 3.706623 4.435954 0
M  V30 20 O -7.128447 2.780239 3.578930 0
M  V30 21 N -5.806250 1.295584 1.345827 0
M  V30 22 C -5.185362 0.647221 0.313852 0
M  V30 23 C -0.980276 -1.505505 -1.470845 0
M  V30 24 N -1.777118 -2.503156 -1.909104 0
M  V30 25 C -1.098782 -3.627008 -1.977831 0
M  V30 26 N 0.177757 -3.443739 -1.593052 0
M  V30 27 C 1.104505 -4.517469 -1.585636 0
M  V30 28 C 2.409897 -4.298574 -0.941245 0
M  V30 29 C 2.375975 -5.107820 0.336613 0
M  V30 30 C 1.115196 -5.892370 0.387951 0
M  V30 31 C 0.515469 -5.788710 -0.970467 0
M  V30 32 C 0.232729 -2.146200 -1.287372 0
M  V30 33 N 1.239196 -1.423856 -0.852485 0
M  V30 34 C 4.712687 0.839831 0.338768 0
M  V30 35 C 5.832200 0.013569 0.925363 0
M  V30 36 H 5.980752 -1.843297 3.587420 0
M  V30 37 H 5.746300 0.394225 3.044817 0
M  V30 38 H 3.927993 -1.651039 3.080775 0
M  V30 39 H 3.517525 0.113685 2.824839 0
M  V30 40 H 2.529871 -1.619858 1.258943 0
M  V30 41 H 4.183019 -2.007853 0.726961 0
M  V30 42 H 3.751223 -0.519256 -0.945156 0
M  V30 43 H 2.213069 1.674018 0.094593 0
M  V30 44 H -2.159408 1.315957 -1.162943 0
M  V30 45 H -3.696932 1.417515 -2.625783 0
M  V30 46 H -4.266679 -0.137901 -2.001828 0
M  V30 47 H -3.587973 3.365407 -1.057363 0
M  V30 48 H -4.761907 4.379142 0.832759 0
M  V30 49 H -5.681730 5.448390 2.408606 0
M  V30 50 H -7.151669 5.836904 4.523102 0
M  V30 51 H -8.224612 3.547046 5.297799 0
M  V30 52 H -5.295175 -0.415002 0.148813 0
M  V30 53 H -1.594319 -4.545292 -2.317204 0
M  V30 54 H 1.272017 -4.782738 -2.673472 0
M  V30 55 H 2.742238 -3.262145 -0.800518 0
M  V30 56 H 3.236536 -4.760551 -1.562734 0
M  V30 57 H 3.260655 -5.796414 0.435078 0
M  V30 58 H 2.437771 -4.461566 1.237603 0
M  V30 59 H 1.344248 -6.963975 0.621942 0
M  V30 60 H 0.372357 -5.499944 1.126351 0
M  V30 61 H -0.584098 -5.781033 -0.977785 0
M  V30 62 H 0.835058 -6.686918 -1.555354 0
M  V30 63 H 4.437642 1.697964 0.974384 0
M  V30 64 H 5.102903 1.261211 -0.629569 0
M  V30 65 H 6.745050 0.641168 0.919215 0
M  V30 66 H 5.946318 -0.884091 0.296423 0
M  V30 END ATOM
M  V30 BEGIN BOND
M  V30 1 1 1 2
M  V30 2 1 2 3
M  V30 3 1 3 4
M  V30 4 1 4 5
M  V30 5 1 5 6
M  V30 6 1 6 7
M  V30 7 2 7 8
M  V30 8 1 8 9
M  V30 9 1 9 10
M  V30 10 1 10 11
M  V30 11 1 11 12
M  V30 12 2 12 13
M  V30 13 1 13 14
M  V30 14 2 14 15
M  V30 15 1 15 16
M  V30 16 2 16 17
M  V30 17 1 17 18
M  V30 18 2 18 19
M  V30 19 1 19 20
M  V30 20 1 15 21
M  V30 21 2 21 22
M  V30 22 2 9 23
M  V30 23 1 23 24
M  V30 24 2 24 25
M  V30 25 1 25 26
M  V30 26 1 26 27
M  V30 27 1 27 28
M  V30 28 1 28 29
M  V30 29 1 29 30
M  V30 30 1 30 31
M  V30 31 1 26 32
M  V30 32 2 32 33
M  V30 33 1 5 34
M  V30 34 1 34 35
M  V30 35 1 35 2
M  V30 36 1 33 7
M  V30 37 1 22 12
M  V30 38 1 32 23
M  V30 39 1 20 16
M  V30 40 1 31 27
M  V30 41 1 1 36
M  V30 42 1 2 37
M  V30 43 1 3 38
M  V30 44 1 3 39
M  V30 45 1 4 40
M  V30 46 1 4 41
M  V30 47 1 5 42
M  V30 48 1 6 43
M  V30 49 1 10 44
M  V30 50 1 11 45
M  V30 51 1 11 46
M  V30 52 1 13 47
M  V30 53 1 14 48
M  V30 54 1 17 49
M  V30 55 1 18 50
M  V30 56 1 19 51
M  V30 57 1 22 52
M  V30 58 1 25 53
M  V30 59 1 27 54
M  V30 60 1 28 55
M  V30 61 1 28 56
M  V30 62 1 29 57
M  V30 63 1 29 58
M  V30 64 1 30 59
M  V30 65 1 30 60
M  V30 66 1 31 61
M  V30 67 1 31 62
M  V30 68 1 34 63
M  V30 69 1 34 64
M  V30 70 1 35 65
M  V30 71 1 35 66
M  V30 END BOND
M  V30 END CTAB
M  END
>  <Dataset>  (96) 
ChEMBL_Kinases

>  <Ligand_Instance>  (96) 
nan

>  <PDB_ID>  (96) 
nan

>  <Standardized_SMILES>  (96) 
OC1CCC(Nc2nc(NCc3ccc(-c4ccco4)nc3)c3ncn(C4CCCC4)c3n2)CC1

>  <Name>  (96) 
nan

>  <Pocket>  (96) 
nan

>  <ATP_Site>  (96) 
nan

>  <Peripheral>  (96) 
nan

>  <Num_H_Atoms_ProtBoundConf>  (96) 
nan

>  <Num_Resolved_Atoms>  (96) 
nan

>  <Num_Not_Resolved_Atoms>  (96) 
nan

$$$$
CHEMBL2403097
     RDKit          3D

  0  0  0  0  0  0  0  0  0  0999 V3000
M  V30 BEGIN CTAB
M  V30 COUNTS 67 72 0 0 0
M  V30 BEGIN ATOM
M  V30 1 N 4.850978 -4.162776 2.162259 0
M  V30 2 C 3.790312 -3.197789 1.874622 0
M  V30 3 C 3.759522 -3.040550 0.381999 0
M  V30 4 C 2.923231 -1.877783 -0.088639 0
M  V30 5 C 2.284469 -1.224898 1.112468 0
M  V30 6 N 1.458989 -0.131654 0.705293 0
M  V30 7 C 0.308306 -0.143310 -0.134891 0
M  V30 8 N -0.427851 0.906652 -0.490142 0
M  V30 9 C -1.484241 0.763020 -1.280752 0
M  V30 10 N -2.179920 1.954372 -1.584931 0
M  V30 11 C -1.950560 3.306469 -1.187559 0
M  V30 12 C -2.018270 3.536197 0.262445 0
M  V30 13 C -0.978347 3.513227 1.164260 0
M  V30 14 C -1.184195 3.739760 2.505907 0
M  V30 15 C -2.427099 4.000040 3.020635 0
M  V30 16 C -2.681040 4.242369 4.421902 0
M  V30 17 C -1.670823 4.222756 5.317990 0
M  V30 18 C -2.019286 4.481301 6.734450 0
M  V30 19 S -3.891147 4.749090 6.660327 0
M  V30 20 C -4.030994 4.513473 4.902887 0
M  V30 21 N -3.413411 4.018697 2.142085 0
M  V30 22 C -3.258669 3.803514 0.826816 0
M  V30 23 C -1.802021 -0.510799 -1.727980 0
M  V30 24 N -2.799361 -0.893576 -2.516453 0
M  V30 25 C -2.718943 -2.242658 -2.687707 0
M  V30 26 N -1.649765 -2.633139 -1.978717 0
M  V30 27 C -1.183015 -4.000681 -1.873012 0
M  V30 28 C 0.028200 -4.269736 -2.741572 0
M  V30 29 C 0.090298 -5.791911 -2.707213 0
M  V30 30 C -1.348514 -6.261725 -2.533933 0
M  V30 31 C -2.182172 -4.995533 -2.391734 0
M  V30 32 C -1.045600 -1.600080 -1.364737 0
M  V30 33 N 0.009929 -1.381254 -0.561958 0
M  V30 34 C 3.370083 -0.735155 2.018271 0
M  V30 35 C 4.167487 -1.900215 2.565534 0
M  V30 36 H 4.430165 -5.038369 2.565841 0
M  V30 37 H 5.574577 -3.764993 2.806385 0
M  V30 38 H 2.819682 -3.594812 2.230348 0
M  V30 39 H 4.804768 -2.954684 -0.034109 0
M  V30 40 H 3.369958 -3.976887 -0.055479 0
M  V30 41 H 3.604891 -1.084390 -0.517483 0
M  V30 42 H 2.199990 -2.229676 -0.838204 0
M  V30 43 H 1.686888 -2.002140 1.631912 0
M  V30 44 H 1.683344 0.851143 1.043169 0
M  V30 45 H -2.998262 1.748689 -2.215873 0
M  V30 46 H -0.920930 3.569892 -1.540333 0
M  V30 47 H -2.669511 3.963983 -1.706519 0
M  V30 48 H 0.007657 3.317782 0.790699 0
M  V30 49 H -0.336638 3.709150 3.160988 0
M  V30 50 H -0.637836 4.040653 5.123510 0
M  V30 51 H -1.184386 4.474985 7.542954 0
M  V30 52 H -4.952318 4.552039 4.227558 0
M  V30 53 H -4.177147 3.855623 0.246598 0
M  V30 54 H -3.383031 -2.856929 -3.273808 0
M  V30 55 H -0.910911 -4.262035 -0.831552 0
M  V30 56 H -0.162814 -3.973193 -3.796465 0
M  V30 57 H 0.952256 -3.805219 -2.339466 0
M  V30 58 H 0.675460 -6.099089 -1.807592 0
M  V30 59 H 0.555776 -6.168476 -3.639285 0
M  V30 60 H -1.673140 -6.880332 -3.374925 0
M  V30 61 H -1.474837 -6.832422 -1.595856 0
M  V30 62 H -2.524219 -4.721335 -3.404657 0
M  V30 63 H -3.019598 -5.137545 -1.683876 0
M  V30 64 H 3.987245 0.000516 1.464709 0
M  V30 65 H 2.871197 -0.163195 2.844070 0
M  V30 66 H 5.248224 -1.763018 2.527783 0
M  V30 67 H 3.867707 -2.031645 3.625507 0
M  V30 END ATOM
M  V30 BEGIN BOND
M  V30 1 1 1 2
M  V30 2 1 2 3
M  V30 3 1 3 4
M  V30 4 1 4 5
M  V30 5 1 5 6
M  V30 6 1 6 7
M  V30 7 2 7 8
M  V30 8 1 8 9
M  V30 9 1 9 10
M  V30 10 1 10 11
M  V30 11 1 11 12
M  V30 12 2 12 13
M  V30 13 1 13 14
M  V30 14 2 14 15
M  V30 15 1 15 16
M  V30 16 1 16 17
M  V30 17 2 17 18
M  V30 18 1 18 19
M  V30 19 1 19 20
M  V30 20 1 15 21
M  V30 21 2 21 22
M  V30 22 2 9 23
M  V30 23 1 23 24
M  V30 24 2 24 25
M  V30 25 1 25 26
M  V30 26 1 26 27
M  V30 27 1 27 28
M  V30 28 1 28 29
M  V30 29 1 29 30
M  V30 30 1 30 31
M  V30 31 1 26 32
M  V30 32 2 32 33
M  V30 33 1 5 34
M  V30 34 1 34 35
M  V30 35 1 35 2
M  V30 36 1 33 7
M  V30 37 1 22 12
M  V30 38 1 32 23
M  V30 39 2 20 16
M  V30 40 1 31 27
M  V30 41 1 1 36
M  V30 42 1 1 37
M  V30 43 1 2 38
M  V30 44 1 3 39
M  V30 45 1 3 40
M  V30 46 1 4 41
M  V30 47 1 4 42
M  V30 48 1 5 43
M  V30 49 1 6 44
M  V30 50 1 10 45
M  V30 51 1 11 46
M  V30 52 1 11 47
M  V30 53 1 13 48
M  V30 54 1 14 49
M  V30 55 1 17 50
M  V30 56 1 18 51
M  V30 57 1 20 52
M  V30 58 1 22 53
M  V30 59 1 25 54
M  V30 60 1 27 55
M  V30 61 1 28 56
M  V30 62 1 28 57
M  V30 63 1 29 58
M  V30 64 1 29 59
M  V30 65 1 30 60
M  V30 66 1 30 61
M  V30 67 1 31 62
M  V30 68 1 31 63
M  V30 69 1 34 64
M  V30 70 1 34 65
M  V30 71 1 35 66
M  V30 72 1 35 67
M  V30 END BOND
M  V30 END CTAB
M  END
>  <Dataset>  (97) 
ChEMBL_Kinases

>  <Ligand_Instance>  (97) 
nan

>  <PDB_ID>  (97) 
nan

>  <Standardized_SMILES>  (97) 
NC1CCC(Nc2nc(NCc3ccc(-c4ccsc4)nc3)c3ncn(C4CCCC4)c3n2)CC1

>  <Name>  (97) 
nan

>  <Pocket>  (97) 
nan

>  <ATP_Site>  (97) 
nan

>  <Peripheral>  (97) 
nan

>  <Num_H_Atoms_ProtBoundConf>  (97) 
nan

>  <Num_Resolved_Atoms>  (97) 
nan

>  <Num_Not_Resolved_Atoms>  (97) 
nan

$$$$
CHEMBL2403096
     RDKit          3D

  0  0  0  0  0  0  0  0  0  0999 V3000
M  V30 BEGIN CTAB
M  V30 COUNTS 67 72 0 0 0
M  V30 BEGIN ATOM
M  V30 1 N 4.567111 -4.353995 2.495685 0
M  V30 2 C 3.586261 -3.332060 2.134476 0
M  V30 3 C 3.636413 -3.184156 0.642203 0
M  V30 4 C 2.947615 -1.929759 0.138434 0
M  V30 5 C 2.220355 -1.303392 1.305147 0
M  V30 6 N 1.456902 -0.170904 0.820775 0
M  V30 7 C 0.406588 -0.224662 -0.129615 0
M  V30 8 N -0.249367 0.874667 -0.530999 0
M  V30 9 C -1.245908 0.836155 -1.426021 0
M  V30 10 N -1.848929 2.075614 -1.759452 0
M  V30 11 C -1.574980 3.413496 -1.290612 0
M  V30 12 C -1.767407 3.605156 0.154599 0
M  V30 13 C -0.778534 3.480059 1.104633 0
M  V30 14 C -1.041403 3.667780 2.443129 0
M  V30 15 C -2.341599 3.985298 2.767141 0
M  V30 16 C -2.740200 4.210544 4.187226 0
M  V30 17 C -1.941267 4.142521 5.308823 0
M  V30 18 C -2.507196 4.382923 6.505887 0
M  V30 19 C -3.872914 4.695394 6.621277 0
M  V30 20 S -4.411433 4.636240 4.777391 0
M  V30 21 N -3.296924 4.107231 1.857859 0
M  V30 22 C -3.076024 3.929707 0.530544 0
M  V30 23 C -1.605420 -0.386123 -1.950674 0
M  V30 24 N -2.551458 -0.701220 -2.846861 0
M  V30 25 C -2.533736 -2.036807 -3.054036 0
M  V30 26 N -1.556557 -2.509542 -2.261633 0
M  V30 27 C -1.176977 -3.899812 -2.155395 0
M  V30 28 C 0.037329 -4.242984 -2.979483 0
M  V30 29 C 0.023170 -5.758181 -2.919428 0
M  V30 30 C -1.434822 -6.151088 -2.711081 0
M  V30 31 C -2.211338 -4.833889 -2.698326 0
M  V30 32 C -0.953894 -1.532239 -1.561061 0
M  V30 33 N 0.030526 -1.387845 -0.659149 0
M  V30 34 C 3.268152 -0.855560 2.284949 0
M  V30 35 C 3.998374 -2.058036 2.844661 0
M  V30 36 H 4.109395 -5.294226 2.565673 0
M  V30 37 H 5.053438 -4.095847 3.376898 0
M  V30 38 H 2.588725 -3.666091 2.471965 0
M  V30 39 H 4.684092 -3.267987 0.261751 0
M  V30 40 H 3.077324 -4.063850 0.212844 0
M  V30 41 H 3.738841 -1.178696 -0.148725 0
M  V30 42 H 2.265980 -2.143174 -0.682771 0
M  V30 43 H 1.550093 -2.057243 1.771315 0
M  V30 44 H 1.697102 0.779526 1.203422 0
M  V30 45 H -2.627558 1.947710 -2.477554 0
M  V30 46 H -0.506429 3.631763 -1.597706 0
M  V30 47 H -2.174348 4.120429 -1.887803 0
M  V30 48 H 0.215804 3.239788 0.819707 0
M  V30 49 H -0.340991 3.592777 3.259012 0
M  V30 50 H -0.896695 3.901063 5.194908 0
M  V30 51 H -1.999221 4.363194 7.462924 0
M  V30 52 H -4.512192 4.909218 7.374894 0
M  V30 53 H -3.877842 4.035934 -0.192837 0
M  V30 54 H -3.166747 -2.620874 -3.716102 0
M  V30 55 H -0.947580 -4.220731 -1.118625 0
M  V30 56 H -0.105461 -3.965534 -4.046151 0
M  V30 57 H 0.966857 -3.813917 -2.562176 0
M  V30 58 H 0.588201 -6.061107 -2.006158 0
M  V30 59 H 0.444863 -6.206796 -3.837707 0
M  V30 60 H -1.796253 -6.822685 -3.514780 0
M  V30 61 H -1.593684 -6.625714 -1.733139 0
M  V30 62 H -3.122896 -4.901180 -2.074102 0
M  V30 63 H -2.437569 -4.555253 -3.756050 0
M  V30 64 H 4.014359 -0.227502 1.774233 0
M  V30 65 H 2.786719 -0.267209 3.082306 0
M  V30 66 H 5.099014 -1.962188 2.730123 0
M  V30 67 H 3.774912 -2.194346 3.904170 0
M  V30 END ATOM
M  V30 BEGIN BOND
M  V30 1 1 1 2
M  V30 2 1 2 3
M  V30 3 1 3 4
M  V30 4 1 4 5
M  V30 5 1 5 6
M  V30 6 1 6 7
M  V30 7 2 7 8
M  V30 8 1 8 9
M  V30 9 1 9 10
M  V30 10 1 10 11
M  V30 11 1 11 12
M  V30 12 2 12 13
M  V30 13 1 13 14
M  V30 14 2 14 15
M  V30 15 1 15 16
M  V30 16 2 16 17
M  V30 17 1 17 18
M  V30 18 2 18 19
M  V30 19 1 19 20
M  V30 20 1 15 21
M  V30 21 2 21 22
M  V30 22 2 9 23
M  V30 23 1 23 24
M  V30 24 2 24 25
M  V30 25 1 25 26
M  V30 26 1 26 27
M  V30 27 1 27 28
M  V30 28 1 28 29
M  V30 29 1 29 30
M  V30 30 1 30 31
M  V30 31 1 26 32
M  V30 32 2 32 33
M  V30 33 1 5 34
M  V30 34 1 34 35
M  V30 35 1 35 2
M  V30 36 1 33 7
M  V30 37 1 22 12
M  V30 38 1 32 23
M  V30 39 1 20 16
M  V30 40 1 31 27
M  V30 41 1 1 36
M  V30 42 1 1 37
M  V30 43 1 2 38
M  V30 44 1 3 39
M  V30 45 1 3 40
M  V30 46 1 4 41
M  V30 47 1 4 42
M  V30 48 1 5 43
M  V30 49 1 6 44
M  V30 50 1 10 45
M  V30 51 1 11 46
M  V30 52 1 11 47
M  V30 53 1 13 48
M  V30 54 1 14 49
M  V30 55 1 17 50
M  V30 56 1 18 51
M  V30 57 1 19 52
M  V30 58 1 22 53
M  V30 59 1 25 54
M  V30 60 1 27 55
M  V30 61 1 28 56
M  V30 62 1 28 57
M  V30 63 1 29 58
M  V30 64 1 29 59
M  V30 65 1 30 60
M  V30 66 1 30 61
M  V30 67 1 31 62
M  V30 68 1 31 63
M  V30 69 1 34 64
M  V30 70 1 34 65
M  V30 71 1 35 66
M  V30 72 1 35 67
M  V30 END BOND
M  V30 END CTAB
M  END
>  <Dataset>  (98) 
ChEMBL_Kinases

>  <Ligand_Instance>  (98) 
nan

>  <PDB_ID>  (98) 
nan

>  <Standardized_SMILES>  (98) 
NC1CCC(Nc2nc(NCc3ccc(-c4cccs4)nc3)c3ncn(C4CCCC4)c3n2)CC1

>  <Name>  (98) 
nan

>  <Pocket>  (98) 
nan

>  <ATP_Site>  (98) 
nan

>  <Peripheral>  (98) 
nan

>  <Num_H_Atoms_ProtBoundConf>  (98) 
nan

>  <Num_Resolved_Atoms>  (98) 
nan

>  <Num_Not_Resolved_Atoms>  (98) 
nan

$$$$
CHEMBL2403095
     RDKit          3D

  0  0  0  0  0  0  0  0  0  0999 V3000
M  V30 BEGIN CTAB
M  V30 COUNTS 67 72 0 0 0
M  V30 BEGIN ATOM
M  V30 1 N 3.590873 -3.469437 4.086769 0
M  V30 2 C 3.235501 -2.180179 3.541278 0
M  V30 3 C 1.877168 -2.251718 2.926234 0
M  V30 4 C 1.890688 -2.261735 1.412092 0
M  V30 5 C 2.635972 -1.091774 0.834426 0
M  V30 6 N 1.729909 -0.023696 0.502746 0
M  V30 7 C 0.672267 -0.170201 -0.437779 0
M  V30 8 N -0.154356 0.846672 -0.720518 0
M  V30 9 C -1.176013 0.802394 -1.591161 0
M  V30 10 N -1.964549 1.938787 -1.794176 0
M  V30 11 C -1.874909 3.235159 -1.199550 0
M  V30 12 C -2.024283 3.281380 0.256976 0
M  V30 13 C -1.072246 3.213343 1.249284 0
M  V30 14 C -1.410567 3.269747 2.585009 0
M  V30 15 C -2.738536 3.398314 2.955797 0
M  V30 16 C -3.010077 3.450801 4.387373 0
M  V30 17 C -2.125756 3.390157 5.454426 0
M  V30 18 C -2.839781 3.478634 6.631120 0
M  V30 19 O -4.104451 3.589222 6.333669 0
M  V30 20 C -4.242172 3.576212 5.010461 0
M  V30 21 N -3.681875 3.466183 1.988612 0
M  V30 22 C -3.353732 3.411104 0.678123 0
M  V30 23 C -1.351820 -0.419136 -2.227289 0
M  V30 24 N -2.275018 -0.768997 -3.138361 0
M  V30 25 C -2.047883 -2.074270 -3.471816 0
M  V30 26 N -0.983533 -2.485110 -2.747716 0
M  V30 27 C -0.398118 -3.803115 -2.787505 0
M  V30 28 C 0.591136 -3.977825 -3.919311 0
M  V30 29 C 0.831186 -5.482991 -3.844347 0
M  V30 30 C -0.467580 -6.071701 -3.337629 0
M  V30 31 C -1.406219 -4.888843 -3.116029 0
M  V30 32 C -0.520751 -1.486978 -1.961288 0
M  V30 33 N 0.477341 -1.341871 -1.069903 0
M  V30 34 C 3.747596 -0.594408 1.701609 0
M  V30 35 C 4.287366 -1.730578 2.542910 0
M  V30 36 H 2.718066 -3.993766 4.353929 0
M  V30 37 H 4.229964 -3.338558 4.916246 0
M  V30 38 H 3.235410 -1.474656 4.414601 0
M  V30 39 H 1.257764 -1.437900 3.334881 0
M  V30 40 H 1.355415 -3.206255 3.217748 0
M  V30 41 H 2.320024 -3.202588 1.063499 0
M  V30 42 H 0.827450 -2.234828 1.105308 0
M  V30 43 H 3.087582 -1.418384 -0.148214 0
M  V30 44 H 1.850196 0.910578 0.974330 0
M  V30 45 H -2.746188 1.797941 -2.503374 0
M  V30 46 H -0.835947 3.616443 -1.440750 0
M  V30 47 H -2.549246 3.965937 -1.673708 0
M  V30 48 H -0.071302 3.117699 0.885090 0
M  V30 49 H -0.603578 3.209960 3.316663 0
M  V30 50 H -1.047450 3.289173 5.357002 0
M  V30 51 H -2.373794 3.454461 7.597618 0
M  V30 52 H -5.192631 3.653590 4.492253 0
M  V30 53 H -4.254786 3.481679 0.058794 0
M  V30 54 H -2.605164 -2.676456 -4.178399 0
M  V30 55 H 0.099345 -4.106381 -1.858797 0
M  V30 56 H 0.141943 -3.799750 -4.918041 0
M  V30 57 H 1.527718 -3.430241 -3.753077 0
M  V30 58 H 1.628736 -5.627434 -3.074962 0
M  V30 59 H 1.138101 -5.905077 -4.823374 0
M  V30 60 H -0.923661 -6.760106 -4.103848 0
M  V30 61 H -0.357217 -6.580416 -2.371536 0
M  V30 62 H -1.894169 -4.658558 -4.107051 0
M  V30 63 H -2.125690 -5.055443 -2.307874 0
M  V30 64 H 4.595903 -0.197657 1.087178 0
M  V30 65 H 3.429432 0.195948 2.416383 0
M  V30 66 H 4.672562 -2.571443 1.930207 0
M  V30 67 H 5.133200 -1.291269 3.131513 0
M  V30 END ATOM
M  V30 BEGIN BOND
M  V30 1 1 1 2
M  V30 2 1 2 3
M  V30 3 1 3 4
M  V30 4 1 4 5
M  V30 5 1 5 6
M  V30 6 1 6 7
M  V30 7 2 7 8
M  V30 8 1 8 9
M  V30 9 1 9 10
M  V30 10 1 10 11
M  V30 11 1 11 12
M  V30 12 2 12 13
M  V30 13 1 13 14
M  V30 14 2 14 15
M  V30 15 1 15 16
M  V30 16 1 16 17
M  V30 17 2 17 18
M  V30 18 1 18 19
M  V30 19 1 19 20
M  V30 20 1 15 21
M  V30 21 2 21 22
M  V30 22 2 9 23
M  V30 23 1 23 24
M  V30 24 2 24 25
M  V30 25 1 25 26
M  V30 26 1 26 27
M  V30 27 1 27 28
M  V30 28 1 28 29
M  V30 29 1 29 30
M  V30 30 1 30 31
M  V30 31 1 26 32
M  V30 32 2 32 33
M  V30 33 1 5 34
M  V30 34 1 34 35
M  V30 35 1 35 2
M  V30 36 1 33 7
M  V30 37 1 22 12
M  V30 38 1 32 23
M  V30 39 2 20 16
M  V30 40 1 31 27
M  V30 41 1 1 36
M  V30 42 1 1 37
M  V30 43 1 2 38
M  V30 44 1 3 39
M  V30 45 1 3 40
M  V30 46 1 4 41
M  V30 47 1 4 42
M  V30 48 1 5 43
M  V30 49 1 6 44
M  V30 50 1 10 45
M  V30 51 1 11 46
M  V30 52 1 11 47
M  V30 53 1 13 48
M  V30 54 1 14 49
M  V30 55 1 17 50
M  V30 56 1 18 51
M  V30 57 1 20 52
M  V30 58 1 22 53
M  V30 59 1 25 54
M  V30 60 1 27 55
M  V30 61 1 28 56
M  V30 62 1 28 57
M  V30 63 1 29 58
M  V30 64 1 29 59
M  V30 65 1 30 60
M  V30 66 1 30 61
M  V30 67 1 31 62
M  V30 68 1 31 63
M  V30 69 1 34 64
M  V30 70 1 34 65
M  V30 71 1 35 66
M  V30 72 1 35 67
M  V30 END BOND
M  V30 END CTAB
M  END
>  <Dataset>  (99) 
ChEMBL_Kinases

>  <Ligand_Instance>  (99) 
nan

>  <PDB_ID>  (99) 
nan

>  <Standardized_SMILES>  (99) 
NC1CCC(Nc2nc(NCc3ccc(-c4ccoc4)nc3)c3ncn(C4CCCC4)c3n2)CC1

>  <Name>  (99) 
nan

>  <Pocket>  (99) 
nan

>  <ATP_Site>  (99) 
nan

>  <Peripheral>  (99) 
nan

>  <Num_H_Atoms_ProtBoundConf>  (99) 
nan

>  <Num_Resolved_Atoms>  (99) 
nan

>  <Num_Not_Resolved_Atoms>  (99) 
nan

$$$$
CHEMBL2403094
     RDKit          3D

  0  0  0  0  0  0  0  0  0  0999 V3000
M  V30 BEGIN CTAB
M  V30 COUNTS 67 72 0 0 0
M  V30 BEGIN ATOM
M  V30 1 N 4.788779 -4.090722 2.387925 0
M  V30 2 C 3.828700 -3.098289 1.966800 0
M  V30 3 C 4.104989 -2.718471 0.525869 0
M  V30 4 C 3.138302 -1.685096 0.014314 0
M  V30 5 C 2.379850 -1.115148 1.192972 0
M  V30 6 N 1.525106 -0.016961 0.800906 0
M  V30 7 C 0.466088 -0.146439 -0.137240 0
M  V30 8 N -0.297673 0.906899 -0.468417 0
M  V30 9 C -1.315992 0.873190 -1.341701 0
M  V30 10 N -2.034876 2.068622 -1.594761 0
M  V30 11 C -1.850529 3.393375 -1.039419 0
M  V30 12 C -2.018279 3.463252 0.420842 0
M  V30 13 C -1.084636 3.349279 1.428799 0
M  V30 14 C -1.465626 3.440437 2.751562 0
M  V30 15 C -2.778520 3.647292 3.134434 0
M  V30 16 C -3.165478 3.741149 4.536448 0
M  V30 17 C -2.289016 3.636258 5.595555 0
M  V30 18 C -3.012261 3.774877 6.767310 0
M  V30 19 C -4.311692 3.959825 6.354214 0
M  V30 20 O -4.348760 3.932130 5.046788 0
M  V30 21 N -3.692158 3.759113 2.150301 0
M  V30 22 C -3.339045 3.672313 0.838985 0
M  V30 23 C -1.564563 -0.359769 -1.922587 0
M  V30 24 N -2.504198 -0.695333 -2.819917 0
M  V30 25 C -2.347895 -2.025266 -3.086769 0
M  V30 26 N -1.298757 -2.441143 -2.322210 0
M  V30 27 C -0.838669 -3.808100 -2.342618 0
M  V30 28 C 0.008376 -4.114748 -3.560987 0
M  V30 29 C 0.178476 -5.613647 -3.408748 0
M  V30 30 C -1.109501 -6.085398 -2.749740 0
M  V30 31 C -1.949761 -4.818920 -2.536536 0
M  V30 32 C -0.782863 -1.441719 -1.584807 0
M  V30 33 N 0.212597 -1.336694 -0.709434 0
M  V30 34 C 3.426529 -0.639637 2.183486 0
M  V30 35 C 3.989096 -1.876212 2.861828 0
M  V30 36 H 4.400453 -5.047485 2.220183 0
M  V30 37 H 4.931972 -3.967599 3.423558 0
M  V30 38 H 2.821721 -3.556536 2.059047 0
M  V30 39 H 5.134885 -2.332063 0.443946 0
M  V30 40 H 3.960692 -3.663050 -0.074384 0
M  V30 41 H 3.693617 -0.809149 -0.427393 0
M  V30 42 H 2.457285 -2.095026 -0.759027 0
M  V30 43 H 1.707934 -1.871065 1.654352 0
M  V30 44 H 1.695313 0.938266 1.235442 0
M  V30 45 H -2.810437 1.911359 -2.302360 0
M  V30 46 H -0.796828 3.749267 -1.258941 0
M  V30 47 H -2.556046 4.082738 -1.546803 0
M  V30 48 H -0.086966 3.195084 1.083863 0
M  V30 49 H -0.679976 3.341338 3.486841 0
M  V30 50 H -1.220029 3.475099 5.580094 0
M  V30 51 H -2.602416 3.739174 7.786351 0
M  V30 52 H -5.118406 4.099481 7.073307 0
M  V30 53 H -4.197069 3.784216 0.179948 0
M  V30 54 H -2.930639 -2.635381 -3.764038 0
M  V30 55 H -0.270537 -4.116532 -1.459551 0
M  V30 56 H -0.567582 -3.970327 -4.512103 0
M  V30 57 H 0.963368 -3.581566 -3.572530 0
M  V30 58 H 1.014124 -5.749863 -2.686691 0
M  V30 59 H 0.366416 -6.137331 -4.367307 0
M  V30 60 H -1.644470 -6.829473 -3.360360 0
M  V30 61 H -0.906853 -6.464796 -1.721737 0
M  V30 62 H -2.549921 -4.896690 -1.619059 0
M  V30 63 H -2.541969 -4.615851 -3.439488 0
M  V30 64 H 4.216902 -0.125069 1.598746 0
M  V30 65 H 2.987971 0.033513 2.938215 0
M  V30 66 H 5.058341 -1.781535 3.082141 0
M  V30 67 H 3.433770 -2.093664 3.797062 0
M  V30 END ATOM
M  V30 BEGIN BOND
M  V30 1 1 1 2
M  V30 2 1 2 3
M  V30 3 1 3 4
M  V30 4 1 4 5
M  V30 5 1 5 6
M  V30 6 1 6 7
M  V30 7 2 7 8
M  V30 8 1 8 9
M  V30 9 1 9 10
M  V30 10 1 10 11
M  V30 11 1 11 12
M  V30 12 2 12 13
M  V30 13 1 13 14
M  V30 14 2 14 15
M  V30 15 1 15 16
M  V30 16 2 16 17
M  V30 17 1 17 18
M  V30 18 2 18 19
M  V30 19 1 19 20
M  V30 20 1 15 21
M  V30 21 2 21 22
M  V30 22 2 9 23
M  V30 23 1 23 24
M  V30 24 2 24 25
M  V30 25 1 25 26
M  V30 26 1 26 27
M  V30 27 1 27 28
M  V30 28 1 28 29
M  V30 29 1 29 30
M  V30 30 1 30 31
M  V30 31 1 26 32
M  V30 32 2 32 33
M  V30 33 1 5 34
M  V30 34 1 34 35
M  V30 35 1 35 2
M  V30 36 1 33 7
M  V30 37 1 22 12
M  V30 38 1 32 23
M  V30 39 1 20 16
M  V30 40 1 31 27
M  V30 41 1 1 36
M  V30 42 1 1 37
M  V30 43 1 2 38
M  V30 44 1 3 39
M  V30 45 1 3 40
M  V30 46 1 4 41
M  V30 47 1 4 42
M  V30 48 1 5 43
M  V30 49 1 6 44
M  V30 50 1 10 45
M  V30 51 1 11 46
M  V30 52 1 11 47
M  V30 53 1 13 48
M  V30 54 1 14 49
M  V30 55 1 17 50
M  V30 56 1 18 51
M  V30 57 1 19 52
M  V30 58 1 22 53
M  V30 59 1 25 54
M  V30 60 1 27 55
M  V30 61 1 28 56
M  V30 62 1 28 57
M  V30 63 1 29 58
M  V30 64 1 29 59
M  V30 65 1 30 60
M  V30 66 1 30 61
M  V30 67 1 31 62
M  V30 68 1 31 63
M  V30 69 1 34 64
M  V30 70 1 34 65
M  V30 71 1 35 66
M  V30 72 1 35 67
M  V30 END BOND
M  V30 END CTAB
M  END
>  <Dataset>  (100) 
ChEMBL_Kinases

>  <Ligand_Instance>  (100) 
nan

>  <PDB_ID>  (100) 
nan

>  <Standardized_SMILES>  (100) 
NC1CCC(Nc2nc(NCc3ccc(-c4ccco4)nc3)c3ncn(C4CCCC4)c3n2)CC1

>  <Name>  (100) 
nan

>  <Pocket>  (100) 
nan

>  <ATP_Site>  (100) 
nan

>  <Peripheral>  (100) 
nan

>  <Num_H_Atoms_ProtBoundConf>  (100) 
nan

>  <Num_Resolved_Atoms>  (100) 
nan

>  <Num_Not_Resolved_Atoms>  (100) 
nan

$$$$
CHEMBL2403093
     RDKit          3D

  0  0  0  0  0  0  0  0  0  0999 V3000
M  V30 BEGIN CTAB
M  V30 COUNTS 70 75 0 0 0
M  V30 BEGIN ATOM
M  V30 1 N 1.700703 1.541915 4.393587 0
M  V30 2 C 1.794785 1.124716 3.007012 0
M  V30 3 C 3.147532 0.621049 2.640513 0
M  V30 4 C 3.369758 -0.835291 2.963470 0
M  V30 5 C 2.247741 -1.681621 2.396515 0
M  V30 6 N 2.061073 -1.437516 0.995514 0
M  V30 7 C 1.071663 -2.107720 0.225734 0
M  V30 8 N 0.933380 -1.847818 -1.078962 0
M  V30 9 C 0.041955 -2.413635 -1.903281 0
M  V30 10 N -0.084024 -2.126161 -3.274682 0
M  V30 11 C 0.677071 -1.197466 -4.073386 0
M  V30 12 C 0.481049 0.167649 -3.537027 0
M  V30 13 C -0.633468 0.840797 -4.027757 0
M  V30 14 C -0.965601 2.126355 -3.643377 0
M  V30 15 C -0.165843 2.783089 -2.733802 0
M  V30 16 C -0.421268 4.135335 -2.260416 0
M  V30 17 C 0.455476 4.676563 -1.350969 0
M  V30 18 C 0.277112 5.956807 -0.856156 0
M  V30 19 C -0.793855 6.721504 -1.269899 0
M  V30 20 C -1.677962 6.177787 -2.186006 0
M  V30 21 F -2.744308 6.903118 -2.615541 0
M  V30 22 C -1.484519 4.896060 -2.670448 0
M  V30 23 N 0.899074 2.120597 -2.274584 0
M  V30 24 C 1.235240 0.878842 -2.634787 0
M  V30 25 C -0.770977 -3.338569 -1.270723 0
M  V30 26 N -1.776937 -4.095727 -1.799493 0
M  V30 27 C -2.298380 -4.857654 -0.822622 0
M  V30 28 N -1.626183 -4.581288 0.307976 0
M  V30 29 C -1.785951 -5.114343 1.624333 0
M  V30 30 C -2.984528 -5.986061 1.793051 0
M  V30 31 C -4.034617 -5.153415 2.503737 0
M  V30 32 C -3.275585 -4.081344 3.251196 0
M  V30 33 C -1.873091 -4.041011 2.686892 0
M  V30 34 C -0.682570 -3.650577 0.057422 0
M  V30 35 N 0.256711 -3.012837 0.785147 0
M  V30 36 C 1.011848 -1.182644 3.155593 0
M  V30 37 C 0.682820 0.166889 2.611669 0
M  V30 38 H 1.685663 0.778124 5.076911 0
M  V30 39 H 0.822425 2.094071 4.527191 0
M  V30 40 H 1.614229 2.055321 2.413702 0
M  V30 41 H 3.433488 0.833486 1.594228 0
M  V30 42 H 3.889442 1.191641 3.267159 0
M  V30 43 H 3.309504 -0.958150 4.063364 0
M  V30 44 H 4.361515 -1.115483 2.563718 0
M  V30 45 H 2.433706 -2.742878 2.606381 0
M  V30 46 H 2.682440 -0.737472 0.532988 0
M  V30 47 H -0.829629 -2.656623 -3.783970 0
M  V30 48 H 1.746918 -1.510238 -4.008492 0
M  V30 49 H 0.344377 -1.226854 -5.133866 0
M  V30 50 H -1.310896 0.377374 -4.752667 0
M  V30 51 H -1.824391 2.610770 -4.038244 0
M  V30 52 H 1.316212 4.125871 -0.987321 0
M  V30 53 H 0.931642 6.438248 -0.139365 0
M  V30 54 H -1.001476 7.725183 -0.931782 0
M  V30 55 H -2.184611 4.504966 -3.376570 0
M  V30 56 H 2.102186 0.351236 -2.264686 0
M  V30 57 H -3.110303 -5.558516 -0.945752 0
M  V30 58 H -0.887163 -5.770117 1.820570 0
M  V30 59 H -3.431294 -6.378028 0.878624 0
M  V30 60 H -2.769690 -6.874763 2.436773 0
M  V30 61 H -4.646812 -5.751184 3.194494 0
M  V30 62 H -4.708511 -4.642586 1.781367 0
M  V30 63 H -3.711358 -3.074849 3.139655 0
M  V30 64 H -3.294172 -4.304616 4.340825 0
M  V30 65 H -1.181817 -4.289530 3.518848 0
M  V30 66 H -1.652063 -3.072645 2.204266 0
M  V30 67 H 0.217758 -1.919679 3.167490 0
M  V30 68 H 1.313521 -1.036685 4.226067 0
M  V30 69 H -0.256332 0.591719 3.004655 0
M  V30 70 H 0.611936 0.212191 1.506502 0
M  V30 END ATOM
M  V30 BEGIN BOND
M  V30 1 1 1 2
M  V30 2 1 2 3
M  V30 3 1 3 4
M  V30 4 1 4 5
M  V30 5 1 5 6
M  V30 6 1 6 7
M  V30 7 2 7 8
M  V30 8 1 8 9
M  V30 9 1 9 10
M  V30 10 1 10 11
M  V30 11 1 11 12
M  V30 12 2 12 13
M  V30 13 1 13 14
M  V30 14 2 14 15
M  V30 15 1 15 16
M  V30 16 2 16 17
M  V30 17 1 17 18
M  V30 18 2 18 19
M  V30 19 1 19 20
M  V30 20 1 20 21
M  V30 21 2 20 22
M  V30 22 1 15 23
M  V30 23 2 23 24
M  V30 24 2 9 25
M  V30 25 1 25 26
M  V30 26 2 26 27
M  V30 27 1 27 28
M  V30 28 1 28 29
M  V30 29 1 29 30
M  V30 30 1 30 31
M  V30 31 1 31 32
M  V30 32 1 32 33
M  V30 33 1 28 34
M  V30 34 2 34 35
M  V30 35 1 5 36
M  V30 36 1 36 37
M  V30 37 1 37 2
M  V30 38 1 35 7
M  V30 39 1 24 12
M  V30 40 1 34 25
M  V30 41 1 22 16
M  V30 42 1 33 29
M  V30 43 1 1 38
M  V30 44 1 1 39
M  V30 45 1 2 40
M  V30 46 1 3 41
M  V30 47 1 3 42
M  V30 48 1 4 43
M  V30 49 1 4 44
M  V30 50 1 5 45
M  V30 51 1 6 46
M  V30 52 1 10 47
M  V30 53 1 11 48
M  V30 54 1 11 49
M  V30 55 1 13 50
M  V30 56 1 14 51
M  V30 57 1 17 52
M  V30 58 1 18 53
M  V30 59 1 19 54
M  V30 60 1 22 55
M  V30 61 1 24 56
M  V30 62 1 27 57
M  V30 63 1 29 58
M  V30 64 1 30 59
M  V30 65 1 30 60
M  V30 66 1 31 61
M  V30 67 1 31 62
M  V30 68 1 32 63
M  V30 69 1 32 64
M  V30 70 1 33 65
M  V30 71 1 33 66
M  V30 72 1 36 67
M  V30 73 1 36 68
M  V30 74 1 37 69
M  V30 75 1 37 70
M  V30 END BOND
M  V30 END CTAB
M  END
>  <Dataset>  (101) 
ChEMBL_Kinases

>  <Ligand_Instance>  (101) 
nan

>  <PDB_ID>  (101) 
nan

>  <Standardized_SMILES>  (101) 
NC1CCC(Nc2nc(NCc3ccc(-c4cccc(F)c4)nc3)c3ncn(C4CCCC4)c3n2)CC1

>  <Name>  (101) 
nan

>  <Pocket>  (101) 
nan

>  <ATP_Site>  (101) 
nan

>  <Peripheral>  (101) 
nan

>  <Num_H_Atoms_ProtBoundConf>  (101) 
nan

>  <Num_Resolved_Atoms>  (101) 
nan

>  <Num_Not_Resolved_Atoms>  (101) 
nan

$$$$
CHEMBL2403092
     RDKit          3D

  0  0  0  0  0  0  0  0  0  0999 V3000
M  V30 BEGIN CTAB
M  V30 COUNTS 74 79 0 0 0
M  V30 BEGIN ATOM
M  V30 1 C 0.223673 -0.900431 7.122902 0
M  V30 2 O 0.940306 -0.186673 6.162879 0
M  V30 3 C 2.312111 -0.094798 6.237940 0
M  V30 4 C 2.971344 -0.716619 7.273539 0
M  V30 5 C 4.340835 -0.648889 7.384789 0
M  V30 6 C 5.002633 0.057987 6.426914 0
M  V30 7 C 4.329635 0.663998 5.412907 0
M  V30 8 C 2.958908 0.621999 5.262864 0
M  V30 9 C 2.393399 1.319560 4.127717 0
M  V30 10 C 1.080021 1.430174 3.756269 0
M  V30 11 C 0.611777 2.111356 2.659973 0
M  V30 12 C 1.509649 2.753189 1.835740 0
M  V30 13 C 1.195912 3.528524 0.608279 0
M  V30 14 N 1.253477 2.728622 -0.596384 0
M  V30 15 C 0.481503 1.583686 -0.926153 0
M  V30 16 N -0.454361 1.063063 -0.124525 0
M  V30 17 C -1.207663 -0.013929 -0.392253 0
M  V30 18 N -2.183804 -0.482789 0.546732 0
M  V30 19 C -2.989848 -1.645049 0.247207 0
M  V30 20 C -3.834303 -1.522675 -0.978261 0
M  V30 21 C -3.676022 -2.705924 -1.914047 0
M  V30 22 C -3.915994 -3.991306 -1.142630 0
M  V30 23 N -3.641338 -5.096066 -2.073535 0
M  V30 24 C -3.078564 -4.084275 0.092081 0
M  V30 25 C -2.134128 -2.910463 0.227357 0
M  V30 26 N -1.048255 -0.662725 -1.552284 0
M  V30 27 C -0.130149 -0.209586 -2.418530 0
M  V30 28 C 0.632346 0.892494 -2.130888 0
M  V30 29 N 1.481332 1.144921 -3.162983 0
M  V30 30 C 1.249066 0.201307 -4.094089 0
M  V30 31 N 0.274900 -0.611219 -3.635222 0
M  V30 32 C -0.307012 -1.764093 -4.287397 0
M  V30 33 C -1.646094 -1.421087 -4.944570 0
M  V30 34 C -1.174764 -0.414651 -5.981047 0
M  V30 35 C -0.039949 -1.204866 -6.626703 0
M  V30 36 C 0.532204 -2.065805 -5.511321 0
M  V30 37 C 2.836328 2.648124 2.201177 0
M  V30 38 N 3.223592 1.963319 3.290529 0
M  V30 39 H -0.872590 -0.697703 6.960466 0
M  V30 40 H 0.478557 -0.593886 8.165276 0
M  V30 41 H 0.348522 -2.002904 7.062593 0
M  V30 42 H 2.409975 -1.268123 8.013842 0
M  V30 43 H 4.838337 -1.144542 8.206385 0
M  V30 44 H 6.072825 0.105995 6.521099 0
M  V30 45 H 4.981176 1.202705 4.705707 0
M  V30 46 H 0.336889 0.948917 4.362997 0
M  V30 47 H -0.422315 2.175140 2.411414 0
M  V30 48 H 0.186384 3.971399 0.759427 0
M  V30 49 H 1.923506 4.353506 0.531446 0
M  V30 50 H 1.954324 3.010358 -1.349189 0
M  V30 51 H -2.291127 0.050557 1.460692 0
M  V30 52 H -3.679908 -1.807778 1.108746 0
M  V30 53 H -3.670380 -0.588235 -1.542112 0
M  V30 54 H -4.936517 -1.505744 -0.741468 0
M  V30 55 H -2.695565 -2.762741 -2.400278 0
M  V30 56 H -4.514179 -2.639185 -2.667287 0
M  V30 57 H -4.997283 -4.092447 -0.894029 0
M  V30 58 H -2.756836 -4.906789 -2.610087 0
M  V30 59 H -3.622479 -6.013707 -1.565939 0
M  V30 60 H -3.669366 -4.185847 1.020164 0
M  V30 61 H -2.462780 -5.014777 0.005996 0
M  V30 62 H -1.705180 -2.973444 1.260681 0
M  V30 63 H -1.352852 -2.895580 -0.530656 0
M  V30 64 H 1.769854 0.131352 -5.038970 0
M  V30 65 H -0.407854 -2.634432 -3.617888 0
M  V30 66 H -1.980867 -2.322594 -5.482945 0
M  V30 67 H -2.386174 -1.034930 -4.245232 0
M  V30 68 H -1.979655 -0.168704 -6.687181 0
M  V30 69 H -0.795279 0.497267 -5.486718 0
M  V30 70 H 0.712182 -0.560920 -7.080909 0
M  V30 71 H -0.563073 -1.883083 -7.355915 0
M  V30 72 H 1.615574 -1.877560 -5.348553 0
M  V30 73 H 0.351819 -3.157411 -5.736282 0
M  V30 74 H 3.645843 3.112258 1.631200 0
M  V30 END ATOM
M  V30 BEGIN BOND
M  V30 1 1 1 2
M  V30 2 1 2 3
M  V30 3 2 3 4
M  V30 4 1 4 5
M  V30 5 2 5 6
M  V30 6 1 6 7
M  V30 7 2 7 8
M  V30 8 1 8 9
M  V30 9 2 9 10
M  V30 10 1 10 11
M  V30 11 2 11 12
M  V30 12 1 12 13
M  V30 13 1 13 14
M  V30 14 1 14 15
M  V30 15 2 15 16
M  V30 16 1 16 17
M  V30 17 1 17 18
M  V30 18 1 18 19
M  V30 19 1 19 20
M  V30 20 1 20 21
M  V30 21 1 21 22
M  V30 22 1 22 23
M  V30 23 1 22 24
M  V30 24 1 24 25
M  V30 25 2 17 26
M  V30 26 1 26 27
M  V30 27 2 27 28
M  V30 28 1 28 29
M  V30 29 2 29 30
M  V30 30 1 30 31
M  V30 31 1 31 32
M  V30 32 1 32 33
M  V30 33 1 33 34
M  V30 34 1 34 35
M  V30 35 1 35 36
M  V30 36 1 12 37
M  V30 37 2 37 38
M  V30 38 1 8 3
M  V30 39 1 38 9
M  V30 40 1 28 15
M  V30 41 1 36 32
M  V30 42 1 25 19
M  V30 43 1 31 27
M  V30 44 1 1 39
M  V30 45 1 1 40
M  V30 46 1 1 41
M  V30 47 1 4 42
M  V30 48 1 5 43
M  V30 49 1 6 44
M  V30 50 1 7 45
M  V30 51 1 10 46
M  V30 52 1 11 47
M  V30 53 1 13 48
M  V30 54 1 13 49
M  V30 55 1 14 50
M  V30 56 1 18 51
M  V30 57 1 19 52
M  V30 58 1 20 53
M  V30 59 1 20 54
M  V30 60 1 21 55
M  V30 61 1 21 56
M  V30 62 1 22 57
M  V30 63 1 23 58
M  V30 64 1 23 59
M  V30 65 1 24 60
M  V30 66 1 24 61
M  V30 67 1 25 62
M  V30 68 1 25 63
M  V30 69 1 30 64
M  V30 70 1 32 65
M  V30 71 1 33 66
M  V30 72 1 33 67
M  V30 73 1 34 68
M  V30 74 1 34 69
M  V30 75 1 35 70
M  V30 76 1 35 71
M  V30 77 1 36 72
M  V30 78 1 36 73
M  V30 79 1 37 74
M  V30 END BOND
M  V30 END CTAB
M  END
>  <Dataset>  (102) 
ChEMBL_Kinases

>  <Ligand_Instance>  (102) 
nan

>  <PDB_ID>  (102) 
nan

>  <Standardized_SMILES>  (102) 
COc1ccccc1-c1ccc(CNc2nc(NC3CCC(N)CC3)nc3c2ncn3C2CCCC2)cn1

>  <Name>  (102) 
nan

>  <Pocket>  (102) 
nan

>  <ATP_Site>  (102) 
nan

>  <Peripheral>  (102) 
nan

>  <Num_H_Atoms_ProtBoundConf>  (102) 
nan

>  <Num_Resolved_Atoms>  (102) 
nan

>  <Num_Not_Resolved_Atoms>  (102) 
nan

$$$$
CHEMBL2403091
     RDKit          3D

  0  0  0  0  0  0  0  0  0  0999 V3000
M  V30 BEGIN CTAB
M  V30 COUNTS 72 77 0 0 0
M  V30 BEGIN ATOM
M  V30 1 N 6.086567 -2.233549 2.520967 0
M  V30 2 C 6.351479 -1.397167 3.630419 0
M  V30 3 C 7.210907 -1.924245 4.570453 0
M  V30 4 C 7.495402 -1.131963 5.681849 0
M  V30 5 C 6.890215 0.100218 5.732247 0
M  V30 6 C 6.035976 0.606441 4.782578 0
M  V30 7 C 5.748611 -0.160926 3.687438 0
M  V30 8 C 4.861709 0.257334 2.606743 0
M  V30 9 C 4.231884 1.480918 2.621068 0
M  V30 10 C 3.399464 1.823762 1.570787 0
M  V30 11 C 3.241982 0.908042 0.549192 0
M  V30 12 C 2.358114 1.212731 -0.605397 0
M  V30 13 N 1.013625 0.798351 -0.509797 0
M  V30 14 C -0.326256 0.382975 -0.414272 0
M  V30 15 N -0.890316 -0.816757 -0.277835 0
M  V30 16 C -2.207825 -1.004303 -0.217375 0
M  V30 17 N -2.717506 -2.310318 -0.069659 0
M  V30 18 C -2.043565 -3.563235 0.044969 0
M  V30 19 C -3.005527 -4.727455 0.202460 0
M  V30 20 C -3.539889 -5.166669 -1.118480 0
M  V30 21 C -2.474139 -5.487844 -2.130099 0
M  V30 22 N -3.117143 -5.693649 -3.410637 0
M  V30 23 C -1.467240 -4.376585 -2.283094 0
M  V30 24 C -0.985784 -3.847010 -0.957879 0
M  V30 25 N -2.954438 0.091410 -0.301121 0
M  V30 26 C -2.514165 1.344135 -0.438190 0
M  V30 27 C -1.149818 1.520711 -0.499668 0
M  V30 28 N -1.032934 2.854917 -0.635424 0
M  V30 29 C -2.259993 3.389658 -0.647962 0
M  V30 30 N -3.209712 2.462523 -0.525488 0
M  V30 31 C -4.588843 2.824249 -0.513923 0
M  V30 32 C -5.002999 3.663495 -1.728332 0
M  V30 33 C -5.448013 2.618855 -2.697867 0
M  V30 34 C -6.090120 1.577635 -1.845457 0
M  V30 35 C -5.559556 1.699764 -0.443830 0
M  V30 36 C 3.874922 -0.336541 0.521771 0
M  V30 37 N 4.665477 -0.589124 1.581101 0
M  V30 38 H 6.346378 -3.235607 2.423505 0
M  V30 39 H 5.838881 -2.725768 1.671179 0
M  V30 40 H 7.680466 -2.892199 4.520252 0
M  V30 41 H 8.165681 -1.513842 6.439539 0
M  V30 42 H 7.137924 0.682596 6.611973 0
M  V30 43 H 5.603519 1.577115 4.895018 0
M  V30 44 H 4.361571 2.189116 3.421387 0
M  V30 45 H 2.875458 2.785827 1.537042 0
M  V30 46 H 2.854559 0.796399 -1.525683 0
M  V30 47 H 2.410116 2.363820 -0.705040 0
M  V30 48 H 1.418544 -0.193300 -0.395372 0
M  V30 49 H -3.756452 -2.346643 -0.041770 0
M  V30 50 H -1.507956 -3.526864 1.044074 0
M  V30 51 H -3.842438 -4.388656 0.836705 0
M  V30 52 H -2.463267 -5.546416 0.686549 0
M  V30 53 H -4.237889 -4.431582 -1.534127 0
M  V30 54 H -4.085504 -6.138755 -0.920822 0
M  V30 55 H -1.979683 -6.418638 -1.853734 0
M  V30 56 H -3.533227 -4.797337 -3.759118 0
M  V30 57 H -2.350676 -5.910055 -4.116866 0
M  V30 58 H -1.889894 -3.610691 -2.940535 0
M  V30 59 H -0.583739 -4.810020 -2.800820 0
M  V30 60 H -0.255020 -4.555026 -0.506883 0
M  V30 61 H -0.408031 -2.927760 -1.159204 0
M  V30 62 H -2.327477 4.482205 -0.754043 0
M  V30 63 H -4.828495 3.502044 0.360366 0
M  V30 64 H -5.808278 4.371717 -1.471672 0
M  V30 65 H -4.091454 4.170805 -2.104745 0
M  V30 66 H -6.163928 3.082951 -3.425985 0
M  V30 67 H -4.602891 2.230004 -3.302073 0
M  V30 68 H -5.852866 0.575814 -2.242014 0
M  V30 69 H -7.195878 1.685034 -1.921848 0
M  V30 70 H -6.461695 1.971560 0.184184 0
M  V30 71 H -5.199886 0.764242 -0.023617 0
M  V30 72 H 3.735247 -1.031000 -0.287422 0
M  V30 END ATOM
M  V30 BEGIN BOND
M  V30 1 1 1 2
M  V30 2 2 2 3
M  V30 3 1 3 4
M  V30 4 2 4 5
M  V30 5 1 5 6
M  V30 6 2 6 7
M  V30 7 1 7 8
M  V30 8 2 8 9
M  V30 9 1 9 10
M  V30 10 2 10 11
M  V30 11 1 11 12
M  V30 12 1 12 13
M  V30 13 1 13 14
M  V30 14 2 14 15
M  V30 15 1 15 16
M  V30 16 1 16 17
M  V30 17 1 17 18
M  V30 18 1 18 19
M  V30 19 1 19 20
M  V30 20 1 20 21
M  V30 21 1 21 22
M  V30 22 1 21 23
M  V30 23 1 23 24
M  V30 24 2 16 25
M  V30 25 1 25 26
M  V30 26 2 26 27
M  V30 27 1 27 28
M  V30 28 2 28 29
M  V30 29 1 29 30
M  V30 30 1 30 31
M  V30 31 1 31 32
M  V30 32 1 32 33
M  V30 33 1 33 34
M  V30 34 1 34 35
M  V30 35 1 11 36
M  V30 36 2 36 37
M  V30 37 1 7 2
M  V30 38 1 37 8
M  V30 39 1 27 14
M  V30 40 1 35 31
M  V30 41 1 24 18
M  V30 42 1 30 26
M  V30 43 1 1 38
M  V30 44 1 1 39
M  V30 45 1 3 40
M  V30 46 1 4 41
M  V30 47 1 5 42
M  V30 48 1 6 43
M  V30 49 1 9 44
M  V30 50 1 10 45
M  V30 51 1 12 46
M  V30 52 1 12 47
M  V30 53 1 13 48
M  V30 54 1 17 49
M  V30 55 1 18 50
M  V30 56 1 19 51
M  V30 57 1 19 52
M  V30 58 1 20 53
M  V30 59 1 20 54
M  V30 60 1 21 55
M  V30 61 1 22 56
M  V30 62 1 22 57
M  V30 63 1 23 58
M  V30 64 1 23 59
M  V30 65 1 24 60
M  V30 66 1 24 61
M  V30 67 1 29 62
M  V30 68 1 31 63
M  V30 69 1 32 64
M  V30 70 1 32 65
M  V30 71 1 33 66
M  V30 72 1 33 67
M  V30 73 1 34 68
M  V30 74 1 34 69
M  V30 75 1 35 70
M  V30 76 1 35 71
M  V30 77 1 36 72
M  V30 END BOND
M  V30 END CTAB
M  END
>  <Dataset>  (103) 
ChEMBL_Kinases

>  <Ligand_Instance>  (103) 
nan

>  <PDB_ID>  (103) 
nan

>  <Standardized_SMILES>  (103) 
Nc1ccccc1-c1ccc(CNc2nc(NC3CCC(N)CC3)nc3c2ncn3C2CCCC2)cn1

>  <Name>  (103) 
nan

>  <Pocket>  (103) 
nan

>  <ATP_Site>  (103) 
nan

>  <Peripheral>  (103) 
nan

>  <Num_H_Atoms_ProtBoundConf>  (103) 
nan

>  <Num_Resolved_Atoms>  (103) 
nan

>  <Num_Not_Resolved_Atoms>  (103) 
nan

$$$$
CHEMBL2403090
     RDKit          3D

  0  0  0  0  0  0  0  0  0  0999 V3000
M  V30 BEGIN CTAB
M  V30 COUNTS 70 75 0 0 0
M  V30 BEGIN ATOM
M  V30 1 N 2.490173 -1.951772 4.705679 0
M  V30 2 C 3.243905 -1.051092 3.852596 0
M  V30 3 C 3.578990 -1.744757 2.583362 0
M  V30 4 C 3.757666 -0.898744 1.377617 0
M  V30 5 C 2.750061 0.178107 1.198651 0
M  V30 6 N 1.989877 0.105645 -0.028695 0
M  V30 7 C 1.151094 -0.994586 -0.407133 0
M  V30 8 N 0.488607 -0.968812 -1.574989 0
M  V30 9 C -0.308330 -1.961501 -1.988314 0
M  V30 10 N -0.957067 -1.827748 -3.245426 0
M  V30 11 C -0.895549 -0.749145 -4.180779 0
M  V30 12 C -1.375614 0.549935 -3.695686 0
M  V30 13 C -2.743345 0.829542 -3.825264 0
M  V30 14 C -3.339356 2.007010 -3.422451 0
M  V30 15 C -2.549458 2.976150 -2.855776 0
M  V30 16 C -3.053902 4.259732 -2.389313 0
M  V30 17 C -2.163008 5.152238 -1.836761 0
M  V30 18 C -2.561154 6.400748 -1.365968 0
M  V30 19 C -3.910771 6.718829 -1.475504 0
M  V30 20 C -4.838418 5.855867 -2.021910 0
M  V30 21 C -4.374724 4.639285 -2.466736 0
M  V30 22 N -1.234746 2.727229 -2.722695 0
M  V30 23 C -0.646167 1.581726 -3.113015 0
M  V30 24 C -0.423555 -3.041483 -1.140608 0
M  V30 25 N -1.146845 -4.156113 -1.311163 0
M  V30 26 C -0.977157 -4.958771 -0.242499 0
M  V30 27 N -0.137729 -4.313756 0.583113 0
M  V30 28 C 0.309577 -4.811931 1.840436 0
M  V30 29 C -0.518652 -5.934953 2.391289 0
M  V30 30 C -1.259829 -5.406241 3.606152 0
M  V30 31 C -1.089173 -3.900022 3.560188 0
M  V30 32 C 0.295776 -3.790864 2.955873 0
M  V30 33 C 0.233707 -3.116903 0.066885 0
M  V30 34 N 1.001161 -2.074011 0.380542 0
M  V30 35 C 1.804846 0.302284 2.378838 0
M  V30 36 C 2.515192 0.235021 3.688097 0
M  V30 37 H 1.901510 -1.383116 5.355301 0
M  V30 38 H 3.142322 -2.538494 5.262154 0
M  V30 39 H 4.190727 -0.832774 4.434716 0
M  V30 40 H 4.569261 -2.268233 2.744306 0
M  V30 41 H 2.870341 -2.590923 2.441827 0
M  V30 42 H 4.777017 -0.470379 1.347825 0
M  V30 43 H 3.696820 -1.557304 0.470500 0
M  V30 44 H 3.292169 1.158617 1.174622 0
M  V30 45 H 2.031177 0.909026 -0.728260 0
M  V30 46 H -1.559985 -2.677766 -3.472741 0
M  V30 47 H 0.155131 -0.674538 -4.596893 0
M  V30 48 H -1.507929 -1.004828 -5.071104 0
M  V30 49 H -3.383897 0.074067 -4.271379 0
M  V30 50 H -4.394793 2.173884 -3.543343 0
M  V30 51 H -1.089867 4.964262 -1.721687 0
M  V30 52 H -1.901887 7.139058 -0.922559 0
M  V30 53 H -4.277342 7.682522 -1.122886 0
M  V30 54 H -5.902168 6.129337 -2.098009 0
M  V30 55 H -5.098164 3.970781 -2.890879 0
M  V30 56 H 0.396132 1.401558 -3.005460 0
M  V30 57 H -1.490695 -5.900727 -0.221791 0
M  V30 58 H 1.372501 -5.120522 1.717065 0
M  V30 59 H -1.254019 -6.366429 1.716442 0
M  V30 60 H 0.155309 -6.751972 2.735291 0
M  V30 61 H -0.811471 -5.788467 4.541677 0
M  V30 62 H -2.339876 -5.653711 3.595896 0
M  V30 63 H -1.099922 -3.454447 4.577765 0
M  V30 64 H -1.862110 -3.401750 2.933173 0
M  V30 65 H 0.433207 -2.770078 2.612265 0
M  V30 66 H 1.010033 -4.117688 3.733881 0
M  V30 67 H 1.014997 -0.471654 2.338036 0
M  V30 68 H 1.258730 1.272094 2.357573 0
M  V30 69 H 3.157120 1.126702 3.854349 0
M  V30 70 H 1.725311 0.293426 4.482199 0
M  V30 END ATOM
M  V30 BEGIN BOND
M  V30 1 1 1 2
M  V30 2 1 2 3
M  V30 3 1 3 4
M  V30 4 1 4 5
M  V30 5 1 5 6
M  V30 6 1 6 7
M  V30 7 2 7 8
M  V30 8 1 8 9
M  V30 9 1 9 10
M  V30 10 1 10 11
M  V30 11 1 11 12
M  V30 12 2 12 13
M  V30 13 1 13 14
M  V30 14 2 14 15
M  V30 15 1 15 16
M  V30 16 2 16 17
M  V30 17 1 17 18
M  V30 18 2 18 19
M  V30 19 1 19 20
M  V30 20 2 20 21
M  V30 21 1 15 22
M  V30 22 2 22 23
M  V30 23 2 9 24
M  V30 24 1 24 25
M  V30 25 2 25 26
M  V30 26 1 26 27
M  V30 27 1 27 28
M  V30 28 1 28 29
M  V30 29 1 29 30
M  V30 30 1 30 31
M  V30 31 1 31 32
M  V30 32 1 27 33
M  V30 33 2 33 34
M  V30 34 1 5 35
M  V30 35 1 35 36
M  V30 36 1 36 2
M  V30 37 1 34 7
M  V30 38 1 23 12
M  V30 39 1 33 24
M  V30 40 1 21 16
M  V30 41 1 32 28
M  V30 42 1 1 37
M  V30 43 1 1 38
M  V30 44 1 2 39
M  V30 45 1 3 40
M  V30 46 1 3 41
M  V30 47 1 4 42
M  V30 48 1 4 43
M  V30 49 1 5 44
M  V30 50 1 6 45
M  V30 51 1 10 46
M  V30 52 1 11 47
M  V30 53 1 11 48
M  V30 54 1 13 49
M  V30 55 1 14 50
M  V30 56 1 17 51
M  V30 57 1 18 52
M  V30 58 1 19 53
M  V30 59 1 20 54
M  V30 60 1 21 55
M  V30 61 1 23 56
M  V30 62 1 26 57
M  V30 63 1 28 58
M  V30 64 1 29 59
M  V30 65 1 29 60
M  V30 66 1 30 61
M  V30 67 1 30 62
M  V30 68 1 31 63
M  V30 69 1 31 64
M  V30 70 1 32 65
M  V30 71 1 32 66
M  V30 72 1 35 67
M  V30 73 1 35 68
M  V30 74 1 36 69
M  V30 75 1 36 70
M  V30 END BOND
M  V30 END CTAB
M  END
>  <Dataset>  (104) 
ChEMBL_Kinases

>  <Ligand_Instance>  (104) 
nan

>  <PDB_ID>  (104) 
nan

>  <Standardized_SMILES>  (104) 
NC1CCC(Nc2nc(NCc3ccc(-c4ccccc4)nc3)c3ncn(C4CCCC4)c3n2)CC1

>  <Name>  (104) 
nan

>  <Pocket>  (104) 
nan

>  <ATP_Site>  (104) 
nan

>  <Peripheral>  (104) 
nan

>  <Num_H_Atoms_ProtBoundConf>  (104) 
nan

>  <Num_Resolved_Atoms>  (104) 
nan

>  <Num_Not_Resolved_Atoms>  (104) 
nan

$$$$
CHEMBL2403088
     RDKit          3D

  0  0  0  0  0  0  0  0  0  0999 V3000
M  V30 BEGIN CTAB
M  V30 COUNTS 68 73 0 0 0
M  V30 BEGIN ATOM
M  V30 1 N 2.934643 -2.980689 3.294437 0
M  V30 2 C 3.861953 -1.877348 3.017779 0
M  V30 3 C 4.164191 -1.746374 1.560848 0
M  V30 4 C 3.144047 -0.950538 0.780283 0
M  V30 5 C 1.978185 -0.571692 1.665422 0
M  V30 6 N 1.061090 0.218423 0.877040 0
M  V30 7 C 0.393183 -0.254937 -0.275583 0
M  V30 8 N -0.427165 0.529464 -0.949580 0
M  V30 9 C -1.128845 0.222119 -2.050800 0
M  V30 10 N -1.982084 1.162228 -2.687171 0
M  V30 11 C -2.246249 2.512000 -2.314453 0
M  V30 12 C -2.840350 2.707170 -0.986101 0
M  V30 13 C -2.202796 2.930527 0.215036 0
M  V30 14 C -2.888552 3.092235 1.399229 0
M  V30 15 C -4.265463 3.038500 1.444457 0
M  V30 16 N -4.870474 3.218266 2.718655 0
M  V30 17 C -4.725329 2.222080 3.610058 0
M  V30 18 C -5.386972 2.608796 4.764626 0
M  V30 19 C -5.927646 3.870515 4.520262 0
M  V30 20 N -5.589576 4.212079 3.253193 0
M  V30 21 C -4.951622 2.817352 0.269139 0
M  V30 22 C -4.237831 2.659219 -0.900132 0
M  V30 23 C -0.920168 -1.080520 -2.471057 0
M  V30 24 N -1.461117 -1.732421 -3.542593 0
M  V30 25 C -0.960778 -3.001271 -3.555463 0
M  V30 26 N -0.123508 -3.086529 -2.483899 0
M  V30 27 C 0.586445 -4.294674 -2.184430 0
M  V30 28 C 2.040524 -4.228830 -2.665567 0
M  V30 29 C 2.622845 -5.452951 -1.996768 0
M  V30 30 C 1.775850 -5.718024 -0.764302 0
M  V30 31 C 0.812425 -4.526858 -0.705405 0
M  V30 32 C -0.073703 -1.933812 -1.799168 0
M  V30 33 N 0.575652 -1.507182 -0.703783 0
M  V30 34 C 2.564514 0.253933 2.792329 0
M  V30 35 C 3.376535 -0.633600 3.686294 0
M  V30 36 H 3.138410 -3.803912 2.680825 0
M  V30 37 H 2.982733 -3.276540 4.280700 0
M  V30 38 H 4.812472 -2.174786 3.514449 0
M  V30 39 H 5.184264 -1.347534 1.435238 0
M  V30 40 H 4.164314 -2.763743 1.108673 0
M  V30 41 H 3.643962 0.020337 0.514064 0
M  V30 42 H 2.868789 -1.426513 -0.162480 0
M  V30 43 H 1.489188 -1.468497 2.101930 0
M  V30 44 H 0.885150 1.219343 1.194525 0
M  V30 45 H -2.451563 0.756469 -3.533786 0
M  V30 46 H -2.930348 2.967982 -3.058455 0
M  V30 47 H -1.284555 3.092129 -2.432896 0
M  V30 48 H -1.127959 2.974356 0.167231 0
M  V30 49 H -2.298822 3.260807 2.276897 0
M  V30 50 H -4.241123 1.273094 3.601643 0
M  V30 51 H -5.558638 2.161876 5.751692 0
M  V30 52 H -6.516736 4.569700 5.102493 0
M  V30 53 H -6.018063 2.776000 0.305788 0
M  V30 54 H -4.845931 2.489049 -1.783061 0
M  V30 55 H -1.186501 -3.780006 -4.274365 0
M  V30 56 H 0.134629 -5.190995 -2.650145 0
M  V30 57 H 2.539627 -3.324991 -2.240461 0
M  V30 58 H 2.098585 -4.259440 -3.769352 0
M  V30 59 H 3.688198 -5.283687 -1.750622 0
M  V30 60 H 2.562334 -6.277332 -2.736520 0
M  V30 61 H 2.377399 -5.784743 0.145879 0
M  V30 62 H 1.173350 -6.634342 -0.950804 0
M  V30 63 H -0.116915 -4.759823 -0.163553 0
M  V30 64 H 1.392037 -3.706052 -0.276458 0
M  V30 65 H 1.800798 0.823795 3.353021 0
M  V30 66 H 3.253087 0.977276 2.295993 0
M  V30 67 H 2.686133 -0.941418 4.524959 0
M  V30 68 H 4.202616 -0.035387 4.128895 0
M  V30 END ATOM
M  V30 BEGIN BOND
M  V30 1 1 1 2
M  V30 2 1 2 3
M  V30 3 1 3 4
M  V30 4 1 4 5
M  V30 5 1 5 6
M  V30 6 1 6 7
M  V30 7 2 7 8
M  V30 8 1 8 9
M  V30 9 1 9 10
M  V30 10 1 10 11
M  V30 11 1 11 12
M  V30 12 2 12 13
M  V30 13 1 13 14
M  V30 14 2 14 15
M  V30 15 1 15 16
M  V30 16 1 16 17
M  V30 17 2 17 18
M  V30 18 1 18 19
M  V30 19 2 19 20
M  V30 20 1 15 21
M  V30 21 2 21 22
M  V30 22 2 9 23
M  V30 23 1 23 24
M  V30 24 2 24 25
M  V30 25 1 25 26
M  V30 26 1 26 27
M  V30 27 1 27 28
M  V30 28 1 28 29
M  V30 29 1 29 30
M  V30 30 1 30 31
M  V30 31 1 26 32
M  V30 32 2 32 33
M  V30 33 1 5 34
M  V30 34 1 34 35
M  V30 35 1 35 2
M  V30 36 1 33 7
M  V30 37 1 22 12
M  V30 38 1 32 23
M  V30 39 1 20 16
M  V30 40 1 31 27
M  V30 41 1 1 36
M  V30 42 1 1 37
M  V30 43 1 2 38
M  V30 44 1 3 39
M  V30 45 1 3 40
M  V30 46 1 4 41
M  V30 47 1 4 42
M  V30 48 1 5 43
M  V30 49 1 6 44
M  V30 50 1 10 45
M  V30 51 1 11 46
M  V30 52 1 11 47
M  V30 53 1 13 48
M  V30 54 1 14 49
M  V30 55 1 17 50
M  V30 56 1 18 51
M  V30 57 1 19 52
M  V30 58 1 21 53
M  V30 59 1 22 54
M  V30 60 1 25 55
M  V30 61 1 27 56
M  V30 62 1 28 57
M  V30 63 1 28 58
M  V30 64 1 29 59
M  V30 65 1 29 60
M  V30 66 1 30 61
M  V30 67 1 30 62
M  V30 68 1 31 63
M  V30 69 1 31 64
M  V30 70 1 34 65
M  V30 71 1 34 66
M  V30 72 1 35 67
M  V30 73 1 35 68
M  V30 END BOND
M  V30 END CTAB
M  END
>  <Dataset>  (105) 
ChEMBL_Kinases

>  <Ligand_Instance>  (105) 
nan

>  <PDB_ID>  (105) 
nan

>  <Standardized_SMILES>  (105) 
NC1CCC(Nc2nc(NCc3ccc(-n4cccn4)cc3)c3ncn(C4CCCC4)c3n2)CC1

>  <Name>  (105) 
nan

>  <Pocket>  (105) 
nan

>  <ATP_Site>  (105) 
nan

>  <Peripheral>  (105) 
nan

>  <Num_H_Atoms_ProtBoundConf>  (105) 
nan

>  <Num_Resolved_Atoms>  (105) 
nan

>  <Num_Not_Resolved_Atoms>  (105) 
nan

$$$$
CHEMBL2403087
     RDKit          3D

  0  0  0  0  0  0  0  0  0  0999 V3000
M  V30 BEGIN CTAB
M  V30 COUNTS 68 73 0 0 0
M  V30 BEGIN ATOM
M  V30 1 N 2.991758 -3.136580 2.953682 0
M  V30 2 C 3.939625 -2.128690 2.513396 0
M  V30 3 C 4.036440 -2.093855 1.016841 0
M  V30 4 C 3.231464 -0.977677 0.398628 0
M  V30 5 C 2.159457 -0.581257 1.383049 0
M  V30 6 N 1.186147 0.235640 0.723191 0
M  V30 7 C 0.385488 -0.222877 -0.373040 0
M  V30 8 N -0.496484 0.621736 -0.930930 0
M  V30 9 C -1.252559 0.196849 -1.954020 0
M  V30 10 N -2.147368 1.164452 -2.467248 0
M  V30 11 C -2.379148 2.518424 -2.077770 0
M  V30 12 C -2.833041 2.731487 -0.707421 0
M  V30 13 C -2.098097 2.987207 0.427863 0
M  V30 14 C -2.613374 3.168879 1.691159 0
M  V30 15 C -3.985133 3.085462 1.816111 0
M  V30 16 C -4.598231 3.269097 3.123647 0
M  V30 17 C -4.040864 4.105830 4.045679 0
M  V30 18 C -4.743659 4.210570 5.323400 0
M  V30 19 S -6.233152 3.054986 5.132598 0
M  V30 20 C -5.818894 2.583650 3.517663 0
M  V30 21 C -4.826027 2.835096 0.755257 0
M  V30 22 C -4.215505 2.663181 -0.492693 0
M  V30 23 C -1.088929 -1.107508 -2.394609 0
M  V30 24 N -1.739060 -1.723211 -3.392589 0
M  V30 25 C -1.254991 -2.996655 -3.470430 0
M  V30 26 N -0.309021 -3.095624 -2.489752 0
M  V30 27 C 0.445835 -4.302020 -2.241845 0
M  V30 28 C 1.916156 -4.046642 -2.014037 0
M  V30 29 C 2.380227 -5.424809 -1.528730 0
M  V30 30 C 1.151773 -6.079974 -0.909905 0
M  V30 31 C 0.058509 -5.009012 -0.977004 0
M  V30 32 C -0.178262 -1.950014 -1.804564 0
M  V30 33 N 0.554243 -1.491294 -0.791195 0
M  V30 34 C 2.856432 0.158102 2.489206 0
M  V30 35 C 3.768685 -0.814972 3.185345 0
M  V30 36 H 3.417467 -4.066261 2.742294 0
M  V30 37 H 2.896817 -3.078962 3.993193 0
M  V30 38 H 4.941854 -2.519569 2.862306 0
M  V30 39 H 5.080916 -2.071583 0.644014 0
M  V30 40 H 3.612973 -3.049988 0.644646 0
M  V30 41 H 3.942032 -0.100377 0.347023 0
M  V30 42 H 2.889465 -1.161967 -0.616389 0
M  V30 43 H 1.676465 -1.489186 1.842227 0
M  V30 44 H 1.066593 1.221343 1.075611 0
M  V30 45 H -2.697631 0.755990 -3.257432 0
M  V30 46 H -3.126831 2.967609 -2.781208 0
M  V30 47 H -1.430475 3.088080 -2.307739 0
M  V30 48 H -1.032109 3.049804 0.283017 0
M  V30 49 H -1.944995 3.363334 2.508857 0
M  V30 50 H -3.149603 4.688225 3.930174 0
M  V30 51 H -4.363008 4.882050 6.163782 0
M  V30 52 H -6.319244 1.906056 2.844218 0
M  V30 53 H -5.902796 2.765266 0.827875 0
M  V30 54 H -4.893415 2.464640 -1.328826 0
M  V30 55 H -1.546436 -3.778595 -4.158233 0
M  V30 56 H 0.373575 -4.997387 -3.082790 0
M  V30 57 H 2.107057 -3.349910 -1.198516 0
M  V30 58 H 2.432232 -3.780271 -2.950369 0
M  V30 59 H 3.199120 -5.346745 -0.786584 0
M  V30 60 H 2.797628 -6.021067 -2.364406 0
M  V30 61 H 1.319474 -6.453516 0.107396 0
M  V30 62 H 0.831915 -6.873538 -1.614917 0
M  V30 63 H -0.922947 -5.499213 -1.064387 0
M  V30 64 H 0.137623 -4.327987 -0.090126 0
M  V30 65 H 2.111029 0.631464 3.156701 0
M  V30 66 H 3.474062 0.951088 2.037506 0
M  V30 67 H 4.724153 -0.329129 3.471212 0
M  V30 68 H 3.269375 -1.028540 4.175699 0
M  V30 END ATOM
M  V30 BEGIN BOND
M  V30 1 1 1 2
M  V30 2 1 2 3
M  V30 3 1 3 4
M  V30 4 1 4 5
M  V30 5 1 5 6
M  V30 6 1 6 7
M  V30 7 2 7 8
M  V30 8 1 8 9
M  V30 9 1 9 10
M  V30 10 1 10 11
M  V30 11 1 11 12
M  V30 12 2 12 13
M  V30 13 1 13 14
M  V30 14 2 14 15
M  V30 15 1 15 16
M  V30 16 1 16 17
M  V30 17 2 17 18
M  V30 18 1 18 19
M  V30 19 1 19 20
M  V30 20 1 15 21
M  V30 21 2 21 22
M  V30 22 2 9 23
M  V30 23 1 23 24
M  V30 24 2 24 25
M  V30 25 1 25 26
M  V30 26 1 26 27
M  V30 27 1 27 28
M  V30 28 1 28 29
M  V30 29 1 29 30
M  V30 30 1 30 31
M  V30 31 1 26 32
M  V30 32 2 32 33
M  V30 33 1 5 34
M  V30 34 1 34 35
M  V30 35 1 35 2
M  V30 36 1 33 7
M  V30 37 1 22 12
M  V30 38 1 32 23
M  V30 39 2 20 16
M  V30 40 1 31 27
M  V30 41 1 1 36
M  V30 42 1 1 37
M  V30 43 1 2 38
M  V30 44 1 3 39
M  V30 45 1 3 40
M  V30 46 1 4 41
M  V30 47 1 4 42
M  V30 48 1 5 43
M  V30 49 1 6 44
M  V30 50 1 10 45
M  V30 51 1 11 46
M  V30 52 1 11 47
M  V30 53 1 13 48
M  V30 54 1 14 49
M  V30 55 1 17 50
M  V30 56 1 18 51
M  V30 57 1 20 52
M  V30 58 1 21 53
M  V30 59 1 22 54
M  V30 60 1 25 55
M  V30 61 1 27 56
M  V30 62 1 28 57
M  V30 63 1 28 58
M  V30 64 1 29 59
M  V30 65 1 29 60
M  V30 66 1 30 61
M  V30 67 1 30 62
M  V30 68 1 31 63
M  V30 69 1 31 64
M  V30 70 1 34 65
M  V30 71 1 34 66
M  V30 72 1 35 67
M  V30 73 1 35 68
M  V30 END BOND
M  V30 END CTAB
M  END
>  <Dataset>  (106) 
ChEMBL_Kinases

>  <Ligand_Instance>  (106) 
nan

>  <PDB_ID>  (106) 
nan

>  <Standardized_SMILES>  (106) 
NC1CCC(Nc2nc(NCc3ccc(-c4ccsc4)cc3)c3ncn(C4CCCC4)c3n2)CC1

>  <Name>  (106) 
nan

>  <Pocket>  (106) 
nan

>  <ATP_Site>  (106) 
nan

>  <Peripheral>  (106) 
nan

>  <Num_H_Atoms_ProtBoundConf>  (106) 
nan

>  <Num_Resolved_Atoms>  (106) 
nan

>  <Num_Not_Resolved_Atoms>  (106) 
nan

$$$$
CHEMBL2403086
     RDKit          3D

  0  0  0  0  0  0  0  0  0  0999 V3000
M  V30 BEGIN CTAB
M  V30 COUNTS 68 73 0 0 0
M  V30 BEGIN ATOM
M  V30 1 N 3.294549 -3.280682 2.163763 0
M  V30 2 C 4.212177 -2.363077 1.517826 0
M  V30 3 C 4.037041 -2.399717 0.035408 0
M  V30 4 C 2.947453 -1.485400 -0.479564 0
M  V30 5 C 2.225957 -0.840729 0.674540 0
M  V30 6 N 1.148603 -0.019626 0.191740 0
M  V30 7 C 0.020325 -0.507623 -0.546711 0
M  V30 8 N -0.922861 0.359411 -0.949599 0
M  V30 9 C -1.994152 -0.056811 -1.634433 0
M  V30 10 N -2.908355 0.949023 -1.999772 0
M  V30 11 C -2.955152 2.357757 -1.808256 0
M  V30 12 C -2.958301 2.837012 -0.416957 0
M  V30 13 C -1.757716 3.130166 0.193345 0
M  V30 14 C -1.694017 3.602183 1.489548 0
M  V30 15 C -2.860485 3.778029 2.169625 0
M  V30 16 C -2.951875 4.296682 3.563008 0
M  V30 17 C -1.766833 4.636062 4.286092 0
M  V30 18 C -1.894945 5.112424 5.542621 0
M  V30 19 C -3.232446 5.242895 6.061982 0
M  V30 20 S -4.317569 4.627149 4.608807 0
M  V30 21 C -4.095551 3.505257 1.623150 0
M  V30 22 C -4.118562 3.028188 0.307694 0
M  V30 23 C -2.061935 -1.409815 -1.892172 0
M  V30 24 N -3.055117 -2.058366 -2.569040 0
M  V30 25 C -2.711405 -3.380013 -2.584335 0
M  V30 26 N -1.544965 -3.469321 -1.925963 0
M  V30 27 C -0.853713 -4.725323 -1.727426 0
M  V30 28 C 0.492375 -4.767040 -2.389687 0
M  V30 29 C 1.104642 -6.023566 -1.769938 0
M  V30 30 C 0.434645 -6.175859 -0.411645 0
M  V30 31 C -0.491749 -4.966977 -0.276520 0
M  V30 32 C -1.099562 -2.281438 -1.478199 0
M  V30 33 N -0.029268 -1.852536 -0.792901 0
M  V30 34 C 3.218819 -0.061930 1.470587 0
M  V30 35 C 4.194436 -0.996783 2.112013 0
M  V30 36 H 3.513561 -4.248719 1.783036 0
M  V30 37 H 3.485851 -3.341769 3.187310 0
M  V30 38 H 5.238494 -2.782465 1.735608 0
M  V30 39 H 5.024225 -2.216891 -0.458576 0
M  V30 40 H 3.748629 -3.436849 -0.260346 0
M  V30 41 H 3.488341 -0.652319 -1.014533 0
M  V30 42 H 2.300570 -1.955478 -1.226186 0
M  V30 43 H 1.799516 -1.612242 1.352999 0
M  V30 44 H 1.212298 1.007221 0.405964 0
M  V30 45 H -3.697602 0.495004 -2.521115 0
M  V30 46 H -3.910127 2.743375 -2.273275 0
M  V30 47 H -2.159982 2.888255 -2.397444 0
M  V30 48 H -0.772965 3.032016 -0.259718 0
M  V30 49 H -0.787842 3.839148 1.994357 0
M  V30 50 H -0.763868 4.540661 3.896595 0
M  V30 51 H -1.176207 5.422546 6.275598 0
M  V30 52 H -3.610118 5.605610 7.051414 0
M  V30 53 H -5.043917 3.642432 2.156237 0
M  V30 54 H -5.085625 2.809159 -0.135318 0
M  V30 55 H -3.259438 -4.194988 -3.034325 0
M  V30 56 H -1.439153 -5.596277 -2.082978 0
M  V30 57 H 1.101046 -3.866944 -2.127498 0
M  V30 58 H 0.432947 -4.833580 -3.476587 0
M  V30 59 H 2.185918 -5.899267 -1.684092 0
M  V30 60 H 0.925883 -6.904501 -2.420345 0
M  V30 61 H 1.182428 -6.186730 0.409403 0
M  V30 62 H -0.185749 -7.094256 -0.404847 0
M  V30 63 H -1.356447 -5.204069 0.358384 0
M  V30 64 H 0.127109 -4.145622 0.123975 0
M  V30 65 H 2.688045 0.574296 2.212371 0
M  V30 66 H 3.722511 0.658820 0.770783 0
M  V30 67 H 5.207332 -0.525510 2.030711 0
M  V30 68 H 3.992622 -1.080535 3.208574 0
M  V30 END ATOM
M  V30 BEGIN BOND
M  V30 1 1 1 2
M  V30 2 1 2 3
M  V30 3 1 3 4
M  V30 4 1 4 5
M  V30 5 1 5 6
M  V30 6 1 6 7
M  V30 7 2 7 8
M  V30 8 1 8 9
M  V30 9 1 9 10
M  V30 10 1 10 11
M  V30 11 1 11 12
M  V30 12 2 12 13
M  V30 13 1 13 14
M  V30 14 2 14 15
M  V30 15 1 15 16
M  V30 16 2 16 17
M  V30 17 1 17 18
M  V30 18 2 18 19
M  V30 19 1 19 20
M  V30 20 1 15 21
M  V30 21 2 21 22
M  V30 22 2 9 23
M  V30 23 1 23 24
M  V30 24 2 24 25
M  V30 25 1 25 26
M  V30 26 1 26 27
M  V30 27 1 27 28
M  V30 28 1 28 29
M  V30 29 1 29 30
M  V30 30 1 30 31
M  V30 31 1 26 32
M  V30 32 2 32 33
M  V30 33 1 5 34
M  V30 34 1 34 35
M  V30 35 1 35 2
M  V30 36 1 33 7
M  V30 37 1 22 12
M  V30 38 1 32 23
M  V30 39 1 20 16
M  V30 40 1 31 27
M  V30 41 1 1 36
M  V30 42 1 1 37
M  V30 43 1 2 38
M  V30 44 1 3 39
M  V30 45 1 3 40
M  V30 46 1 4 41
M  V30 47 1 4 42
M  V30 48 1 5 43
M  V30 49 1 6 44
M  V30 50 1 10 45
M  V30 51 1 11 46
M  V30 52 1 11 47
M  V30 53 1 13 48
M  V30 54 1 14 49
M  V30 55 1 17 50
M  V30 56 1 18 51
M  V30 57 1 19 52
M  V30 58 1 21 53
M  V30 59 1 22 54
M  V30 60 1 25 55
M  V30 61 1 27 56
M  V30 62 1 28 57
M  V30 63 1 28 58
M  V30 64 1 29 59
M  V30 65 1 29 60
M  V30 66 1 30 61
M  V30 67 1 30 62
M  V30 68 1 31 63
M  V30 69 1 31 64
M  V30 70 1 34 65
M  V30 71 1 34 66
M  V30 72 1 35 67
M  V30 73 1 35 68
M  V30 END BOND
M  V30 END CTAB
M  END
>  <Dataset>  (107) 
ChEMBL_Kinases

>  <Ligand_Instance>  (107) 
nan

>  <PDB_ID>  (107) 
nan

>  <Standardized_SMILES>  (107) 
NC1CCC(Nc2nc(NCc3ccc(-c4cccs4)cc3)c3ncn(C4CCCC4)c3n2)CC1

>  <Name>  (107) 
nan

>  <Pocket>  (107) 
nan

>  <ATP_Site>  (107) 
nan

>  <Peripheral>  (107) 
nan

>  <Num_H_Atoms_ProtBoundConf>  (107) 
nan

>  <Num_Resolved_Atoms>  (107) 
nan

>  <Num_Not_Resolved_Atoms>  (107) 
nan

$$$$
CHEMBL2403085
     RDKit          3D

  0  0  0  0  0  0  0  0  0  0999 V3000
M  V30 BEGIN CTAB
M  V30 COUNTS 68 73 0 0 0
M  V30 BEGIN ATOM
M  V30 1 N 2.691693 -3.107765 3.231005 0
M  V30 2 C 3.639693 -2.065886 2.808842 0
M  V30 3 C 3.878262 -2.065384 1.342377 0
M  V30 4 C 3.183324 -0.990350 0.584265 0
M  V30 5 C 2.029887 -0.478116 1.418028 0
M  V30 6 N 1.087739 0.314941 0.688121 0
M  V30 7 C 0.391214 -0.236859 -0.397530 0
M  V30 8 N -0.477618 0.540345 -1.050599 0
M  V30 9 C -1.223192 0.167382 -2.104539 0
M  V30 10 N -2.114145 1.091123 -2.711294 0
M  V30 11 C -2.378255 2.451350 -2.378437 0
M  V30 12 C -2.888166 2.698682 -1.026820 0
M  V30 13 C -2.128391 2.988555 0.086492 0
M  V30 14 C -2.610237 3.215399 1.358531 0
M  V30 15 C -3.976231 3.148805 1.544395 0
M  V30 16 C -4.470443 3.392511 2.901406 0
M  V30 17 C -3.732233 3.045253 4.027573 0
M  V30 18 C -4.488460 3.412777 5.133506 0
M  V30 19 O -5.601685 3.943068 4.707773 0
M  V30 20 C -5.637243 3.953174 3.381846 0
M  V30 21 C -4.813457 2.860212 0.464334 0
M  V30 22 C -4.256152 2.640417 -0.800572 0
M  V30 23 C -1.014877 -1.161332 -2.490147 0
M  V30 24 N -1.605729 -1.825539 -3.500228 0
M  V30 25 C -1.089711 -3.083112 -3.490157 0
M  V30 26 N -0.193302 -3.133799 -2.459992 0
M  V30 27 C 0.564309 -4.316873 -2.129989 0
M  V30 28 C 2.041327 -4.118745 -2.067058 0
M  V30 29 C 2.503759 -5.459509 -1.482281 0
M  V30 30 C 1.309255 -5.988357 -0.702587 0
M  V30 31 C 0.275259 -4.855315 -0.742715 0
M  V30 32 C -0.128633 -1.957797 -1.825804 0
M  V30 33 N 0.588827 -1.513867 -0.771314 0
M  V30 34 C 2.663521 0.257689 2.579144 0
M  V30 35 C 3.327407 -0.763743 3.445025 0
M  V30 36 H 3.171683 -4.027463 3.247605 0
M  V30 37 H 2.241943 -2.861311 4.133997 0
M  V30 38 H 4.614144 -2.405818 3.272664 0
M  V30 39 H 4.965731 -2.041951 1.075062 0
M  V30 40 H 3.512101 -3.042701 0.935246 0
M  V30 41 H 3.900048 -0.118578 0.527439 0
M  V30 42 H 2.928931 -1.214160 -0.451276 0
M  V30 43 H 1.522533 -1.378639 1.821801 0
M  V30 44 H 0.965636 1.289007 1.011625 0
M  V30 45 H -2.619940 0.630175 -3.520301 0
M  V30 46 H -3.080431 2.865124 -3.152241 0
M  V30 47 H -1.401036 3.001342 -2.520613 0
M  V30 48 H -1.059127 3.051914 -0.029339 0
M  V30 49 H -1.939674 3.437606 2.179021 0
M  V30 50 H -2.754852 2.578743 4.166181 0
M  V30 51 H -4.345049 3.349905 6.221910 0
M  V30 52 H -6.356020 4.293265 2.649658 0
M  V30 53 H -5.882859 2.815279 0.643437 0
M  V30 54 H -4.959830 2.421641 -1.594308 0
M  V30 55 H -1.376198 -3.847368 -4.189827 0
M  V30 56 H 0.360757 -5.146765 -2.826465 0
M  V30 57 H 2.356546 -3.363125 -1.345319 0
M  V30 58 H 2.510419 -4.016613 -3.076156 0
M  V30 59 H 3.373691 -5.328121 -0.812505 0
M  V30 60 H 2.777558 -6.165631 -2.288821 0
M  V30 61 H 1.566393 -6.299517 0.309623 0
M  V30 62 H 0.851884 -6.841159 -1.257803 0
M  V30 63 H -0.746815 -5.265856 -0.638328 0
M  V30 64 H 0.502852 -4.085167 0.012934 0
M  V30 65 H 1.931868 0.901138 3.100277 0
M  V30 66 H 3.466528 0.888253 2.123270 0
M  V30 67 H 2.617701 -0.966511 4.296456 0
M  V30 68 H 4.218345 -0.287138 3.939263 0
M  V30 END ATOM
M  V30 BEGIN BOND
M  V30 1 1 1 2
M  V30 2 1 2 3
M  V30 3 1 3 4
M  V30 4 1 4 5
M  V30 5 1 5 6
M  V30 6 1 6 7
M  V30 7 2 7 8
M  V30 8 1 8 9
M  V30 9 1 9 10
M  V30 10 1 10 11
M  V30 11 1 11 12
M  V30 12 2 12 13
M  V30 13 1 13 14
M  V30 14 2 14 15
M  V30 15 1 15 16
M  V30 16 1 16 17
M  V30 17 2 17 18
M  V30 18 1 18 19
M  V30 19 1 19 20
M  V30 20 1 15 21
M  V30 21 2 21 22
M  V30 22 2 9 23
M  V30 23 1 23 24
M  V30 24 2 24 25
M  V30 25 1 25 26
M  V30 26 1 26 27
M  V30 27 1 27 28
M  V30 28 1 28 29
M  V30 29 1 29 30
M  V30 30 1 30 31
M  V30 31 1 26 32
M  V30 32 2 32 33
M  V30 33 1 5 34
M  V30 34 1 34 35
M  V30 35 1 35 2
M  V30 36 1 33 7
M  V30 37 1 22 12
M  V30 38 1 32 23
M  V30 39 2 20 16
M  V30 40 1 31 27
M  V30 41 1 1 36
M  V30 42 1 1 37
M  V30 43 1 2 38
M  V30 44 1 3 39
M  V30 45 1 3 40
M  V30 46 1 4 41
M  V30 47 1 4 42
M  V30 48 1 5 43
M  V30 49 1 6 44
M  V30 50 1 10 45
M  V30 51 1 11 46
M  V30 52 1 11 47
M  V30 53 1 13 48
M  V30 54 1 14 49
M  V30 55 1 17 50
M  V30 56 1 18 51
M  V30 57 1 20 52
M  V30 58 1 21 53
M  V30 59 1 22 54
M  V30 60 1 25 55
M  V30 61 1 27 56
M  V30 62 1 28 57
M  V30 63 1 28 58
M  V30 64 1 29 59
M  V30 65 1 29 60
M  V30 66 1 30 61
M  V30 67 1 30 62
M  V30 68 1 31 63
M  V30 69 1 31 64
M  V30 70 1 34 65
M  V30 71 1 34 66
M  V30 72 1 35 67
M  V30 73 1 35 68
M  V30 END BOND
M  V30 END CTAB
M  END
>  <Dataset>  (108) 
ChEMBL_Kinases

>  <Ligand_Instance>  (108) 
nan

>  <PDB_ID>  (108) 
nan

>  <Standardized_SMILES>  (108) 
NC1CCC(Nc2nc(NCc3ccc(-c4ccoc4)cc3)c3ncn(C4CCCC4)c3n2)CC1

>  <Name>  (108) 
nan

>  <Pocket>  (108) 
nan

>  <ATP_Site>  (108) 
nan

>  <Peripheral>  (108) 
nan

>  <Num_H_Atoms_ProtBoundConf>  (108) 
nan

>  <Num_Resolved_Atoms>  (108) 
nan

>  <Num_Not_Resolved_Atoms>  (108) 
nan

$$$$
CHEMBL2403064
     RDKit          3D

  0  0  0  0  0  0  0  0  0  0999 V3000
M  V30 BEGIN CTAB
M  V30 COUNTS 60 63 0 0 0
M  V30 BEGIN ATOM
M  V30 1 C 3.520681 -4.768788 -1.413148 0
M  V30 2 O 2.215248 -4.299524 -1.193443 0
M  V30 3 C 1.859080 -3.442988 -0.206643 0
M  V30 4 C 2.661643 -2.868706 0.749916 0
M  V30 5 C 2.230353 -1.999117 1.726998 0
M  V30 6 N 3.129072 -1.439967 2.710739 0
M  V30 7 C 2.887025 -0.049339 2.575464 0
M  V30 8 N 3.971478 0.472787 1.977299 0
M  V30 9 C 4.032367 1.800480 1.660304 0
M  V30 10 C 2.979473 2.653464 1.942133 0
M  V30 11 Cl 2.939985 4.355094 1.584226 0
M  V30 12 C 1.872387 2.103771 2.554991 0
M  V30 13 C 0.653824 2.824753 2.895082 0
M  V30 14 C 0.517650 4.056697 3.476466 0
M  V30 15 C -0.694185 4.664383 3.755376 0
M  V30 16 C -1.870943 3.978499 3.425063 0
M  V30 17 C -1.761326 2.724393 2.835519 0
M  V30 18 N -2.931429 1.996400 2.499146 0
M  V30 19 C -3.873086 1.743513 1.486111 0
M  V30 20 C -4.971545 0.800554 1.738799 0
M  V30 21 O -3.742451 2.344642 0.368307 0
M  V30 22 C -0.526606 2.162727 2.577417 0
M  V30 23 N 1.885934 0.795684 2.837026 0
M  V30 24 C 0.855942 -1.712829 1.700482 0
M  V30 25 C 0.004281 -2.259075 0.766205 0
M  V30 26 C 0.495072 -3.137320 -0.207967 0
M  V30 27 N -0.555438 -3.587002 -1.087234 0
M  V30 28 C -1.928569 -3.092244 -1.086223 0
M  V30 29 C -2.535108 -3.124309 -2.461075 0
M  V30 30 N -1.611460 -3.051474 -3.525903 0
M  V30 31 C -1.359854 -1.697580 -3.986309 0
M  V30 32 C -0.432794 -3.841613 -3.439103 0
M  V30 33 C -0.460258 -4.579170 -2.117974 0
M  V30 34 H 4.297570 -4.174289 -0.890322 0
M  V30 35 H 3.644555 -5.839630 -1.144906 0
M  V30 36 H 3.776561 -4.695531 -2.506295 0
M  V30 37 H 3.703014 -3.122019 0.726197 0
M  V30 38 H 3.789974 -1.913268 3.356048 0
M  V30 39 H 4.896375 2.280223 1.170911 0
M  V30 40 H 1.461289 4.538883 3.705755 0
M  V30 41 H -0.684142 5.647080 4.219236 0
M  V30 42 H -2.821530 4.445506 3.633487 0
M  V30 43 H -3.036948 1.490123 3.430242 0
M  V30 44 H -5.883146 1.278286 2.135384 0
M  V30 45 H -5.183325 0.272098 0.781027 0
M  V30 46 H -4.695911 0.001297 2.464450 0
M  V30 47 H -0.509853 1.194314 2.122751 0
M  V30 48 H 0.559820 -1.032323 2.503564 0
M  V30 49 H -0.979140 -1.870511 0.992905 0
M  V30 50 H -2.511191 -3.770621 -0.438415 0
M  V30 51 H -1.969035 -2.082148 -0.648196 0
M  V30 52 H -3.220378 -3.983421 -2.584076 0
M  V30 53 H -3.189956 -2.203029 -2.532580 0
M  V30 54 H -0.297824 -1.467061 -4.002468 0
M  V30 55 H -1.729755 -1.692946 -5.056471 0
M  V30 56 H -1.964794 -0.939611 -3.470344 0
M  V30 57 H 0.473550 -3.179568 -3.402701 0
M  V30 58 H -0.405439 -4.539129 -4.298115 0
M  V30 59 H -1.385725 -5.209920 -2.105992 0
M  V30 60 H 0.365612 -5.304546 -2.014251 0
M  V30 END ATOM
M  V30 BEGIN BOND
M  V30 1 1 1 2
M  V30 2 1 2 3
M  V30 3 2 3 4
M  V30 4 1 4 5
M  V30 5 1 5 6
M  V30 6 1 6 7
M  V30 7 2 7 8
M  V30 8 1 8 9
M  V30 9 2 9 10
M  V30 10 1 10 11
M  V30 11 1 10 12
M  V30 12 1 12 13
M  V30 13 2 13 14
M  V30 14 1 14 15
M  V30 15 2 15 16
M  V30 16 1 16 17
M  V30 17 1 17 18
M  V30 18 1 18 19
M  V30 19 1 19 20
M  V30 20 2 19 21
M  V30 21 2 17 22
M  V30 22 2 12 23
M  V30 23 2 5 24
M  V30 24 1 24 25
M  V30 25 2 25 26
M  V30 26 1 26 27
M  V30 27 1 27 28
M  V30 28 1 28 29
M  V30 29 1 29 30
M  V30 30 1 30 31
M  V30 31 1 30 32
M  V30 32 1 32 33
M  V30 33 1 26 3
M  V30 34 1 33 27
M  V30 35 1 23 7
M  V30 36 1 22 13
M  V30 37 1 1 34
M  V30 38 1 1 35
M  V30 39 1 1 36
M  V30 40 1 4 37
M  V30 41 1 6 38
M  V30 42 1 9 39
M  V30 43 1 14 40
M  V30 44 1 15 41
M  V30 45 1 16 42
M  V30 46 1 18 43
M  V30 47 1 20 44
M  V30 48 1 20 45
M  V30 49 1 20 46
M  V30 50 1 22 47
M  V30 51 1 24 48
M  V30 52 1 25 49
M  V30 53 1 28 50
M  V30 54 1 28 51
M  V30 55 1 29 52
M  V30 56 1 29 53
M  V30 57 1 31 54
M  V30 58 1 31 55
M  V30 59 1 31 56
M  V30 60 1 32 57
M  V30 61 1 32 58
M  V30 62 1 33 59
M  V30 63 1 33 60
M  V30 END BOND
M  V30 END CTAB
M  END
>  <Dataset>  (109) 
ChEMBL_Kinases

>  <Ligand_Instance>  (109) 
nan

>  <PDB_ID>  (109) 
nan

>  <Standardized_SMILES>  (109) 
COc1cc(Nc2ncc(Cl)c(-c3cccc(NC(C)=O)c3)n2)ccc1N1CCN(C)CC1

>  <Name>  (109) 
nan

>  <Pocket>  (109) 
nan

>  <ATP_Site>  (109) 
nan

>  <Peripheral>  (109) 
nan

>  <Num_H_Atoms_ProtBoundConf>  (109) 
nan

>  <Num_Resolved_Atoms>  (109) 
nan

>  <Num_Not_Resolved_Atoms>  (109) 
nan

$$$$
CHEMBL2403065
     RDKit          3D

  0  0  0  0  0  0  0  0  0  0999 V3000
M  V30 BEGIN CTAB
M  V30 COUNTS 53 56 0 0 0
M  V30 BEGIN ATOM
M  V30 1 C 1.028060 -1.525949 8.078687 0
M  V30 2 N 1.494741 -2.047421 6.809990 0
M  V30 3 C 2.737781 -1.512802 6.394533 0
M  V30 4 C 2.882596 -1.076921 4.991163 0
M  V30 5 N 1.720894 -1.051602 4.177401 0
M  V30 6 C 1.730018 -1.289806 2.773456 0
M  V30 7 C 1.274777 -0.284494 1.929725 0
M  V30 8 C 1.266663 -0.475802 0.551382 0
M  V30 9 C 1.731091 -1.701007 0.111960 0
M  V30 10 N 1.735152 -1.927704 -1.294497 0
M  V30 11 C 1.291200 -0.964469 -2.245007 0
M  V30 12 N 2.141140 -0.051933 -2.791690 0
M  V30 13 C 1.711055 0.854081 -3.689076 0
M  V30 14 C 0.383607 0.875588 -4.077041 0
M  V30 15 Cl -0.338780 1.980436 -5.226487 0
M  V30 16 C -0.490226 -0.048169 -3.527386 0
M  V30 17 C -1.914511 -0.205794 -3.788404 0
M  V30 18 C -2.455656 -1.457736 -3.995342 0
M  V30 19 C -3.811176 -1.631171 -4.245891 0
M  V30 20 C -4.664500 -0.524231 -4.293709 0
M  V30 21 C -4.094711 0.733760 -4.081239 0
M  V30 22 C -5.045157 1.899339 -4.140734 0
M  V30 23 C -5.142135 2.421529 -5.494885 0
M  V30 24 N -5.214760 2.856097 -6.568814 0
M  V30 25 C -2.763049 0.902088 -3.835284 0
M  V30 26 N -0.000406 -0.929602 -2.634460 0
M  V30 27 C 2.194830 -2.735757 0.901673 0
M  V30 28 C 2.181337 -2.492793 2.265339 0
M  V30 29 F 2.625859 -3.476292 3.076304 0
M  V30 30 C 0.585073 -0.746387 5.043514 0
M  V30 31 C 0.422404 -2.024516 5.874293 0
M  V30 32 H 1.828524 -0.950116 8.588062 0
M  V30 33 H 0.634676 -2.359130 8.718209 0
M  V30 34 H 0.162669 -0.849031 7.925130 0
M  V30 35 H 2.927367 -0.606883 7.043493 0
M  V30 36 H 3.565257 -2.213973 6.707704 0
M  V30 37 H 3.633658 -1.758500 4.496766 0
M  V30 38 H 3.366789 -0.060496 4.900910 0
M  V30 39 H 0.921099 0.658833 2.331427 0
M  V30 40 H 0.924273 0.270012 -0.150791 0
M  V30 41 H 2.059937 -2.808498 -1.743690 0
M  V30 42 H 2.324188 1.594365 -4.153881 0
M  V30 43 H -1.852211 -2.357816 -3.972099 0
M  V30 44 H -4.310968 -2.575483 -4.417835 0
M  V30 45 H -5.728316 -0.622700 -4.486961 0
M  V30 46 H -4.547869 2.698846 -3.523630 0
M  V30 47 H -6.002742 1.643006 -3.682743 0
M  V30 48 H -2.361564 1.885856 -3.676780 0
M  V30 49 H 2.537478 -3.658062 0.456560 0
M  V30 50 H 0.740924 0.140353 5.664930 0
M  V30 51 H -0.339792 -0.621675 4.434613 0
M  V30 52 H 0.432323 -2.868128 5.154705 0
M  V30 53 H -0.532848 -1.935316 6.404028 0
M  V30 END ATOM
M  V30 BEGIN BOND
M  V30 1 1 1 2
M  V30 2 1 2 3
M  V30 3 1 3 4
M  V30 4 1 4 5
M  V30 5 1 5 6
M  V30 6 2 6 7
M  V30 7 1 7 8
M  V30 8 2 8 9
M  V30 9 1 9 10
M  V30 10 1 10 11
M  V30 11 2 11 12
M  V30 12 1 12 13
M  V30 13 2 13 14
M  V30 14 1 14 15
M  V30 15 1 14 16
M  V30 16 1 16 17
M  V30 17 2 17 18
M  V30 18 1 18 19
M  V30 19 2 19 20
M  V30 20 1 20 21
M  V30 21 1 21 22
M  V30 22 1 22 23
M  V30 23 3 23 24
M  V30 24 2 21 25
M  V30 25 2 16 26
M  V30 26 1 9 27
M  V30 27 2 27 28
M  V30 28 1 28 29
M  V30 29 1 5 30
M  V30 30 1 30 31
M  V30 31 1 31 2
M  V30 32 1 28 6
M  V30 33 1 26 11
M  V30 34 1 25 17
M  V30 35 1 1 32
M  V30 36 1 1 33
M  V30 37 1 1 34
M  V30 38 1 3 35
M  V30 39 1 3 36
M  V30 40 1 4 37
M  V30 41 1 4 38
M  V30 42 1 7 39
M  V30 43 1 8 40
M  V30 44 1 10 41
M  V30 45 1 13 42
M  V30 46 1 18 43
M  V30 47 1 19 44
M  V30 48 1 20 45
M  V30 49 1 22 46
M  V30 50 1 22 47
M  V30 51 1 25 48
M  V30 52 1 27 49
M  V30 53 1 30 50
M  V30 54 1 30 51
M  V30 55 1 31 52
M  V30 56 1 31 53
M  V30 END BOND
M  V30 END CTAB
M  END
>  <Dataset>  (110) 
ChEMBL_Kinases

>  <Ligand_Instance>  (110) 
nan

>  <PDB_ID>  (110) 
nan

>  <Standardized_SMILES>  (110) 
CN1CCN(c2ccc(Nc3ncc(Cl)c(-c4cccc(CC#N)c4)n3)cc2F)CC1

>  <Name>  (110) 
nan

>  <Pocket>  (110) 
nan

>  <ATP_Site>  (110) 
nan

>  <Peripheral>  (110) 
nan

>  <Num_H_Atoms_ProtBoundConf>  (110) 
nan

>  <Num_Resolved_Atoms>  (110) 
nan

>  <Num_Not_Resolved_Atoms>  (110) 
nan

$$$$
CHEMBL2403066
     RDKit          3D

  0  0  0  0  0  0  0  0  0  0999 V3000
M  V30 BEGIN CTAB
M  V30 COUNTS 54 57 0 0 0
M  V30 BEGIN ATOM
M  V30 1 C -0.049354 -3.880380 4.447848 0
M  V30 2 N 1.321906 -4.226236 4.669367 0
M  V30 3 C 2.147684 -3.147709 5.100492 0
M  V30 4 C 2.964690 -2.516862 4.000968 0
M  V30 5 N 2.863958 -3.237556 2.745490 0
M  V30 6 C 2.527270 -2.627325 1.511968 0
M  V30 7 C 2.118781 -1.312825 1.543331 0
M  V30 8 C 1.759927 -0.646310 0.389321 0
M  V30 9 C 1.785464 -1.242221 -0.855512 0
M  V30 10 N 1.421227 -0.578142 -2.058383 0
M  V30 11 C 0.957687 0.742778 -2.143111 0
M  V30 12 N 1.665020 1.902965 -2.263307 0
M  V30 13 C 1.039830 3.077876 -2.334559 0
M  V30 14 C -0.336165 3.134555 -2.287465 0
M  V30 15 Cl -1.156462 4.664697 -2.379528 0
M  V30 16 C -1.078547 1.976998 -2.166281 0
M  V30 17 C -2.552410 1.996324 -2.116124 0
M  V30 18 C -3.149666 1.027403 -2.930749 0
M  V30 19 C -4.511682 0.851400 -3.051782 0
M  V30 20 C -5.307773 1.708748 -2.302471 0
M  V30 21 C -4.740800 2.668924 -1.494675 0
M  V30 22 C -5.605274 3.575157 -0.704151 0
M  V30 23 C -5.910811 4.776405 -1.479828 0
M  V30 24 N -6.154587 5.736934 -2.092311 0
M  V30 25 C -3.366633 2.825433 -1.390614 0
M  V30 26 N -0.372448 0.810733 -2.098596 0
M  V30 27 C 2.191416 -2.559345 -0.912366 0
M  V30 28 C 2.541601 -3.191123 0.258440 0
M  V30 29 O 2.936503 -4.505806 0.118284 0
M  V30 30 C 3.155145 -4.614394 3.072372 0
M  V30 31 C 1.906280 -5.145578 3.768801 0
M  V30 32 H -0.354289 -4.246317 3.462954 0
M  V30 33 H -0.658712 -4.455263 5.203558 0
M  V30 34 H -0.275091 -2.797657 4.504835 0
M  V30 35 H 2.775138 -3.511703 5.941428 0
M  V30 36 H 1.495770 -2.352554 5.518994 0
M  V30 37 H 4.049745 -2.631039 4.321349 0
M  V30 38 H 2.824933 -1.439473 3.941100 0
M  V30 39 H 2.014212 -0.649402 2.372845 0
M  V30 40 H 1.425350 0.395540 0.334704 0
M  V30 41 H 1.483060 -1.057276 -2.964831 0
M  V30 42 H 1.621484 3.986137 -2.429855 0
M  V30 43 H -2.570410 0.332936 -3.535753 0
M  V30 44 H -4.957910 0.107711 -3.677936 0
M  V30 45 H -6.393558 1.607277 -2.366209 0
M  V30 46 H -6.531230 3.036407 -0.402765 0
M  V30 47 H -5.054544 3.855863 0.215674 0
M  V30 48 H -2.853880 3.539604 -0.791908 0
M  V30 49 H 2.226015 -3.061770 -1.861155 0
M  V30 50 H 3.877496 -4.736987 -0.190326 0
M  V30 51 H 4.000612 -4.741280 3.788554 0
M  V30 52 H 3.324877 -5.206772 2.174007 0
M  V30 53 H 1.194258 -5.464136 2.984722 0
M  V30 54 H 2.215858 -6.078816 4.299846 0
M  V30 END ATOM
M  V30 BEGIN BOND
M  V30 1 1 1 2
M  V30 2 1 2 3
M  V30 3 1 3 4
M  V30 4 1 4 5
M  V30 5 1 5 6
M  V30 6 2 6 7
M  V30 7 1 7 8
M  V30 8 2 8 9
M  V30 9 1 9 10
M  V30 10 1 10 11
M  V30 11 2 11 12
M  V30 12 1 12 13
M  V30 13 2 13 14
M  V30 14 1 14 15
M  V30 15 1 14 16
M  V30 16 1 16 17
M  V30 17 2 17 18
M  V30 18 1 18 19
M  V30 19 2 19 20
M  V30 20 1 20 21
M  V30 21 1 21 22
M  V30 22 1 22 23
M  V30 23 3 23 24
M  V30 24 2 21 25
M  V30 25 2 16 26
M  V30 26 1 9 27
M  V30 27 2 27 28
M  V30 28 1 28 29
M  V30 29 1 5 30
M  V30 30 1 30 31
M  V30 31 1 31 2
M  V30 32 1 28 6
M  V30 33 1 26 11
M  V30 34 1 25 17
M  V30 35 1 1 32
M  V30 36 1 1 33
M  V30 37 1 1 34
M  V30 38 1 3 35
M  V30 39 1 3 36
M  V30 40 1 4 37
M  V30 41 1 4 38
M  V30 42 1 7 39
M  V30 43 1 8 40
M  V30 44 1 10 41
M  V30 45 1 13 42
M  V30 46 1 18 43
M  V30 47 1 19 44
M  V30 48 1 20 45
M  V30 49 1 22 46
M  V30 50 1 22 47
M  V30 51 1 25 48
M  V30 52 1 27 49
M  V30 53 1 29 50
M  V30 54 1 30 51
M  V30 55 1 30 52
M  V30 56 1 31 53
M  V30 57 1 31 54
M  V30 END BOND
M  V30 END CTAB
M  END
>  <Dataset>  (111) 
ChEMBL_Kinases

>  <Ligand_Instance>  (111) 
nan

>  <PDB_ID>  (111) 
nan

>  <Standardized_SMILES>  (111) 
CN1CCN(c2ccc(Nc3ncc(Cl)c(-c4cccc(CC#N)c4)n3)cc2O)CC1

>  <Name>  (111) 
nan

>  <Pocket>  (111) 
nan

>  <ATP_Site>  (111) 
nan

>  <Peripheral>  (111) 
nan

>  <Num_H_Atoms_ProtBoundConf>  (111) 
nan

>  <Num_Resolved_Atoms>  (111) 
nan

>  <Num_Not_Resolved_Atoms>  (111) 
nan

$$$$
CHEMBL2403067
     RDKit          3D

  0  0  0  0  0  0  0  0  0  0999 V3000
M  V30 BEGIN CTAB
M  V30 COUNTS 60 63 0 0 0
M  V30 BEGIN ATOM
M  V30 1 C 0.582678 -0.860535 3.400684 0
M  V30 2 C 0.477840 -2.350679 3.186877 0
M  V30 3 O 0.116480 -2.712685 1.892908 0
M  V30 4 C 0.791477 -2.424341 0.726174 0
M  V30 5 C 1.962773 -1.721815 0.494849 0
M  V30 6 C 2.454816 -1.565606 -0.778385 0
M  V30 7 N 3.653637 -0.787539 -0.818457 0
M  V30 8 C 3.812281 0.379554 0.010712 0
M  V30 9 N 4.912877 1.102712 0.213839 0
M  V30 10 C 4.915444 2.211906 0.972314 0
M  V30 11 C 3.768972 2.665959 1.586438 0
M  V30 12 Cl 3.696273 4.099972 2.589539 0
M  V30 13 C 2.616585 1.921983 1.382459 0
M  V30 14 C 1.337718 2.336355 1.977780 0
M  V30 15 C 1.038101 2.757044 3.254110 0
M  V30 16 C -0.281159 3.082974 3.515032 0
M  V30 17 C -1.268146 3.005491 2.583877 0
M  V30 18 C -1.001034 2.581926 1.274277 0
M  V30 19 C -2.102555 2.509644 0.290363 0
M  V30 20 C -2.281776 3.755847 -0.458674 0
M  V30 21 N -2.413260 4.734290 -1.049885 0
M  V30 22 C 0.329848 2.255811 1.019996 0
M  V30 23 N 2.701472 0.832181 0.615304 0
M  V30 24 C 1.799900 -2.099789 -1.865681 0
M  V30 25 C 0.611405 -2.813345 -1.655065 0
M  V30 26 C 0.118337 -2.967472 -0.348363 0
M  V30 27 N -1.092841 -3.729455 -0.372016 0
M  V30 28 C -2.342338 -3.265745 0.259116 0
M  V30 29 C -3.317985 -2.961801 -0.847978 0
M  V30 30 N -2.805190 -3.444674 -2.114707 0
M  V30 31 C -3.775244 -3.173728 -3.128876 0
M  V30 32 C -2.344174 -4.800636 -2.096445 0
M  V30 33 C -1.338008 -5.003383 -0.990342 0
M  V30 34 H -0.058674 -0.518271 4.247619 0
M  V30 35 H 1.625841 -0.625789 3.752277 0
M  V30 36 H 0.304557 -0.288772 2.488194 0
M  V30 37 H 1.370375 -2.889854 3.577852 0
M  V30 38 H -0.358874 -2.710131 3.856398 0
M  V30 39 H 2.372202 -1.362304 1.430421 0
M  V30 40 H 4.498037 -0.980636 -1.424758 0
M  V30 41 H 5.829096 2.766236 1.109759 0
M  V30 42 H 1.906237 2.770710 3.883870 0
M  V30 43 H -0.440756 3.408330 4.551046 0
M  V30 44 H -2.283216 3.275745 2.858798 0
M  V30 45 H -3.055697 2.329532 0.843331 0
M  V30 46 H -1.997744 1.642858 -0.413728 0
M  V30 47 H 0.431358 1.940853 -0.019075 0
M  V30 48 H 2.252631 -1.930531 -2.829176 0
M  V30 49 H 0.160307 -3.199066 -2.562642 0
M  V30 50 H -2.732163 -4.045686 0.947288 0
M  V30 51 H -2.081403 -2.315769 0.759451 0
M  V30 52 H -4.348841 -3.330907 -0.645134 0
M  V30 53 H -3.380864 -1.858862 -0.960564 0
M  V30 54 H -3.379548 -2.706334 -4.038701 0
M  V30 55 H -4.552849 -2.484813 -2.736411 0
M  V30 56 H -4.279697 -4.142061 -3.392685 0
M  V30 57 H -3.170137 -5.512325 -2.082166 0
M  V30 58 H -1.798437 -4.949055 -3.072642 0
M  V30 59 H -1.792685 -5.675934 -0.240849 0
M  V30 60 H -0.417584 -5.502548 -1.344679 0
M  V30 END ATOM
M  V30 BEGIN BOND
M  V30 1 1 1 2
M  V30 2 1 2 3
M  V30 3 1 3 4
M  V30 4 2 4 5
M  V30 5 1 5 6
M  V30 6 1 6 7
M  V30 7 1 7 8
M  V30 8 2 8 9
M  V30 9 1 9 10
M  V30 10 2 10 11
M  V30 11 1 11 12
M  V30 12 1 11 13
M  V30 13 1 13 14
M  V30 14 2 14 15
M  V30 15 1 15 16
M  V30 16 2 16 17
M  V30 17 1 17 18
M  V30 18 1 18 19
M  V30 19 1 19 20
M  V30 20 3 20 21
M  V30 21 2 18 22
M  V30 22 2 13 23
M  V30 23 2 6 24
M  V30 24 1 24 25
M  V30 25 2 25 26
M  V30 26 1 26 27
M  V30 27 1 27 28
M  V30 28 1 28 29
M  V30 29 1 29 30
M  V30 30 1 30 31
M  V30 31 1 30 32
M  V30 32 1 32 33
M  V30 33 1 26 4
M  V30 34 1 33 27
M  V30 35 1 23 8
M  V30 36 1 22 14
M  V30 37 1 1 34
M  V30 38 1 1 35
M  V30 39 1 1 36
M  V30 40 1 2 37
M  V30 41 1 2 38
M  V30 42 1 5 39
M  V30 43 1 7 40
M  V30 44 1 10 41
M  V30 45 1 15 42
M  V30 46 1 16 43
M  V30 47 1 17 44
M  V30 48 1 19 45
M  V30 49 1 19 46
M  V30 50 1 22 47
M  V30 51 1 24 48
M  V30 52 1 25 49
M  V30 53 1 28 50
M  V30 54 1 28 51
M  V30 55 1 29 52
M  V30 56 1 29 53
M  V30 57 1 31 54
M  V30 58 1 31 55
M  V30 59 1 31 56
M  V30 60 1 32 57
M  V30 61 1 32 58
M  V30 62 1 33 59
M  V30 63 1 33 60
M  V30 END BOND
M  V30 END CTAB
M  END
>  <Dataset>  (112) 
ChEMBL_Kinases

>  <Ligand_Instance>  (112) 
nan

>  <PDB_ID>  (112) 
nan

>  <Standardized_SMILES>  (112) 
CCOc1cc(Nc2ncc(Cl)c(-c3cccc(CC#N)c3)n2)ccc1N1CCN(C)CC1

>  <Name>  (112) 
nan

>  <Pocket>  (112) 
nan

>  <ATP_Site>  (112) 
nan

>  <Peripheral>  (112) 
nan

>  <Num_H_Atoms_ProtBoundConf>  (112) 
nan

>  <Num_Resolved_Atoms>  (112) 
nan

>  <Num_Not_Resolved_Atoms>  (112) 
nan

$$$$
CHEMBL2403068
     RDKit          3D

  0  0  0  0  0  0  0  0  0  0999 V3000
M  V30 BEGIN CTAB
M  V30 COUNTS 64 67 0 0 0
M  V30 BEGIN ATOM
M  V30 1 C -1.949272 -3.896966 1.274221 0
M  V30 2 O -1.082333 -4.473267 0.380373 0
M  V30 3 C -0.702366 -3.647179 -0.645696 0
M  V30 4 C 0.008266 -2.428548 -0.119839 0
M  V30 5 O 0.393994 -1.616612 -1.219545 0
M  V30 6 C 1.064387 -0.442286 -1.165212 0
M  V30 7 C 1.550230 0.291276 -0.105193 0
M  V30 8 C 2.218962 1.480965 -0.292576 0
M  V30 9 N 2.710060 2.235921 0.799792 0
M  V30 10 C 2.386138 2.217588 2.177364 0
M  V30 11 N 3.147889 2.938278 3.021661 0
M  V30 12 C 2.918890 3.015669 4.338078 0
M  V30 13 C 1.850780 2.327258 4.868123 0
M  V30 14 Cl 1.742393 2.548550 6.617276 0
M  V30 15 C 1.043352 1.571782 4.008755 0
M  V30 16 C -0.048913 0.915784 4.703396 0
M  V30 17 C -0.786024 1.696008 5.607625 0
M  V30 18 C -1.850712 1.250467 6.368711 0
M  V30 19 C -2.227820 -0.054125 6.239693 0
M  V30 20 C -1.528203 -0.860826 5.356610 0
M  V30 21 C -1.970223 -2.275211 5.245888 0
M  V30 22 C -3.049842 -2.421618 4.266634 0
M  V30 23 N -3.908682 -2.518513 3.498256 0
M  V30 24 C -0.469045 -0.390625 4.609836 0
M  V30 25 N 1.348364 1.552425 2.712114 0
M  V30 26 C 2.390162 1.924490 -1.585203 0
M  V30 27 C 1.930147 1.244147 -2.691333 0
M  V30 28 C 1.253087 0.034811 -2.470417 0
M  V30 29 N 0.824767 -0.575203 -3.683059 0
M  V30 30 C 1.164846 -1.878766 -4.223674 0
M  V30 31 C -0.148796 -2.448986 -4.734545 0
M  V30 32 N -1.267389 -1.857660 -4.000388 0
M  V30 33 C -2.464958 -2.582277 -4.304701 0
M  V30 34 C -1.459725 -0.474036 -4.339680 0
M  V30 35 C -0.097242 0.142246 -4.583733 0
M  V30 36 H -2.887492 -3.550837 0.760144 0
M  V30 37 H -2.292567 -4.647635 2.042068 0
M  V30 38 H -1.556416 -3.045609 1.845017 0
M  V30 39 H -1.661534 -3.266034 -1.104772 0
M  V30 40 H -0.101567 -4.175020 -1.424546 0
M  V30 41 H -0.721603 -1.874045 0.526281 0
M  V30 42 H 0.900251 -2.628605 0.475476 0
M  V30 43 H 1.358251 -0.150086 0.859434 0
M  V30 44 H 3.456788 2.936290 0.512556 0
M  V30 45 H 3.636603 3.647047 4.884038 0
M  V30 46 H -0.597862 2.765253 5.801704 0
M  V30 47 H -2.404473 1.847381 7.052892 0
M  V30 48 H -3.050652 -0.462932 6.805645 0
M  V30 49 H -2.356264 -2.582615 6.235418 0
M  V30 50 H -1.096928 -2.921252 5.018559 0
M  V30 51 H 0.088647 -1.001359 3.918593 0
M  V30 52 H 2.921445 2.873418 -1.762537 0
M  V30 53 H 2.109822 1.669301 -3.668548 0
M  V30 54 H 1.516591 -2.581557 -3.450815 0
M  V30 55 H 1.855779 -1.796035 -5.085815 0
M  V30 56 H -0.203032 -3.542342 -4.540768 0
M  V30 57 H -0.245887 -2.325980 -5.830812 0
M  V30 58 H -3.197157 -1.961497 -4.867421 0
M  V30 59 H -2.253075 -3.553709 -4.800110 0
M  V30 60 H -2.981614 -2.792297 -3.328718 0
M  V30 61 H -1.885012 0.067736 -3.447356 0
M  V30 62 H -2.171446 -0.313681 -5.171966 0
M  V30 63 H 0.181379 0.000519 -5.651443 0
M  V30 64 H -0.085675 1.235844 -4.398094 0
M  V30 END ATOM
M  V30 BEGIN BOND
M  V30 1 1 1 2
M  V30 2 1 2 3
M  V30 3 1 3 4
M  V30 4 1 4 5
M  V30 5 1 5 6
M  V30 6 2 6 7
M  V30 7 1 7 8
M  V30 8 1 8 9
M  V30 9 1 9 10
M  V30 10 2 10 11
M  V30 11 1 11 12
M  V30 12 2 12 13
M  V30 13 1 13 14
M  V30 14 1 13 15
M  V30 15 1 15 16
M  V30 16 2 16 17
M  V30 17 1 17 18
M  V30 18 2 18 19
M  V30 19 1 19 20
M  V30 20 1 20 21
M  V30 21 1 21 22
M  V30 22 3 22 23
M  V30 23 2 20 24
M  V30 24 2 15 25
M  V30 25 2 8 26
M  V30 26 1 26 27
M  V30 27 2 27 28
M  V30 28 1 28 29
M  V30 29 1 29 30
M  V30 30 1 30 31
M  V30 31 1 31 32
M  V30 32 1 32 33
M  V30 33 1 32 34
M  V30 34 1 34 35
M  V30 35 1 28 6
M  V30 36 1 35 29
M  V30 37 1 25 10
M  V30 38 1 24 16
M  V30 39 1 1 36
M  V30 40 1 1 37
M  V30 41 1 1 38
M  V30 42 1 3 39
M  V30 43 1 3 40
M  V30 44 1 4 41
M  V30 45 1 4 42
M  V30 46 1 7 43
M  V30 47 1 9 44
M  V30 48 1 12 45
M  V30 49 1 17 46
M  V30 50 1 18 47
M  V30 51 1 19 48
M  V30 52 1 21 49
M  V30 53 1 21 50
M  V30 54 1 24 51
M  V30 55 1 26 52
M  V30 56 1 27 53
M  V30 57 1 30 54
M  V30 58 1 30 55
M  V30 59 1 31 56
M  V30 60 1 31 57
M  V30 61 1 33 58
M  V30 62 1 33 59
M  V30 63 1 33 60
M  V30 64 1 34 61
M  V30 65 1 34 62
M  V30 66 1 35 63
M  V30 67 1 35 64
M  V30 END BOND
M  V30 END CTAB
M  END
>  <Dataset>  (113) 
ChEMBL_Kinases

>  <Ligand_Instance>  (113) 
nan

>  <PDB_ID>  (113) 
nan

>  <Standardized_SMILES>  (113) 
COCCOc1cc(Nc2ncc(Cl)c(-c3cccc(CC#N)c3)n2)ccc1N1CCN(C)CC1

>  <Name>  (113) 
nan

>  <Pocket>  (113) 
nan

>  <ATP_Site>  (113) 
nan

>  <Peripheral>  (113) 
nan

>  <Num_H_Atoms_ProtBoundConf>  (113) 
nan

>  <Num_Resolved_Atoms>  (113) 
nan

>  <Num_Not_Resolved_Atoms>  (113) 
nan

$$$$
CHEMBL2403070
     RDKit          3D

  0  0  0  0  0  0  0  0  0  0999 V3000
M  V30 BEGIN CTAB
M  V30 COUNTS 62 65 0 0 0
M  V30 BEGIN ATOM
M  V30 1 C -0.121584 -3.811443 3.005548 0
M  V30 2 C -0.520898 -3.686019 1.529287 0
M  V30 3 O 0.229140 -2.637080 0.985748 0
M  V30 4 C 0.188234 -2.179534 -0.314435 0
M  V30 5 O -0.656486 -3.088150 -0.393032 0
M  V30 6 C 0.994029 -1.090975 -0.819307 0
M  V30 7 C 1.868164 -0.535204 0.088759 0
M  V30 8 C 2.671108 0.470435 -0.406966 0
M  V30 9 N 3.594427 1.161879 0.451788 0
M  V30 10 C 3.354531 1.344756 1.857073 0
M  V30 11 N 4.230372 1.811395 2.757072 0
M  V30 12 C 3.864375 1.983418 4.055161 0
M  V30 13 C 2.591217 1.682318 4.465862 0
M  V30 14 Cl 1.980976 1.854423 6.097771 0
M  V30 15 C 1.678066 1.201845 3.553108 0
M  V30 16 C 0.260708 0.826169 3.762832 0
M  V30 17 C -0.592301 1.320005 2.770832 0
M  V30 18 C -1.956181 1.082817 2.773143 0
M  V30 19 C -2.486567 0.340672 3.779579 0
M  V30 20 C -1.624463 -0.145112 4.761314 0
M  V30 21 C -2.249094 -0.950692 5.836333 0
M  V30 22 C -2.690198 -0.026421 6.904293 0
M  V30 23 N -3.039331 0.716378 7.737123 0
M  V30 24 C -0.255814 0.070749 4.793088 0
M  V30 25 N 2.118970 1.062020 2.300979 0
M  V30 26 C 2.572945 0.860114 -1.724630 0
M  V30 27 C 1.694115 0.298382 -2.626307 0
M  V30 28 C 0.885576 -0.707851 -2.139298 0
M  V30 29 N -0.066587 -1.270184 -3.054271 0
M  V30 30 C -1.405502 -0.853217 -2.686523 0
M  V30 31 C -2.486295 -1.732130 -3.249810 0
M  V30 32 N -2.365289 -1.993106 -4.651161 0
M  V30 33 C -3.381087 -1.383058 -5.456059 0
M  V30 34 C -1.053108 -1.813686 -5.197301 0
M  V30 35 C 0.029860 -2.131010 -4.214607 0
M  V30 36 H 0.908369 -3.436917 3.177589 0
M  V30 37 H -0.124776 -4.870386 3.347507 0
M  V30 38 H -0.852982 -3.215879 3.564160 0
M  V30 39 H -0.276615 -4.675358 1.071820 0
M  V30 40 H -1.614309 -3.562532 1.458585 0
M  V30 41 H 1.903460 -0.885635 1.095869 0
M  V30 42 H 4.493897 1.576076 0.126912 0
M  V30 43 H 4.556475 2.356806 4.792817 0
M  V30 44 H -0.220173 1.924704 1.934812 0
M  V30 45 H -2.573512 1.489558 1.978920 0
M  V30 46 H -3.549836 0.129024 3.823935 0
M  V30 47 H -1.469559 -1.618007 6.265735 0
M  V30 48 H -3.148223 -1.497402 5.477560 0
M  V30 49 H 0.425937 -0.285276 5.526438 0
M  V30 50 H 3.210558 1.638700 -2.070240 0
M  V30 51 H 1.686134 0.665474 -3.633347 0
M  V30 52 H -1.548497 -0.837622 -1.590809 0
M  V30 53 H -1.547900 0.222339 -2.992948 0
M  V30 54 H -2.496695 -2.673975 -2.650952 0
M  V30 55 H -3.447025 -1.210110 -3.018237 0
M  V30 56 H -4.246665 -2.065975 -5.620803 0
M  V30 57 H -3.785210 -0.462420 -4.982734 0
M  V30 58 H -3.028096 -1.061392 -6.470936 0
M  V30 59 H -0.939554 -2.570151 -6.028942 0
M  V30 60 H -0.907202 -0.782524 -5.619104 0
M  V30 61 H -0.081188 -3.202026 -3.947503 0
M  V30 62 H 1.015975 -1.964232 -4.665383 0
M  V30 END ATOM
M  V30 BEGIN BOND
M  V30 1 1 1 2
M  V30 2 1 2 3
M  V30 3 1 3 4
M  V30 4 2 4 5
M  V30 5 1 4 6
M  V30 6 2 6 7
M  V30 7 1 7 8
M  V30 8 1 8 9
M  V30 9 1 9 10
M  V30 10 2 10 11
M  V30 11 1 11 12
M  V30 12 2 12 13
M  V30 13 1 13 14
M  V30 14 1 13 15
M  V30 15 1 15 16
M  V30 16 2 16 17
M  V30 17 1 17 18
M  V30 18 2 18 19
M  V30 19 1 19 20
M  V30 20 1 20 21
M  V30 21 1 21 22
M  V30 22 3 22 23
M  V30 23 2 20 24
M  V30 24 2 15 25
M  V30 25 2 8 26
M  V30 26 1 26 27
M  V30 27 2 27 28
M  V30 28 1 28 29
M  V30 29 1 29 30
M  V30 30 1 30 31
M  V30 31 1 31 32
M  V30 32 1 32 33
M  V30 33 1 32 34
M  V30 34 1 34 35
M  V30 35 1 28 6
M  V30 36 1 35 29
M  V30 37 1 25 10
M  V30 38 1 24 16
M  V30 39 1 1 36
M  V30 40 1 1 37
M  V30 41 1 1 38
M  V30 42 1 2 39
M  V30 43 1 2 40
M  V30 44 1 7 41
M  V30 45 1 9 42
M  V30 46 1 12 43
M  V30 47 1 17 44
M  V30 48 1 18 45
M  V30 49 1 19 46
M  V30 50 1 21 47
M  V30 51 1 21 48
M  V30 52 1 24 49
M  V30 53 1 26 50
M  V30 54 1 27 51
M  V30 55 1 30 52
M  V30 56 1 30 53
M  V30 57 1 31 54
M  V30 58 1 31 55
M  V30 59 1 33 56
M  V30 60 1 33 57
M  V30 61 1 33 58
M  V30 62 1 34 59
M  V30 63 1 34 60
M  V30 64 1 35 61
M  V30 65 1 35 62
M  V30 END BOND
M  V30 END CTAB
M  END
>  <Dataset>  (114) 
ChEMBL_Kinases

>  <Ligand_Instance>  (114) 
nan

>  <PDB_ID>  (114) 
nan

>  <Standardized_SMILES>  (114) 
CCOC(=O)c1cc(Nc2ncc(Cl)c(-c3cccc(CC#N)c3)n2)ccc1N1CCN(C)CC1

>  <Name>  (114) 
nan

>  <Pocket>  (114) 
nan

>  <ATP_Site>  (114) 
nan

>  <Peripheral>  (114) 
nan

>  <Num_H_Atoms_ProtBoundConf>  (114) 
nan

>  <Num_Resolved_Atoms>  (114) 
nan

>  <Num_Not_Resolved_Atoms>  (114) 
nan

$$$$
CHEMBL2403071
     RDKit          3D

  0  0  0  0  0  0  0  0  0  0999 V3000
M  V30 BEGIN CTAB
M  V30 COUNTS 54 57 0 0 0
M  V30 BEGIN ATOM
M  V30 1 C 0.461898 -4.102459 3.103297 0
M  V30 2 N 1.574227 -4.356874 3.989027 0
M  V30 3 C 2.215795 -3.160783 4.439772 0
M  V30 4 C 3.288631 -2.718030 3.487463 0
M  V30 5 N 3.115056 -3.238266 2.136459 0
M  V30 6 C 2.744323 -2.381789 1.066738 0
M  V30 7 C 2.108997 -1.212213 1.418628 0
M  V30 8 C 1.680837 -0.360342 0.418605 0
M  V30 9 C 1.875260 -0.653689 -0.915982 0
M  V30 10 N 1.430757 0.207715 -1.954630 0
M  V30 11 C 0.726484 1.437582 -1.876452 0
M  V30 12 N 1.242329 2.683941 -1.845664 0
M  V30 13 C 0.482424 3.783875 -1.766598 0
M  V30 14 C -0.873870 3.632064 -1.714712 0
M  V30 15 Cl -1.985165 4.974530 -1.607863 0
M  V30 16 C -1.449495 2.384207 -1.743174 0
M  V30 17 C -2.891957 2.069547 -1.691154 0
M  V30 18 C -3.372289 1.111534 -2.580361 0
M  V30 19 C -4.711172 0.725311 -2.629676 0
M  V30 20 C -5.580705 1.326750 -1.753695 0
M  V30 21 C -5.133182 2.280887 -0.860587 0
M  V30 22 C -6.067178 2.955279 0.106523 0
M  V30 23 C -6.127344 2.183681 1.365308 0
M  V30 24 N -6.168214 1.565240 2.355536 0
M  V30 25 C -3.795242 2.659396 -0.820554 0
M  V30 26 N -0.633893 1.314092 -1.823346 0
M  V30 27 C 2.508412 -1.814752 -1.298959 0
M  V30 28 C 2.931781 -2.659741 -0.267425 0
M  V30 29 C 3.607382 -3.844771 -0.676799 0
M  V30 30 N 4.162749 -4.800463 -1.027327 0
M  V30 31 C 3.373768 -4.650321 2.310389 0
M  V30 32 C 2.566407 -5.234916 3.450326 0
M  V30 33 H 0.743687 -4.462434 2.083659 0
M  V30 34 H -0.438493 -4.665115 3.414659 0
M  V30 35 H 0.253595 -3.005861 3.020545 0
M  V30 36 H 1.449923 -2.349058 4.564227 0
M  V30 37 H 2.606688 -3.337357 5.469139 0
M  V30 38 H 4.278811 -2.997217 3.938507 0
M  V30 39 H 3.308426 -1.588559 3.508131 0
M  V30 40 H 1.866794 -0.820391 2.375920 0
M  V30 41 H 1.171979 0.585055 0.582647 0
M  V30 42 H 1.590283 0.014175 -2.963680 0
M  V30 43 H 0.918140 4.764246 -1.743492 0
M  V30 44 H -2.683535 0.644878 -3.260963 0
M  V30 45 H -5.013636 -0.025303 -3.348297 0
M  V30 46 H -6.629958 1.029770 -1.776946 0
M  V30 47 H -7.101627 2.989973 -0.291071 0
M  V30 48 H -5.784282 4.006043 0.298209 0
M  V30 49 H -3.411418 3.397215 -0.141459 0
M  V30 50 H 2.665677 -2.048132 -2.332160 0
M  V30 51 H 4.467085 -4.841000 2.429451 0
M  V30 52 H 3.056167 -5.202488 1.403408 0
M  V30 53 H 2.017981 -6.164106 3.127698 0
M  V30 54 H 3.250865 -5.554009 4.257456 0
M  V30 END ATOM
M  V30 BEGIN BOND
M  V30 1 1 1 2
M  V30 2 1 2 3
M  V30 3 1 3 4
M  V30 4 1 4 5
M  V30 5 1 5 6
M  V30 6 2 6 7
M  V30 7 1 7 8
M  V30 8 2 8 9
M  V30 9 1 9 10
M  V30 10 1 10 11
M  V30 11 2 11 12
M  V30 12 1 12 13
M  V30 13 2 13 14
M  V30 14 1 14 15
M  V30 15 1 14 16
M  V30 16 1 16 17
M  V30 17 2 17 18
M  V30 18 1 18 19
M  V30 19 2 19 20
M  V30 20 1 20 21
M  V30 21 1 21 22
M  V30 22 1 22 23
M  V30 23 3 23 24
M  V30 24 2 21 25
M  V30 25 2 16 26
M  V30 26 1 9 27
M  V30 27 2 27 28
M  V30 28 1 28 29
M  V30 29 3 29 30
M  V30 30 1 5 31
M  V30 31 1 31 32
M  V30 32 1 32 2
M  V30 33 1 28 6
M  V30 34 1 26 11
M  V30 35 1 25 17
M  V30 36 1 1 33
M  V30 37 1 1 34
M  V30 38 1 1 35
M  V30 39 1 3 36
M  V30 40 1 3 37
M  V30 41 1 4 38
M  V30 42 1 4 39
M  V30 43 1 7 40
M  V30 44 1 8 41
M  V30 45 1 10 42
M  V30 46 1 13 43
M  V30 47 1 18 44
M  V30 48 1 19 45
M  V30 49 1 20 46
M  V30 50 1 22 47
M  V30 51 1 22 48
M  V30 52 1 25 49
M  V30 53 1 27 50
M  V30 54 1 31 51
M  V30 55 1 31 52
M  V30 56 1 32 53
M  V30 57 1 32 54
M  V30 END BOND
M  V30 END CTAB
M  END
>  <Dataset>  (115) 
ChEMBL_Kinases

>  <Ligand_Instance>  (115) 
nan

>  <PDB_ID>  (115) 
nan

>  <Standardized_SMILES>  (115) 
CN1CCN(c2ccc(Nc3ncc(Cl)c(-c4cccc(CC#N)c4)n3)cc2C#N)CC1

>  <Name>  (115) 
nan

>  <Pocket>  (115) 
nan

>  <ATP_Site>  (115) 
nan

>  <Peripheral>  (115) 
nan

>  <Num_H_Atoms_ProtBoundConf>  (115) 
nan

>  <Num_Resolved_Atoms>  (115) 
nan

>  <Num_Not_Resolved_Atoms>  (115) 
nan

$$$$
CHEMBL2403072
     RDKit          3D

  0  0  0  0  0  0  0  0  0  0999 V3000
M  V30 BEGIN CTAB
M  V30 COUNTS 60 63 0 0 0
M  V30 BEGIN ATOM
M  V30 1 C 2.359051 -4.039379 3.396939 0
M  V30 2 N 2.212319 -3.276002 2.160827 0
M  V30 3 C 2.306241 -3.665273 0.768796 0
M  V30 4 O 2.566144 -4.878542 0.562129 0
M  V30 5 C 2.068700 -2.540045 -0.126089 0
M  V30 6 C 3.013442 -1.570064 -0.329458 0
M  V30 7 C 2.752134 -0.510194 -1.154664 0
M  V30 8 N 3.553350 0.626685 -1.513389 0
M  V30 9 C 2.908554 1.871044 -1.081469 0
M  V30 10 N 3.276055 3.138541 -1.370591 0
M  V30 11 C 2.619956 4.185165 -0.883630 0
M  V30 12 C 1.521197 4.055789 -0.047837 0
M  V30 13 Cl 0.533159 5.271137 0.694824 0
M  V30 14 C 1.127864 2.776575 0.262661 0
M  V30 15 C 0.064336 2.218889 1.109852 0
M  V30 16 C 0.498490 1.275224 2.042803 0
M  V30 17 C -0.281102 0.562054 2.950303 0
M  V30 18 C -1.623969 0.873069 2.862635 0
M  V30 19 C -2.117476 1.796278 1.963601 0
M  V30 20 C -3.564782 2.100065 1.886142 0
M  V30 21 C -3.937276 3.179747 2.776146 0
M  V30 22 N -4.225443 4.038459 3.493917 0
M  V30 23 C -1.277796 2.459577 1.099498 0
M  V30 24 N 1.851062 1.814169 -0.277940 0
M  V30 25 C 1.500387 -0.425344 -1.796790 0
M  V30 26 C 0.521833 -1.411383 -1.599583 0
M  V30 27 C 0.834888 -2.462483 -0.753455 0
M  V30 28 N -0.234633 -3.416011 -0.583979 0
M  V30 29 C -0.907096 -3.539506 0.724615 0
M  V30 30 C -2.391530 -3.247660 0.514032 0
M  V30 31 N -2.637449 -2.952898 -0.841396 0
M  V30 32 C -3.364016 -1.806617 -1.194805 0
M  V30 33 C -2.222741 -3.858908 -1.834141 0
M  V30 34 C -0.818977 -4.353634 -1.542403 0
M  V30 35 H 3.290342 -3.696582 3.886426 0
M  V30 36 H 2.523166 -5.103571 3.146045 0
M  V30 37 H 1.529426 -3.878710 4.095978 0
M  V30 38 H 2.012232 -2.297716 2.483568 0
M  V30 39 H 3.992861 -1.557234 0.115367 0
M  V30 40 H 4.474125 0.737336 -2.006763 0
M  V30 41 H 2.882898 5.210566 -1.090959 0
M  V30 42 H 1.575587 1.048658 2.090214 0
M  V30 43 H 0.199653 -0.140982 3.611135 0
M  V30 44 H -2.271125 0.335784 3.554093 0
M  V30 45 H -4.108287 1.163217 2.141383 0
M  V30 46 H -3.810502 2.349417 0.841163 0
M  V30 47 H -1.581832 3.194927 0.364599 0
M  V30 48 H 1.186386 0.359612 -2.470769 0
M  V30 49 H -0.449291 -1.342646 -2.100666 0
M  V30 50 H -0.511048 -2.740989 1.371797 0
M  V30 51 H -0.765938 -4.550937 1.157490 0
M  V30 52 H -3.012165 -4.091842 0.905423 0
M  V30 53 H -2.650341 -2.372233 1.126202 0
M  V30 54 H -3.188944 -1.556449 -2.274028 0
M  V30 55 H -3.023663 -0.894652 -0.648038 0
M  V30 56 H -4.474274 -1.893153 -1.116059 0
M  V30 57 H -2.921929 -4.740148 -1.930689 0
M  V30 58 H -2.302970 -3.349893 -2.826669 0
M  V30 59 H -0.212451 -4.479607 -2.445897 0
M  V30 60 H -0.910116 -5.345665 -1.053576 0
M  V30 END ATOM
M  V30 BEGIN BOND
M  V30 1 1 1 2
M  V30 2 1 2 3
M  V30 3 2 3 4
M  V30 4 1 3 5
M  V30 5 2 5 6
M  V30 6 1 6 7
M  V30 7 1 7 8
M  V30 8 1 8 9
M  V30 9 2 9 10
M  V30 10 1 10 11
M  V30 11 2 11 12
M  V30 12 1 12 13
M  V30 13 1 12 14
M  V30 14 1 14 15
M  V30 15 2 15 16
M  V30 16 1 16 17
M  V30 17 2 17 18
M  V30 18 1 18 19
M  V30 19 1 19 20
M  V30 20 1 20 21
M  V30 21 3 21 22
M  V30 22 2 19 23
M  V30 23 2 14 24
M  V30 24 2 7 25
M  V30 25 1 25 26
M  V30 26 2 26 27
M  V30 27 1 27 28
M  V30 28 1 28 29
M  V30 29 1 29 30
M  V30 30 1 30 31
M  V30 31 1 31 32
M  V30 32 1 31 33
M  V30 33 1 33 34
M  V30 34 1 27 5
M  V30 35 1 34 28
M  V30 36 1 24 9
M  V30 37 1 23 15
M  V30 38 1 1 35
M  V30 39 1 1 36
M  V30 40 1 1 37
M  V30 41 1 2 38
M  V30 42 1 6 39
M  V30 43 1 8 40
M  V30 44 1 11 41
M  V30 45 1 16 42
M  V30 46 1 17 43
M  V30 47 1 18 44
M  V30 48 1 20 45
M  V30 49 1 20 46
M  V30 50 1 23 47
M  V30 51 1 25 48
M  V30 52 1 26 49
M  V30 53 1 29 50
M  V30 54 1 29 51
M  V30 55 1 30 52
M  V30 56 1 30 53
M  V30 57 1 32 54
M  V30 58 1 32 55
M  V30 59 1 32 56
M  V30 60 1 33 57
M  V30 61 1 33 58
M  V30 62 1 34 59
M  V30 63 1 34 60
M  V30 END BOND
M  V30 END CTAB
M  END
>  <Dataset>  (116) 
ChEMBL_Kinases

>  <Ligand_Instance>  (116) 
nan

>  <PDB_ID>  (116) 
nan

>  <Standardized_SMILES>  (116) 
CNC(=O)c1cc(Nc2ncc(Cl)c(-c3cccc(CC#N)c3)n2)ccc1N1CCN(C)CC1

>  <Name>  (116) 
nan

>  <Pocket>  (116) 
nan

>  <ATP_Site>  (116) 
nan

>  <Peripheral>  (116) 
nan

>  <Num_H_Atoms_ProtBoundConf>  (116) 
nan

>  <Num_Resolved_Atoms>  (116) 
nan

>  <Num_Not_Resolved_Atoms>  (116) 
nan

$$$$
CHEMBL2403084
     RDKit          3D

  0  0  0  0  0  0  0  0  0  0999 V3000
M  V30 BEGIN CTAB
M  V30 COUNTS 68 73 0 0 0
M  V30 BEGIN ATOM
M  V30 1 N 2.926972 -3.168180 3.285698 0
M  V30 2 C 3.791126 -2.073566 2.878096 0
M  V30 3 C 4.012172 -2.055101 1.399863 0
M  V30 4 C 3.272526 -0.982983 0.667825 0
M  V30 5 C 2.118330 -0.503210 1.494388 0
M  V30 6 N 1.159647 0.272661 0.772116 0
M  V30 7 C 0.449214 -0.253466 -0.326374 0
M  V30 8 N -0.425445 0.508071 -0.961150 0
M  V30 9 C -1.180186 0.161265 -2.017871 0
M  V30 10 N -2.088316 1.047687 -2.629739 0
M  V30 11 C -2.368943 2.395729 -2.273376 0
M  V30 12 C -2.892340 2.621534 -0.927383 0
M  V30 13 C -2.218582 2.895434 0.243384 0
M  V30 14 C -2.872799 3.078374 1.442253 0
M  V30 15 C -4.245878 2.996800 1.535281 0
M  V30 16 C -4.900851 3.195161 2.816028 0
M  V30 17 C -4.299180 3.467023 4.007465 0
M  V30 18 C -5.265980 3.584650 4.984389 0
M  V30 19 C -6.451548 3.370952 4.315854 0
M  V30 20 O -6.184485 3.148944 3.057719 0
M  V30 21 C -4.965111 2.724690 0.389940 0
M  V30 22 C -4.285571 2.545477 -0.798592 0
M  V30 23 C -0.949128 -1.160159 -2.418161 0
M  V30 24 N -1.526814 -1.851007 -3.442678 0
M  V30 25 C -0.997224 -3.104513 -3.460091 0
M  V30 26 N -0.099524 -3.149061 -2.434947 0
M  V30 27 C 0.664721 -4.334832 -2.144150 0
M  V30 28 C 2.097579 -4.225333 -2.636564 0
M  V30 29 C 2.718005 -5.439409 -1.967910 0
M  V30 30 C 1.893205 -5.708522 -0.716224 0
M  V30 31 C 0.881447 -4.570585 -0.666785 0
M  V30 32 C -0.045119 -1.979856 -1.778639 0
M  V30 33 N 0.655226 -1.518174 -0.727148 0
M  V30 34 C 2.725343 0.219613 2.656168 0
M  V30 35 C 3.421719 -0.785328 3.522887 0
M  V30 36 H 2.369655 -3.567425 2.503120 0
M  V30 37 H 2.383776 -2.909439 4.126385 0
M  V30 38 H 4.788421 -2.345920 3.324231 0
M  V30 39 H 5.080650 -1.990981 1.105101 0
M  V30 40 H 3.635169 -3.022071 0.997190 0
M  V30 41 H 3.970271 -0.099386 0.579574 0
M  V30 42 H 2.980714 -1.216955 -0.356107 0
M  V30 43 H 1.572939 -1.376884 1.913862 0
M  V30 44 H 1.015714 1.249546 1.103728 0
M  V30 45 H -2.596735 0.600510 -3.450909 0
M  V30 46 H -3.071600 2.827998 -3.017716 0
M  V30 47 H -1.416313 2.976211 -2.437436 0
M  V30 48 H -1.149404 2.956408 0.139681 0
M  V30 49 H -2.228141 3.286037 2.280565 0
M  V30 50 H -3.231995 3.565363 4.119001 0
M  V30 51 H -4.996521 3.800506 6.008977 0
M  V30 52 H -7.404681 3.403562 4.844378 0
M  V30 53 H -6.031527 2.660144 0.455498 0
M  V30 54 H -4.937593 2.333695 -1.655674 0
M  V30 55 H -1.237033 -3.908592 -4.147632 0
M  V30 56 H 0.248172 -5.235252 -2.606483 0
M  V30 57 H 2.544953 -3.292802 -2.247800 0
M  V30 58 H 2.180041 -4.325050 -3.737120 0
M  V30 59 H 3.771566 -5.193997 -1.704047 0
M  V30 60 H 2.701310 -6.290790 -2.666618 0
M  V30 61 H 2.552871 -5.626672 0.168391 0
M  V30 62 H 1.416952 -6.694489 -0.831564 0
M  V30 63 H -0.027883 -4.848708 -0.118464 0
M  V30 64 H 1.424297 -3.716039 -0.232429 0
M  V30 65 H 1.940050 0.774600 3.238916 0
M  V30 66 H 3.447898 0.981733 2.301766 0
M  V30 67 H 2.705705 -1.038781 4.353323 0
M  V30 68 H 4.256870 -0.267721 4.039511 0
M  V30 END ATOM
M  V30 BEGIN BOND
M  V30 1 1 1 2
M  V30 2 1 2 3
M  V30 3 1 3 4
M  V30 4 1 4 5
M  V30 5 1 5 6
M  V30 6 1 6 7
M  V30 7 2 7 8
M  V30 8 1 8 9
M  V30 9 1 9 10
M  V30 10 1 10 11
M  V30 11 1 11 12
M  V30 12 2 12 13
M  V30 13 1 13 14
M  V30 14 2 14 15
M  V30 15 1 15 16
M  V30 16 2 16 17
M  V30 17 1 17 18
M  V30 18 2 18 19
M  V30 19 1 19 20
M  V30 20 1 15 21
M  V30 21 2 21 22
M  V30 22 2 9 23
M  V30 23 1 23 24
M  V30 24 2 24 25
M  V30 25 1 25 26
M  V30 26 1 26 27
M  V30 27 1 27 28
M  V30 28 1 28 29
M  V30 29 1 29 30
M  V30 30 1 30 31
M  V30 31 1 26 32
M  V30 32 2 32 33
M  V30 33 1 5 34
M  V30 34 1 34 35
M  V30 35 1 35 2
M  V30 36 1 33 7
M  V30 37 1 22 12
M  V30 38 1 32 23
M  V30 39 1 20 16
M  V30 40 1 31 27
M  V30 41 1 1 36
M  V30 42 1 1 37
M  V30 43 1 2 38
M  V30 44 1 3 39
M  V30 45 1 3 40
M  V30 46 1 4 41
M  V30 47 1 4 42
M  V30 48 1 5 43
M  V30 49 1 6 44
M  V30 50 1 10 45
M  V30 51 1 11 46
M  V30 52 1 11 47
M  V30 53 1 13 48
M  V30 54 1 14 49
M  V30 55 1 17 50
M  V30 56 1 18 51
M  V30 57 1 19 52
M  V30 58 1 21 53
M  V30 59 1 22 54
M  V30 60 1 25 55
M  V30 61 1 27 56
M  V30 62 1 28 57
M  V30 63 1 28 58
M  V30 64 1 29 59
M  V30 65 1 29 60
M  V30 66 1 30 61
M  V30 67 1 30 62
M  V30 68 1 31 63
M  V30 69 1 31 64
M  V30 70 1 34 65
M  V30 71 1 34 66
M  V30 72 1 35 67
M  V30 73 1 35 68
M  V30 END BOND
M  V30 END CTAB
M  END
>  <Dataset>  (117) 
ChEMBL_Kinases

>  <Ligand_Instance>  (117) 
nan

>  <PDB_ID>  (117) 
nan

>  <Standardized_SMILES>  (117) 
NC1CCC(Nc2nc(NCc3ccc(-c4ccco4)cc3)c3ncn(C4CCCC4)c3n2)CC1

>  <Name>  (117) 
nan

>  <Pocket>  (117) 
nan

>  <ATP_Site>  (117) 
nan

>  <Peripheral>  (117) 
nan

>  <Num_H_Atoms_ProtBoundConf>  (117) 
nan

>  <Num_Resolved_Atoms>  (117) 
nan

>  <Num_Not_Resolved_Atoms>  (117) 
nan

$$$$
CHEMBL2403074
     RDKit          3D

  0  0  0  0  0  0  0  0  0  0999 V3000
M  V30 BEGIN CTAB
M  V30 COUNTS 59 63 0 0 0
M  V30 BEGIN ATOM
M  V30 1 C 4.707200 -4.237765 3.000208 0
M  V30 2 N 5.364772 -3.005544 2.612048 0
M  V30 3 C 5.617060 -3.093231 1.176696 0
M  V30 4 C 5.093289 -1.869523 0.467106 0
M  V30 5 N 3.661451 -1.725779 0.635451 0
M  V30 6 C 2.571537 -1.266119 -0.147316 0
M  V30 7 C 2.065506 -0.101458 0.445212 0
M  V30 8 C 0.994281 0.627996 -0.092283 0
M  V30 9 C 0.456933 0.123205 -1.261860 0
M  V30 10 N -0.634908 0.782388 -1.894727 0
M  V30 11 C -1.344000 1.872332 -1.276148 0
M  V30 12 N -1.053650 3.157088 -1.155358 0
M  V30 13 C -1.928006 3.966390 -0.526496 0
M  V30 14 C -3.122274 3.519315 0.003277 0
M  V30 15 Cl -4.248975 4.603837 0.821347 0
M  V30 16 C -3.412794 2.178241 -0.130365 0
M  V30 17 C -4.675899 1.612192 0.386919 0
M  V30 18 C -5.230457 0.812010 -0.617023 0
M  V30 19 C -6.439299 0.150897 -0.384250 0
M  V30 20 C -7.061647 0.305406 0.842289 0
M  V30 21 C -6.480459 1.108630 1.816244 0
M  V30 22 C -7.106320 1.299405 3.150105 0
M  V30 23 C -6.613575 0.247246 4.073059 0
M  V30 24 N -6.239534 -0.558705 4.804393 0
M  V30 25 C -5.290285 1.769313 1.608629 0
M  V30 26 N -2.513886 1.409642 -0.763409 0
M  V30 27 C 0.934430 -1.018603 -1.864145 0
M  V30 28 C 1.983813 -1.706349 -1.307850 0
M  V30 29 C 2.556058 -2.933208 -1.825940 0
M  V30 30 N 3.494429 -3.802324 -1.486716 0
M  V30 31 C 3.620674 -4.804984 -2.359891 0
M  V30 32 C 2.674570 -4.511725 -3.306270 0
M  V30 33 O 2.082389 -3.412098 -2.948344 0
M  V30 34 C 3.237412 -2.170618 1.972682 0
M  V30 35 C 4.426094 -1.922741 2.885694 0
M  V30 36 H 4.264037 -4.780138 2.117527 0
M  V30 37 H 5.440421 -4.909479 3.519667 0
M  V30 38 H 3.852254 -4.086532 3.694466 0
M  V30 39 H 5.148073 -3.981311 0.727976 0
M  V30 40 H 6.712889 -3.120758 1.044665 0
M  V30 41 H 5.310787 -1.955743 -0.602891 0
M  V30 42 H 5.637543 -0.955030 0.805710 0
M  V30 43 H 2.413415 0.388669 1.371868 0
M  V30 44 H 0.587656 1.524463 0.341962 0
M  V30 45 H -0.978452 0.511796 -2.840985 0
M  V30 46 H -1.676894 4.998757 -0.439043 0
M  V30 47 H -4.868888 0.600847 -1.599559 0
M  V30 48 H -6.977880 -0.491434 -1.060377 0
M  V30 49 H -8.005634 -0.172079 1.106248 0
M  V30 50 H -6.929893 2.289479 3.582883 0
M  V30 51 H -8.202353 1.139770 3.068552 0
M  V30 52 H -4.740912 2.405278 2.255803 0
M  V30 53 H 0.536262 -1.432569 -2.773629 0
M  V30 54 H 4.272222 -5.656990 -2.382573 0
M  V30 55 H 2.397618 -5.049149 -4.231247 0
M  V30 56 H 2.960330 -3.226339 1.966396 0
M  V30 57 H 2.406311 -1.511244 2.351147 0
M  V30 58 H 4.097423 -2.027715 3.938059 0
M  V30 59 H 4.866605 -0.922246 2.693955 0
M  V30 END ATOM
M  V30 BEGIN BOND
M  V30 1 1 1 2
M  V30 2 1 2 3
M  V30 3 1 3 4
M  V30 4 1 4 5
M  V30 5 1 5 6
M  V30 6 2 6 7
M  V30 7 1 7 8
M  V30 8 2 8 9
M  V30 9 1 9 10
M  V30 10 1 10 11
M  V30 11 2 11 12
M  V30 12 1 12 13
M  V30 13 2 13 14
M  V30 14 1 14 15
M  V30 15 1 14 16
M  V30 16 1 16 17
M  V30 17 2 17 18
M  V30 18 1 18 19
M  V30 19 2 19 20
M  V30 20 1 20 21
M  V30 21 1 21 22
M  V30 22 1 22 23
M  V30 23 3 23 24
M  V30 24 2 21 25
M  V30 25 2 16 26
M  V30 26 1 9 27
M  V30 27 2 27 28
M  V30 28 1 28 29
M  V30 29 2 29 30
M  V30 30 1 30 31
M  V30 31 2 31 32
M  V30 32 1 32 33
M  V30 33 1 5 34
M  V30 34 1 34 35
M  V30 35 1 35 2
M  V30 36 1 28 6
M  V30 37 1 33 29
M  V30 38 1 26 11
M  V30 39 1 25 17
M  V30 40 1 1 36
M  V30 41 1 1 37
M  V30 42 1 1 38
M  V30 43 1 3 39
M  V30 44 1 3 40
M  V30 45 1 4 41
M  V30 46 1 4 42
M  V30 47 1 7 43
M  V30 48 1 8 44
M  V30 49 1 10 45
M  V30 50 1 13 46
M  V30 51 1 18 47
M  V30 52 1 19 48
M  V30 53 1 20 49
M  V30 54 1 22 50
M  V30 55 1 22 51
M  V30 56 1 25 52
M  V30 57 1 27 53
M  V30 58 1 31 54
M  V30 59 1 32 55
M  V30 60 1 34 56
M  V30 61 1 34 57
M  V30 62 1 35 58
M  V30 63 1 35 59
M  V30 END BOND
M  V30 END CTAB
M  END
>  <Dataset>  (118) 
ChEMBL_Kinases

>  <Ligand_Instance>  (118) 
nan

>  <PDB_ID>  (118) 
nan

>  <Standardized_SMILES>  (118) 
CN1CCN(c2ccc(Nc3ncc(Cl)c(-c4cccc(CC#N)c4)n3)cc2-c2ncco2)CC1

>  <Name>  (118) 
nan

>  <Pocket>  (118) 
nan

>  <ATP_Site>  (118) 
nan

>  <Peripheral>  (118) 
nan

>  <Num_H_Atoms_ProtBoundConf>  (118) 
nan

>  <Num_Resolved_Atoms>  (118) 
nan

>  <Num_Not_Resolved_Atoms>  (118) 
nan

$$$$
CHEMBL2403075
     RDKit          3D

  0  0  0  0  0  0  0  0  0  0999 V3000
M  V30 BEGIN CTAB
M  V30 COUNTS 62 66 0 0 0
M  V30 BEGIN ATOM
M  V30 1 C 0.427146 4.002392 -1.134194 0
M  V30 2 C -0.508802 2.895727 -1.472812 0
M  V30 3 C -1.762642 3.055126 -1.998322 0
M  V30 4 N -2.249619 1.822351 -2.146044 0
M  V30 5 C -1.361388 0.911635 -1.737848 0
M  V30 6 C -1.348689 -0.538488 -1.667152 0
M  V30 7 C -0.258742 -1.224810 -1.190056 0
M  V30 8 C -0.275756 -2.601398 -1.132564 0
M  V30 9 N 0.814897 -3.364920 -0.638726 0
M  V30 10 C 2.016377 -2.947465 -0.007988 0
M  V30 11 N 2.940317 -3.814605 0.357432 0
M  V30 12 C 4.077769 -3.447156 0.962932 0
M  V30 13 C 4.364347 -2.139375 1.248621 0
M  V30 14 Cl 5.884128 -1.851299 2.026770 0
M  V30 15 C 3.413041 -1.231776 0.874993 0
M  V30 16 C 3.711608 0.165362 1.173044 0
M  V30 17 C 3.580527 1.219297 0.284876 0
M  V30 18 C 3.899285 2.501053 0.741843 0
M  V30 19 C 4.333898 2.785171 2.012155 0
M  V30 20 C 4.469145 1.742330 2.909109 0
M  V30 21 C 4.930909 1.946307 4.321217 0
M  V30 22 C 3.745346 2.193706 5.168059 0
M  V30 23 N 2.818670 2.367469 5.827579 0
M  V30 24 C 4.153043 0.469108 2.457118 0
M  V30 25 N 2.322596 -1.681059 0.282974 0
M  V30 26 C -1.403808 -3.266266 -1.562239 0
M  V30 27 C -2.493870 -2.573105 -2.039879 0
M  V30 28 C -2.475917 -1.189493 -2.097610 0
M  V30 29 N -3.665875 -0.632632 -2.624074 0
M  V30 30 C -4.104818 0.117699 -3.756786 0
M  V30 31 C -5.194143 -0.616606 -4.531291 0
M  V30 32 N -6.197138 -1.189038 -3.662658 0
M  V30 33 C -7.494749 -0.955187 -4.237103 0
M  V30 34 C -6.113165 -0.560660 -2.377443 0
M  V30 35 C -4.791655 -0.900077 -1.750190 0
M  V30 36 O -0.332208 1.623793 -1.343502 0
M  V30 37 H 1.346343 3.547954 -0.720595 0
M  V30 38 H 0.736350 4.566508 -2.039568 0
M  V30 39 H -0.028290 4.724752 -0.421406 0
M  V30 40 H -2.275535 3.969234 -2.252719 0
M  V30 41 H 0.590607 -0.656934 -0.871355 0
M  V30 42 H 0.739505 -4.423367 -0.752241 0
M  V30 43 H 4.736052 -4.296243 1.197580 0
M  V30 44 H 3.239207 0.987625 -0.704958 0
M  V30 45 H 3.798102 3.321613 0.044911 0
M  V30 46 H 4.566550 3.770778 2.331722 0
M  V30 47 H 5.476003 1.037809 4.608425 0
M  V30 48 H 5.583197 2.841199 4.382648 0
M  V30 49 H 4.275373 -0.321828 3.211724 0
M  V30 50 H -1.447146 -4.349662 -1.527023 0
M  V30 51 H -3.345803 -3.171579 -2.361081 0
M  V30 52 H -4.594246 1.049334 -3.393751 0
M  V30 53 H -3.305212 0.367079 -4.470104 0
M  V30 54 H -5.699549 0.057679 -5.243324 0
M  V30 55 H -4.734633 -1.451107 -5.124083 0
M  V30 56 H -8.108429 -0.357960 -3.556906 0
M  V30 57 H -7.429293 -0.412429 -5.216381 0
M  V30 58 H -8.055749 -1.910898 -4.393807 0
M  V30 59 H -6.892872 -0.986176 -1.696577 0
M  V30 60 H -6.290642 0.544974 -2.402493 0
M  V30 61 H -4.810910 -2.006695 -1.554381 0
M  V30 62 H -4.650338 -0.432956 -0.745978 0
M  V30 END ATOM
M  V30 BEGIN BOND
M  V30 1 1 1 2
M  V30 2 2 2 3
M  V30 3 1 3 4
M  V30 4 2 4 5
M  V30 5 1 5 6
M  V30 6 2 6 7
M  V30 7 1 7 8
M  V30 8 1 8 9
M  V30 9 1 9 10
M  V30 10 2 10 11
M  V30 11 1 11 12
M  V30 12 2 12 13
M  V30 13 1 13 14
M  V30 14 1 13 15
M  V30 15 1 15 16
M  V30 16 2 16 17
M  V30 17 1 17 18
M  V30 18 2 18 19
M  V30 19 1 19 20
M  V30 20 1 20 21
M  V30 21 1 21 22
M  V30 22 3 22 23
M  V30 23 2 20 24
M  V30 24 2 15 25
M  V30 25 2 8 26
M  V30 26 1 26 27
M  V30 27 2 27 28
M  V30 28 1 28 29
M  V30 29 1 29 30
M  V30 30 1 30 31
M  V30 31 1 31 32
M  V30 32 1 32 33
M  V30 33 1 32 34
M  V30 34 1 34 35
M  V30 35 1 5 36
M  V30 36 1 36 2
M  V30 37 1 28 6
M  V30 38 1 35 29
M  V30 39 1 25 10
M  V30 40 1 24 16
M  V30 41 1 1 37
M  V30 42 1 1 38
M  V30 43 1 1 39
M  V30 44 1 3 40
M  V30 45 1 7 41
M  V30 46 1 9 42
M  V30 47 1 12 43
M  V30 48 1 17 44
M  V30 49 1 18 45
M  V30 50 1 19 46
M  V30 51 1 21 47
M  V30 52 1 21 48
M  V30 53 1 24 49
M  V30 54 1 26 50
M  V30 55 1 27 51
M  V30 56 1 30 52
M  V30 57 1 30 53
M  V30 58 1 31 54
M  V30 59 1 31 55
M  V30 60 1 33 56
M  V30 61 1 33 57
M  V30 62 1 33 58
M  V30 63 1 34 59
M  V30 64 1 34 60
M  V30 65 1 35 61
M  V30 66 1 35 62
M  V30 END BOND
M  V30 END CTAB
M  END
>  <Dataset>  (119) 
ChEMBL_Kinases

>  <Ligand_Instance>  (119) 
nan

>  <PDB_ID>  (119) 
nan

>  <Standardized_SMILES>  (119) 
Cc1cnc(-c2cc(Nc3ncc(Cl)c(-c4cccc(CC#N)c4)n3)ccc2N2CCN(C)CC2)o1

>  <Name>  (119) 
nan

>  <Pocket>  (119) 
nan

>  <ATP_Site>  (119) 
nan

>  <Peripheral>  (119) 
nan

>  <Num_H_Atoms_ProtBoundConf>  (119) 
nan

>  <Num_Resolved_Atoms>  (119) 
nan

>  <Num_Not_Resolved_Atoms>  (119) 
nan

$$$$
CHEMBL2403076
     RDKit          3D

  0  0  0  0  0  0  0  0  0  0999 V3000
M  V30 BEGIN CTAB
M  V30 COUNTS 61 65 0 0 0
M  V30 BEGIN ATOM
M  V30 1 C 4.317322 -5.557693 4.688702 0
M  V30 2 C 3.330045 -4.927026 3.781260 0
M  V30 3 N 2.273118 -5.718801 3.442478 0
M  V30 4 N 1.481717 -5.038319 2.639987 0
M  V30 5 C 1.992433 -3.836724 2.451115 0
M  V30 6 C 1.585960 -2.673225 1.689193 0
M  V30 7 C 2.327651 -1.517114 1.686995 0
M  V30 8 C 1.941516 -0.388633 0.973091 0
M  V30 9 N 2.756210 0.769552 1.004359 0
M  V30 10 C 2.454928 2.062755 0.498296 0
M  V30 11 N 3.388611 3.038745 0.578921 0
M  V30 12 C 3.145886 4.275890 0.128211 0
M  V30 13 C 1.956495 4.619325 -0.430405 0
M  V30 14 Cl 1.534086 6.213960 -1.052301 0
M  V30 15 C 0.994677 3.649517 -0.522841 0
M  V30 16 C -0.347944 3.872241 -1.099380 0
M  V30 17 C -0.681394 4.545740 -2.269280 0
M  V30 18 C -1.997318 4.636819 -2.617508 0
M  V30 19 C -3.037833 4.110520 -1.897984 0
M  V30 20 C -2.727518 3.431631 -0.722945 0
M  V30 21 C -3.766766 2.804559 0.167450 0
M  V30 22 C -4.220703 3.751248 1.193398 0
M  V30 23 N -4.559868 4.495750 2.006787 0
M  V30 24 C -1.382174 3.327656 -0.348817 0
M  V30 25 N 1.317023 2.441239 -0.050462 0
M  V30 26 C 0.767595 -0.494321 0.262443 0
M  V30 27 C 0.006996 -1.661603 0.255900 0
M  V30 28 C 0.412785 -2.764010 0.972500 0
M  V30 29 N -0.454624 -3.884981 0.858064 0
M  V30 30 C -0.288023 -5.216713 0.311606 0
M  V30 31 C -1.254528 -5.335088 -0.870937 0
M  V30 32 N -2.015825 -4.142357 -0.981736 0
M  V30 33 C -2.546769 -3.813458 -2.252257 0
M  V30 34 C -2.743844 -3.740813 0.165744 0
M  V30 35 C -1.808083 -3.740810 1.368232 0
M  V30 36 O 3.091544 -3.809643 3.146685 0
M  V30 37 H 4.664509 -6.527637 4.271828 0
M  V30 38 H 3.812823 -5.711073 5.681251 0
M  V30 39 H 5.155551 -4.846515 4.848237 0
M  V30 40 H 3.242385 -1.473373 2.254356 0
M  V30 41 H 3.713304 0.660657 1.459891 0
M  V30 42 H 3.897890 5.053689 0.194281 0
M  V30 43 H 0.167188 4.935850 -2.790578 0
M  V30 44 H -2.224591 5.164876 -3.529191 0
M  V30 45 H -4.077439 4.190398 -2.184901 0
M  V30 46 H -3.341953 1.928280 0.688453 0
M  V30 47 H -4.629609 2.433427 -0.434438 0
M  V30 48 H -1.188382 2.787083 0.577950 0
M  V30 49 H 0.404827 0.333500 -0.315942 0
M  V30 50 H -0.916316 -1.649935 -0.340502 0
M  V30 51 H -0.612325 -5.974939 1.061584 0
M  V30 52 H 0.747837 -5.448930 -0.003072 0
M  V30 53 H -1.863233 -6.264148 -0.798452 0
M  V30 54 H -0.620697 -5.425516 -1.782564 0
M  V30 55 H -2.274522 -2.757244 -2.471247 0
M  V30 56 H -1.973303 -4.416975 -3.016932 0
M  V30 57 H -3.602695 -4.033657 -2.414313 0
M  V30 58 H -3.051523 -2.662565 0.020952 0
M  V30 59 H -3.669719 -4.323280 0.349619 0
M  V30 60 H -1.921936 -2.800796 1.962407 0
M  V30 61 H -2.109269 -4.617607 1.992194 0
M  V30 END ATOM
M  V30 BEGIN BOND
M  V30 1 1 1 2
M  V30 2 2 2 3
M  V30 3 1 3 4
M  V30 4 2 4 5
M  V30 5 1 5 6
M  V30 6 2 6 7
M  V30 7 1 7 8
M  V30 8 1 8 9
M  V30 9 1 9 10
M  V30 10 2 10 11
M  V30 11 1 11 12
M  V30 12 2 12 13
M  V30 13 1 13 14
M  V30 14 1 13 15
M  V30 15 1 15 16
M  V30 16 2 16 17
M  V30 17 1 17 18
M  V30 18 2 18 19
M  V30 19 1 19 20
M  V30 20 1 20 21
M  V30 21 1 21 22
M  V30 22 3 22 23
M  V30 23 2 20 24
M  V30 24 2 15 25
M  V30 25 2 8 26
M  V30 26 1 26 27
M  V30 27 2 27 28
M  V30 28 1 28 29
M  V30 29 1 29 30
M  V30 30 1 30 31
M  V30 31 1 31 32
M  V30 32 1 32 33
M  V30 33 1 32 34
M  V30 34 1 34 35
M  V30 35 1 5 36
M  V30 36 1 36 2
M  V30 37 1 28 6
M  V30 38 1 35 29
M  V30 39 1 25 10
M  V30 40 1 24 16
M  V30 41 1 1 37
M  V30 42 1 1 38
M  V30 43 1 1 39
M  V30 44 1 7 40
M  V30 45 1 9 41
M  V30 46 1 12 42
M  V30 47 1 17 43
M  V30 48 1 18 44
M  V30 49 1 19 45
M  V30 50 1 21 46
M  V30 51 1 21 47
M  V30 52 1 24 48
M  V30 53 1 26 49
M  V30 54 1 27 50
M  V30 55 1 30 51
M  V30 56 1 30 52
M  V30 57 1 31 53
M  V30 58 1 31 54
M  V30 59 1 33 55
M  V30 60 1 33 56
M  V30 61 1 33 57
M  V30 62 1 34 58
M  V30 63 1 34 59
M  V30 64 1 35 60
M  V30 65 1 35 61
M  V30 END BOND
M  V30 END CTAB
M  END
>  <Dataset>  (120) 
ChEMBL_Kinases

>  <Ligand_Instance>  (120) 
nan

>  <PDB_ID>  (120) 
nan

>  <Standardized_SMILES>  (120) 
Cc1nnc(-c2cc(Nc3ncc(Cl)c(-c4cccc(CC#N)c4)n3)ccc2N2CCN(C)CC2)o1

>  <Name>  (120) 
nan

>  <Pocket>  (120) 
nan

>  <ATP_Site>  (120) 
nan

>  <Peripheral>  (120) 
nan

>  <Num_H_Atoms_ProtBoundConf>  (120) 
nan

>  <Num_Resolved_Atoms>  (120) 
nan

>  <Num_Not_Resolved_Atoms>  (120) 
nan

$$$$
CHEMBL2403077
     RDKit          3D

  0  0  0  0  0  0  0  0  0  0999 V3000
M  V30 BEGIN CTAB
M  V30 COUNTS 60 63 0 0 0
M  V30 BEGIN ATOM
M  V30 1 C 2.202429 -1.791958 -0.229808 0
M  V30 2 O 1.038078 -2.534195 0.005524 0
M  V30 3 C 0.150512 -2.347567 1.026827 0
M  V30 4 C 0.253415 -1.386288 2.008246 0
M  V30 5 C -0.683023 -1.238806 3.030466 0
M  V30 6 N -0.482497 -0.203237 4.005570 0
M  V30 7 C 0.678824 0.607870 3.851596 0
M  V30 8 N 1.878409 0.336290 4.402177 0
M  V30 9 C 2.950574 1.131054 4.230534 0
M  V30 10 C 2.843275 2.283582 3.459495 0
M  V30 11 Cl 4.198142 3.362113 3.195114 0
M  V30 12 C 1.605431 2.581163 2.880262 0
M  V30 13 C 1.397937 3.774235 2.051679 0
M  V30 14 C 1.819010 5.062868 2.307340 0
M  V30 15 C 1.525265 6.058803 1.400518 0
M  V30 16 C 0.817576 5.787493 0.242524 0
M  V30 17 C 0.379755 4.491852 -0.040312 0
M  V30 18 C -0.385887 4.176296 -1.284649 0
M  V30 19 C -1.815559 4.301266 -1.120609 0
M  V30 20 N -2.967991 4.390710 -0.972644 0
M  V30 21 C 0.686637 3.502906 0.887258 0
M  V30 22 N 0.597235 1.719071 3.115074 0
M  V30 23 C -1.731662 -2.104415 3.021814 0
M  V30 24 C -1.869542 -3.084733 2.051111 0
M  V30 25 C -0.925126 -3.216183 1.039521 0
M  V30 26 N -1.212896 -4.268902 0.124904 0
M  V30 27 C -0.447108 -5.451000 -0.218243 0
M  V30 28 C -0.071557 -5.346190 -1.658806 0
M  V30 29 N -1.116603 -5.055799 -2.569091 0
M  V30 30 C -1.438563 -6.058357 -3.526854 0
M  V30 31 C -2.166652 -4.212466 -2.135214 0
M  V30 32 C -1.915576 -2.737167 -2.471536 0
M  V30 33 C -2.456071 -4.277363 -0.661736 0
M  V30 34 H 2.015126 -0.714488 -0.326655 0
M  V30 35 H 2.990250 -1.958559 0.523499 0
M  V30 36 H 2.624122 -2.187020 -1.196436 0
M  V30 37 H 1.112827 -0.739836 1.944880 0
M  V30 38 H -1.207045 -0.146883 4.730704 0
M  V30 39 H 3.903011 0.891283 4.683130 0
M  V30 40 H 2.361079 5.155202 3.238709 0
M  V30 41 H 1.878326 7.047201 1.650307 0
M  V30 42 H 0.594211 6.582160 -0.461395 0
M  V30 43 H -0.178067 3.104691 -1.527699 0
M  V30 44 H -0.005101 4.744039 -2.154849 0
M  V30 45 H 0.317351 2.503153 0.612911 0
M  V30 46 H -2.467268 -2.007074 3.804118 0
M  V30 47 H -2.756380 -3.729055 2.141958 0
M  V30 48 H -1.099255 -6.338982 -0.004549 0
M  V30 49 H 0.486851 -5.533505 0.367880 0
M  V30 50 H 0.352730 -6.348747 -1.944768 0
M  V30 51 H 0.756321 -4.624665 -1.758672 0
M  V30 52 H -1.092235 -7.052626 -3.152656 0
M  V30 53 H -2.500817 -6.134995 -3.807371 0
M  V30 54 H -0.862007 -5.920184 -4.487258 0
M  V30 55 H -3.098029 -4.497632 -2.672365 0
M  V30 56 H -2.419247 -2.435846 -3.404330 0
M  V30 57 H -0.824962 -2.597465 -2.611410 0
M  V30 58 H -2.240871 -2.073612 -1.640888 0
M  V30 59 H -2.989767 -5.208080 -0.361419 0
M  V30 60 H -3.030673 -3.376382 -0.368562 0
M  V30 END ATOM
M  V30 BEGIN BOND
M  V30 1 1 1 2
M  V30 2 1 2 3
M  V30 3 2 3 4
M  V30 4 1 4 5
M  V30 5 1 5 6
M  V30 6 1 6 7
M  V30 7 2 7 8
M  V30 8 1 8 9
M  V30 9 2 9 10
M  V30 10 1 10 11
M  V30 11 1 10 12
M  V30 12 1 12 13
M  V30 13 2 13 14
M  V30 14 1 14 15
M  V30 15 2 15 16
M  V30 16 1 16 17
M  V30 17 1 17 18
M  V30 18 1 18 19
M  V30 19 3 19 20
M  V30 20 2 17 21
M  V30 21 2 12 22
M  V30 22 2 5 23
M  V30 23 1 23 24
M  V30 24 2 24 25
M  V30 25 1 25 26
M  V30 26 1 26 27
M  V30 27 1 27 28
M  V30 28 1 28 29
M  V30 29 1 29 30
M  V30 30 1 29 31
M  V30 31 1 31 32
M  V30 32 1 31 33
M  V30 33 1 25 3
M  V30 34 1 33 26
M  V30 35 1 22 7
M  V30 36 1 21 13
M  V30 37 1 1 34
M  V30 38 1 1 35
M  V30 39 1 1 36
M  V30 40 1 4 37
M  V30 41 1 6 38
M  V30 42 1 9 39
M  V30 43 1 14 40
M  V30 44 1 15 41
M  V30 45 1 16 42
M  V30 46 1 18 43
M  V30 47 1 18 44
M  V30 48 1 21 45
M  V30 49 1 23 46
M  V30 50 1 24 47
M  V30 51 1 27 48
M  V30 52 1 27 49
M  V30 53 1 28 50
M  V30 54 1 28 51
M  V30 55 1 30 52
M  V30 56 1 30 53
M  V30 57 1 30 54
M  V30 58 1 31 55
M  V30 59 1 32 56
M  V30 60 1 32 57
M  V30 61 1 32 58
M  V30 62 1 33 59
M  V30 63 1 33 60
M  V30 END BOND
M  V30 END CTAB
M  END
>  <Dataset>  (121) 
ChEMBL_Kinases

>  <Ligand_Instance>  (121) 
nan

>  <PDB_ID>  (121) 
nan

>  <Standardized_SMILES>  (121) 
COc1cc(Nc2ncc(Cl)c(-c3cccc(CC#N)c3)n2)ccc1N1CCN(C)C(C)C1

>  <Name>  (121) 
nan

>  <Pocket>  (121) 
nan

>  <ATP_Site>  (121) 
nan

>  <Peripheral>  (121) 
nan

>  <Num_H_Atoms_ProtBoundConf>  (121) 
nan

>  <Num_Resolved_Atoms>  (121) 
nan

>  <Num_Not_Resolved_Atoms>  (121) 
nan

$$$$
CHEMBL2403078
     RDKit          3D

  0  0  0  0  0  0  0  0  0  0999 V3000
M  V30 BEGIN CTAB
M  V30 COUNTS 60 63 0 0 0
M  V30 BEGIN ATOM
M  V30 1 C 2.205575 -1.849501 -0.165264 0
M  V30 2 O 1.019403 -2.548829 0.071282 0
M  V30 3 C 0.113620 -2.326931 1.069953 0
M  V30 4 C 0.227839 -1.347817 2.033877 0
M  V30 5 C -0.727768 -1.162768 3.034395 0
M  V30 6 N -0.536363 -0.116535 4.006335 0
M  V30 7 C 0.646720 0.662224 3.858815 0
M  V30 8 N 1.820338 0.358089 4.440946 0
M  V30 9 C 2.923849 1.137358 4.267539 0
M  V30 10 C 2.827927 2.264476 3.474142 0
M  V30 11 Br 4.319894 3.419412 3.171098 0
M  V30 12 C 1.624025 2.593459 2.865488 0
M  V30 13 C 1.420015 3.767927 2.005377 0
M  V30 14 C 1.835377 5.061574 2.216108 0
M  V30 15 C 1.536404 6.024428 1.272616 0
M  V30 16 C 0.831766 5.719950 0.124935 0
M  V30 17 C 0.397079 4.417216 -0.116966 0
M  V30 18 C -0.363837 4.066279 -1.347027 0
M  V30 19 C -1.797003 4.202896 -1.164193 0
M  V30 20 N -2.929559 4.325301 -1.014456 0
M  V30 21 C 0.706414 3.452533 0.846040 0
M  V30 22 N 0.603942 1.754431 3.106083 0
M  V30 23 C -1.802751 -1.995055 3.033946 0
M  V30 24 C -1.958702 -2.998938 2.078166 0
M  V30 25 C -0.985439 -3.160614 1.088155 0
M  V30 26 N -1.271135 -4.232797 0.167104 0
M  V30 27 C -0.492382 -5.421302 -0.117479 0
M  V30 28 C -0.052820 -5.358683 -1.542434 0
M  V30 29 N -1.051297 -5.075249 -2.504033 0
M  V30 30 C -1.289649 -6.054067 -3.505635 0
M  V30 31 C -2.133570 -4.247302 -2.126460 0
M  V30 32 C -1.946549 -2.788630 -2.531058 0
M  V30 33 C -2.484915 -4.255802 -0.664418 0
M  V30 34 H 1.984234 -0.762979 -0.216720 0
M  V30 35 H 2.997726 -2.088301 0.578108 0
M  V30 36 H 2.595716 -2.213572 -1.159725 0
M  V30 37 H 1.109342 -0.726197 1.968375 0
M  V30 38 H -1.260553 -0.011205 4.726456 0
M  V30 39 H 3.868122 0.884543 4.741403 0
M  V30 40 H 2.375534 5.197439 3.136672 0
M  V30 41 H 1.884286 7.019570 1.486049 0
M  V30 42 H 0.602260 6.485909 -0.610553 0
M  V30 43 H -0.163815 2.966954 -1.503226 0
M  V30 44 H 0.026011 4.616010 -2.223132 0
M  V30 45 H 0.337881 2.444999 0.600420 0
M  V30 46 H -2.513515 -1.802144 3.837921 0
M  V30 47 H -2.843896 -3.627184 2.139585 0
M  V30 48 H -1.139458 -6.294524 0.081645 0
M  V30 49 H 0.413353 -5.491747 0.514428 0
M  V30 50 H 0.364497 -6.377931 -1.792596 0
M  V30 51 H 0.819713 -4.681762 -1.653406 0
M  V30 52 H -0.778379 -7.000126 -3.223671 0
M  V30 53 H -2.351389 -6.216151 -3.775697 0
M  V30 54 H -0.783385 -5.715738 -4.456739 0
M  V30 55 H -3.037916 -4.621561 -2.679208 0
M  V30 56 H -2.606768 -2.503753 -3.384143 0
M  V30 57 H -0.886428 -2.564562 -2.779538 0
M  V30 58 H -2.192678 -2.086539 -1.697872 0
M  V30 59 H -3.071060 -5.142173 -0.395491 0
M  V30 60 H -3.029206 -3.318971 -0.427451 0
M  V30 END ATOM
M  V30 BEGIN BOND
M  V30 1 1 1 2
M  V30 2 1 2 3
M  V30 3 2 3 4
M  V30 4 1 4 5
M  V30 5 1 5 6
M  V30 6 1 6 7
M  V30 7 2 7 8
M  V30 8 1 8 9
M  V30 9 2 9 10
M  V30 10 1 10 11
M  V30 11 1 10 12
M  V30 12 1 12 13
M  V30 13 2 13 14
M  V30 14 1 14 15
M  V30 15 2 15 16
M  V30 16 1 16 17
M  V30 17 1 17 18
M  V30 18 1 18 19
M  V30 19 3 19 20
M  V30 20 2 17 21
M  V30 21 2 12 22
M  V30 22 2 5 23
M  V30 23 1 23 24
M  V30 24 2 24 25
M  V30 25 1 25 26
M  V30 26 1 26 27
M  V30 27 1 27 28
M  V30 28 1 28 29
M  V30 29 1 29 30
M  V30 30 1 29 31
M  V30 31 1 31 32
M  V30 32 1 31 33
M  V30 33 1 25 3
M  V30 34 1 33 26
M  V30 35 1 22 7
M  V30 36 1 21 13
M  V30 37 1 1 34
M  V30 38 1 1 35
M  V30 39 1 1 36
M  V30 40 1 4 37
M  V30 41 1 6 38
M  V30 42 1 9 39
M  V30 43 1 14 40
M  V30 44 1 15 41
M  V30 45 1 16 42
M  V30 46 1 18 43
M  V30 47 1 18 44
M  V30 48 1 21 45
M  V30 49 1 23 46
M  V30 50 1 24 47
M  V30 51 1 27 48
M  V30 52 1 27 49
M  V30 53 1 28 50
M  V30 54 1 28 51
M  V30 55 1 30 52
M  V30 56 1 30 53
M  V30 57 1 30 54
M  V30 58 1 31 55
M  V30 59 1 32 56
M  V30 60 1 32 57
M  V30 61 1 32 58
M  V30 62 1 33 59
M  V30 63 1 33 60
M  V30 END BOND
M  V30 END CTAB
M  END
>  <Dataset>  (122) 
ChEMBL_Kinases

>  <Ligand_Instance>  (122) 
nan

>  <PDB_ID>  (122) 
nan

>  <Standardized_SMILES>  (122) 
COc1cc(Nc2ncc(Br)c(-c3cccc(CC#N)c3)n2)ccc1N1CCN(C)C(C)C1

>  <Name>  (122) 
nan

>  <Pocket>  (122) 
nan

>  <ATP_Site>  (122) 
nan

>  <Peripheral>  (122) 
nan

>  <Num_H_Atoms_ProtBoundConf>  (122) 
nan

>  <Num_Resolved_Atoms>  (122) 
nan

>  <Num_Not_Resolved_Atoms>  (122) 
nan

$$$$
CHEMBL2403079
     RDKit          3D

  0  0  0  0  0  0  0  0  0  0999 V3000
M  V30 BEGIN CTAB
M  V30 COUNTS 60 63 0 0 0
M  V30 BEGIN ATOM
M  V30 1 C 2.288727 -1.481739 -0.531266 0
M  V30 2 O 1.190065 -2.360071 -0.328043 0
M  V30 3 C 0.388033 -2.341360 0.776503 0
M  V30 4 C 0.538201 -1.470122 1.837122 0
M  V30 5 C -0.285565 -1.466847 2.948454 0
M  V30 6 N -0.073417 -0.540271 4.006637 0
M  V30 7 C 1.015019 0.372710 3.870381 0
M  V30 8 N 2.272359 0.099366 4.315304 0
M  V30 9 C 3.264340 1.022893 4.149504 0
M  V30 10 C 2.996408 2.242170 3.527967 0
M  V30 11 Br 4.314010 3.579243 3.256704 0
M  V30 12 C 1.702252 2.510213 3.076073 0
M  V30 13 C 1.286182 3.741469 2.410951 0
M  V30 14 C 1.608320 5.024506 2.801191 0
M  V30 15 C 1.168645 6.132736 2.108023 0
M  V30 16 C 0.376634 5.983058 0.979833 0
M  V30 17 C 0.028967 4.709936 0.552378 0
M  V30 18 C -0.820659 4.557282 -0.658272 0
M  V30 19 C -0.045203 4.457203 -1.873290 0
M  V30 20 N 0.590420 4.366937 -2.838086 0
M  V30 21 C 0.486407 3.628952 1.269545 0
M  V30 22 N 0.791842 1.539374 3.284149 0
M  V30 23 C -1.311099 -2.391921 2.985685 0
M  V30 24 C -1.475969 -3.275482 1.926907 0
M  V30 25 C -0.632836 -3.253306 0.826491 0
M  V30 26 N -0.950384 -4.225806 -0.155821 0
M  V30 27 C -0.175076 -5.305937 -0.679861 0
M  V30 28 C 0.034201 -5.054825 -2.151541 0
M  V30 29 N -1.224677 -4.928299 -2.815204 0
M  V30 30 C -1.876689 -6.155176 -3.134466 0
M  V30 31 C -2.039682 -3.915461 -2.232008 0 CFG=1
M  V30 32 C -3.345307 -3.721997 -2.915197 0
M  V30 33 C -2.295729 -4.133523 -0.754019 0
M  V30 34 H 1.878298 -0.519979 -0.921679 0
M  V30 35 H 2.885150 -1.311333 0.380508 0
M  V30 36 H 2.956274 -1.952409 -1.303436 0
M  V30 37 H 1.344995 -0.752311 1.793387 0
M  V30 38 H -0.727617 -0.578716 4.827927 0
M  V30 39 H 4.268368 0.839746 4.488821 0
M  V30 40 H 2.222737 5.121824 3.678046 0
M  V30 41 H 1.457919 7.116942 2.467866 0
M  V30 42 H 0.055348 6.881124 0.468305 0
M  V30 43 H -1.575778 5.389643 -0.695814 0
M  V30 44 H -1.430887 3.632854 -0.507779 0
M  V30 45 H 0.171000 2.663347 0.871216 0
M  V30 46 H -1.957277 -2.387068 3.860664 0
M  V30 47 H -2.312113 -3.968910 2.045632 0
M  V30 48 H -0.778388 -6.237758 -0.599121 0
M  V30 49 H 0.751158 -5.516451 -0.133680 0
M  V30 50 H 0.601872 -5.877557 -2.638350 0
M  V30 51 H 0.611554 -4.127904 -2.354667 0
M  V30 52 H -2.454782 -6.589432 -2.320119 0
M  V30 53 H -2.511241 -6.007757 -4.026448 0
M  V30 54 H -1.070555 -6.863814 -3.461580 0
M  V30 55 H -1.451671 -2.956229 -2.284333 0
M  V30 56 H -4.122855 -4.434420 -2.580688 0
M  V30 57 H -3.293250 -3.764563 -4.020595 0
M  V30 58 H -3.710890 -2.684886 -2.673331 0
M  V30 59 H -2.868026 -3.288775 -0.375573 0
M  V30 60 H -2.771405 -5.116075 -0.563039 0
M  V30 END ATOM
M  V30 BEGIN BOND
M  V30 1 1 1 2
M  V30 2 1 2 3
M  V30 3 2 3 4
M  V30 4 1 4 5
M  V30 5 1 5 6
M  V30 6 1 6 7
M  V30 7 2 7 8
M  V30 8 1 8 9
M  V30 9 2 9 10
M  V30 10 1 10 11
M  V30 11 1 10 12
M  V30 12 1 12 13
M  V30 13 2 13 14
M  V30 14 1 14 15
M  V30 15 2 15 16
M  V30 16 1 16 17
M  V30 17 1 17 18
M  V30 18 1 18 19
M  V30 19 3 19 20
M  V30 20 2 17 21
M  V30 21 2 12 22
M  V30 22 2 5 23
M  V30 23 1 23 24
M  V30 24 2 24 25
M  V30 25 1 25 26
M  V30 26 1 26 27
M  V30 27 1 27 28
M  V30 28 1 28 29
M  V30 29 1 29 30
M  V30 30 1 29 31
M  V30 31 1 31 32
M  V30 32 1 31 33
M  V30 33 1 25 3
M  V30 34 1 33 26
M  V30 35 1 22 7
M  V30 36 1 21 13
M  V30 37 1 1 34
M  V30 38 1 1 35
M  V30 39 1 1 36
M  V30 40 1 4 37
M  V30 41 1 6 38
M  V30 42 1 9 39
M  V30 43 1 14 40
M  V30 44 1 15 41
M  V30 45 1 16 42
M  V30 46 1 18 43
M  V30 47 1 18 44
M  V30 48 1 21 45
M  V30 49 1 23 46
M  V30 50 1 24 47
M  V30 51 1 27 48
M  V30 52 1 27 49
M  V30 53 1 28 50
M  V30 54 1 28 51
M  V30 55 1 30 52
M  V30 56 1 30 53
M  V30 57 1 30 54
M  V30 58 1 31 55 CFG=1
M  V30 59 1 32 56
M  V30 60 1 32 57
M  V30 61 1 32 58
M  V30 62 1 33 59
M  V30 63 1 33 60
M  V30 END BOND
M  V30 END CTAB
M  END
>  <Dataset>  (123) 
ChEMBL_Kinases

>  <Ligand_Instance>  (123) 
nan

>  <PDB_ID>  (123) 
nan

>  <Standardized_SMILES>  (123) 
COc1cc(Nc2ncc(Br)c(-c3cccc(CC#N)c3)n2)ccc1N1CCN(C)[C@@H](C)C1

>  <Name>  (123) 
nan

>  <Pocket>  (123) 
nan

>  <ATP_Site>  (123) 
nan

>  <Peripheral>  (123) 
nan

>  <Num_H_Atoms_ProtBoundConf>  (123) 
nan

>  <Num_Resolved_Atoms>  (123) 
nan

>  <Num_Not_Resolved_Atoms>  (123) 
nan

$$$$
CHEMBL2403080
     RDKit          3D

  0  0  0  0  0  0  0  0  0  0999 V3000
M  V30 BEGIN CTAB
M  V30 COUNTS 60 63 0 0 0
M  V30 BEGIN ATOM
M  V30 1 C 2.327910 -1.641281 -0.449453 0
M  V30 2 O 1.183430 -2.451003 -0.259796 0
M  V30 3 C 0.353050 -2.317478 0.826793 0
M  V30 4 C 0.467007 -1.427560 1.872933 0
M  V30 5 C -0.428714 -1.383724 2.913668 0
M  V30 6 N -0.210531 -0.425281 3.931292 0
M  V30 7 C 0.915699 0.439351 3.836411 0
M  V30 8 N 2.150794 0.220986 4.348001 0
M  V30 9 C 3.144738 1.113749 4.193931 0
M  V30 10 C 2.919939 2.288188 3.499960 0
M  V30 11 Br 4.288526 3.587942 3.251192 0
M  V30 12 C 1.655703 2.531718 2.965643 0
M  V30 13 C 1.324461 3.752886 2.210378 0
M  V30 14 C 1.633424 5.058202 2.513064 0
M  V30 15 C 1.233038 6.064349 1.674826 0
M  V30 16 C 0.519231 5.787691 0.522636 0
M  V30 17 C 0.185709 4.472421 0.180449 0
M  V30 18 C -0.585328 4.140860 -1.059738 0
M  V30 19 C -2.016151 4.126600 -0.859362 0
M  V30 20 N -3.152882 4.103493 -0.702456 0
M  V30 21 C 0.602900 3.457654 1.048289 0
M  V30 22 N 0.722682 1.588745 3.165898 0
M  V30 23 C -1.484275 -2.258146 2.921608 0
M  V30 24 C -1.619581 -3.158288 1.885376 0
M  V30 25 C -0.707563 -3.202011 0.826638 0
M  V30 26 N -1.049215 -4.203411 -0.121198 0
M  V30 27 C -0.332726 -5.368781 -0.605247 0
M  V30 28 C -0.258067 -5.417291 -2.112348 0
M  V30 29 N -1.456928 -5.017854 -2.779187 0
M  V30 30 C -2.330267 -6.111963 -3.069731 0
M  V30 31 C -2.126344 -3.880408 -2.226851 0 CFG=2
M  V30 32 C -1.299866 -2.623505 -2.421255 0
M  V30 33 C -2.351345 -4.079343 -0.749326 0
M  V30 34 H 2.026648 -0.675128 -0.863530 0
M  V30 35 H 2.844536 -1.528913 0.540368 0
M  V30 36 H 3.017866 -2.207071 -1.108038 0
M  V30 37 H 1.319383 -0.760488 1.815605 0
M  V30 38 H -0.882275 -0.391525 4.707531 0
M  V30 39 H 4.113520 0.901052 4.617208 0
M  V30 40 H 2.188254 5.169533 3.425674 0
M  V30 41 H 1.493263 7.086087 1.942593 0
M  V30 42 H 0.193391 6.576298 -0.155008 0
M  V30 43 H -0.262573 3.097868 -1.348696 0
M  V30 44 H -0.286908 4.786329 -1.916444 0
M  V30 45 H 0.313907 2.444131 0.730831 0
M  V30 46 H -2.167259 -2.199440 3.748324 0
M  V30 47 H -2.492463 -3.806709 1.990399 0
M  V30 48 H -0.914653 -6.274100 -0.276236 0
M  V30 49 H 0.683832 -5.476248 -0.206670 0
M  V30 50 H -0.106401 -6.505428 -2.368107 0
M  V30 51 H 0.626056 -4.846730 -2.464132 0
M  V30 52 H -2.255833 -6.947974 -2.348010 0
M  V30 53 H -3.406139 -5.854335 -3.133396 0
M  V30 54 H -2.054507 -6.499112 -4.083293 0
M  V30 55 H -3.100554 -3.797876 -2.757678 0
M  V30 56 H -0.248109 -2.948902 -2.564202 0
M  V30 57 H -1.362956 -1.970857 -1.545214 0
M  V30 58 H -1.692577 -2.119154 -3.346249 0
M  V30 59 H -2.982023 -3.289908 -0.304480 0
M  V30 60 H -2.867209 -5.073869 -0.637317 0
M  V30 END ATOM
M  V30 BEGIN BOND
M  V30 1 1 1 2
M  V30 2 1 2 3
M  V30 3 2 3 4
M  V30 4 1 4 5
M  V30 5 1 5 6
M  V30 6 1 6 7
M  V30 7 2 7 8
M  V30 8 1 8 9
M  V30 9 2 9 10
M  V30 10 1 10 11
M  V30 11 1 10 12
M  V30 12 1 12 13
M  V30 13 2 13 14
M  V30 14 1 14 15
M  V30 15 2 15 16
M  V30 16 1 16 17
M  V30 17 1 17 18
M  V30 18 1 18 19
M  V30 19 3 19 20
M  V30 20 2 17 21
M  V30 21 2 12 22
M  V30 22 2 5 23
M  V30 23 1 23 24
M  V30 24 2 24 25
M  V30 25 1 25 26
M  V30 26 1 26 27
M  V30 27 1 27 28
M  V30 28 1 28 29
M  V30 29 1 29 30
M  V30 30 1 29 31
M  V30 31 1 31 32
M  V30 32 1 31 33
M  V30 33 1 25 3
M  V30 34 1 33 26
M  V30 35 1 22 7
M  V30 36 1 21 13
M  V30 37 1 1 34
M  V30 38 1 1 35
M  V30 39 1 1 36
M  V30 40 1 4 37
M  V30 41 1 6 38
M  V30 42 1 9 39
M  V30 43 1 14 40
M  V30 44 1 15 41
M  V30 45 1 16 42
M  V30 46 1 18 43
M  V30 47 1 18 44
M  V30 48 1 21 45
M  V30 49 1 23 46
M  V30 50 1 24 47
M  V30 51 1 27 48
M  V30 52 1 27 49
M  V30 53 1 28 50
M  V30 54 1 28 51
M  V30 55 1 30 52
M  V30 56 1 30 53
M  V30 57 1 30 54
M  V30 58 1 31 55 CFG=3
M  V30 59 1 32 56
M  V30 60 1 32 57
M  V30 61 1 32 58
M  V30 62 1 33 59
M  V30 63 1 33 60
M  V30 END BOND
M  V30 END CTAB
M  END
>  <Dataset>  (124) 
ChEMBL_Kinases

>  <Ligand_Instance>  (124) 
nan

>  <PDB_ID>  (124) 
nan

>  <Standardized_SMILES>  (124) 
COc1cc(Nc2ncc(Br)c(-c3cccc(CC#N)c3)n2)ccc1N1CCN(C)[C@H](C)C1

>  <Name>  (124) 
nan

>  <Pocket>  (124) 
nan

>  <ATP_Site>  (124) 
nan

>  <Peripheral>  (124) 
nan

>  <Num_H_Atoms_ProtBoundConf>  (124) 
nan

>  <Num_Resolved_Atoms>  (124) 
nan

>  <Num_Not_Resolved_Atoms>  (124) 
nan

$$$$
CHEMBL2403083
     RDKit          3D

  0  0  0  0  0  0  0  0  0  0999 V3000
M  V30 BEGIN CTAB
M  V30 COUNTS 71 76 0 0 0
M  V30 BEGIN ATOM
M  V30 1 N -0.397603 -3.798644 4.795202 0
M  V30 2 C 0.332691 -4.752203 4.014509 0
M  V30 3 C 1.641019 -4.186126 3.488068 0
M  V30 4 C 1.280824 -2.870402 2.844545 0
M  V30 5 C 0.104717 -2.906303 1.950633 0
M  V30 6 N 0.485060 -2.339976 0.662043 0
M  V30 7 C 0.968280 -0.988786 0.521458 0
M  V30 8 N 1.312504 -0.485856 -0.674441 0
M  V30 9 C 1.764819 0.768827 -0.825881 0
M  V30 10 N 2.112247 1.243494 -2.096476 0
M  V30 11 C 2.062201 0.573977 -3.355553 0
M  V30 12 C 0.716382 0.127010 -3.774231 0
M  V30 13 C -0.045246 1.062964 -4.486629 0
M  V30 14 C -1.318282 0.824681 -4.962468 0
M  V30 15 C -1.899411 -0.386624 -4.742403 0
M  V30 16 C -3.235090 -0.689417 -5.221057 0
M  V30 17 C -3.986160 -1.581433 -4.449463 0
M  V30 18 C -5.244815 -1.879676 -4.882345 0
M  V30 19 C -5.849470 -1.371348 -6.030149 0
M  V30 20 C -5.080119 -0.496600 -6.764297 0
M  V30 21 F -5.611897 0.040785 -7.904282 0
M  V30 22 C -3.786856 -0.158862 -6.364652 0
M  V30 23 C -1.170194 -1.326151 -4.043224 0
M  V30 24 C 0.088020 -1.083991 -3.575695 0
M  V30 25 C 1.856108 1.521534 0.337544 0
M  V30 26 N 2.276149 2.811182 0.495185 0
M  V30 27 C 2.203652 3.141881 1.790973 0
M  V30 28 N 1.737967 2.057521 2.442412 0
M  V30 29 C 1.507231 1.980762 3.868093 0
M  V30 30 C 0.373258 1.094658 4.264546 0
M  V30 31 C -0.495647 1.898216 5.216316 0
M  V30 32 C 0.249549 3.154056 5.550540 0
M  V30 33 C 1.304410 3.321656 4.491289 0
M  V30 34 C 1.514247 1.046512 1.583512 0
M  V30 35 N 1.070889 -0.221992 1.639742 0
M  V30 36 C -0.561998 -4.213047 1.720745 0
M  V30 37 C -0.392346 -5.242033 2.788407 0
M  V30 38 H -1.419858 -3.896161 4.641530 0
M  V30 39 H -0.185812 -3.938290 5.822740 0
M  V30 40 H 0.552339 -5.636356 4.643472 0
M  V30 41 H 2.034566 -4.902498 2.742303 0
M  V30 42 H 2.340902 -3.993029 4.318932 0
M  V30 43 H 2.221306 -2.552215 2.306334 0
M  V30 44 H 1.183255 -2.133353 3.673222 0
M  V30 45 H -0.662104 -2.197523 2.367687 0
M  V30 46 H 0.415875 -2.913553 -0.217908 0
M  V30 47 H 2.461231 2.250195 -2.103011 0
M  V30 48 H 2.751606 -0.302934 -3.292375 0
M  V30 49 H 2.472389 1.202014 -4.165394 0
M  V30 50 H 0.353341 2.047490 -4.698477 0
M  V30 51 H -1.859086 1.586024 -5.506753 0
M  V30 52 H -3.636570 -2.044942 -3.541109 0
M  V30 53 H -5.860557 -2.576662 -4.299096 0
M  V30 54 H -6.845501 -1.637064 -6.329780 0
M  V30 55 H -3.179964 0.525360 -6.935494 0
M  V30 56 H -1.621922 -2.295358 -3.861227 0
M  V30 57 H 0.681449 -1.802771 -3.030260 0
M  V30 58 H 2.469103 4.099739 2.231659 0
M  V30 59 H 2.436788 1.537264 4.324801 0
M  V30 60 H -0.221918 0.695755 3.415902 0
M  V30 61 H 0.701962 0.183599 4.843759 0
M  V30 62 H -1.471036 2.118808 4.706985 0
M  V30 63 H -0.709911 1.360303 6.163629 0
M  V30 64 H -0.457855 4.029575 5.571875 0
M  V30 65 H 0.677260 3.128127 6.591921 0
M  V30 66 H 2.268019 3.708743 4.923698 0
M  V30 67 H 0.898087 4.051042 3.732593 0
M  V30 68 H -1.657530 -4.070911 1.579578 0
M  V30 69 H -0.197882 -4.651526 0.759449 0
M  V30 70 H 0.178131 -6.129451 2.423290 0
M  V30 71 H -1.359915 -5.669117 3.152610 0
M  V30 END ATOM
M  V30 BEGIN BOND
M  V30 1 1 1 2
M  V30 2 1 2 3
M  V30 3 1 3 4
M  V30 4 1 4 5
M  V30 5 1 5 6
M  V30 6 1 6 7
M  V30 7 2 7 8
M  V30 8 1 8 9
M  V30 9 1 9 10
M  V30 10 1 10 11
M  V30 11 1 11 12
M  V30 12 2 12 13
M  V30 13 1 13 14
M  V30 14 2 14 15
M  V30 15 1 15 16
M  V30 16 2 16 17
M  V30 17 1 17 18
M  V30 18 2 18 19
M  V30 19 1 19 20
M  V30 20 1 20 21
M  V30 21 2 20 22
M  V30 22 1 15 23
M  V30 23 2 23 24
M  V30 24 2 9 25
M  V30 25 1 25 26
M  V30 26 2 26 27
M  V30 27 1 27 28
M  V30 28 1 28 29
M  V30 29 1 29 30
M  V30 30 1 30 31
M  V30 31 1 31 32
M  V30 32 1 32 33
M  V30 33 1 28 34
M  V30 34 2 34 35
M  V30 35 1 5 36
M  V30 36 1 36 37
M  V30 37 1 37 2
M  V30 38 1 35 7
M  V30 39 1 24 12
M  V30 40 1 34 25
M  V30 41 1 22 16
M  V30 42 1 33 29
M  V30 43 1 1 38
M  V30 44 1 1 39
M  V30 45 1 2 40
M  V30 46 1 3 41
M  V30 47 1 3 42
M  V30 48 1 4 43
M  V30 49 1 4 44
M  V30 50 1 5 45
M  V30 51 1 6 46
M  V30 52 1 10 47
M  V30 53 1 11 48
M  V30 54 1 11 49
M  V30 55 1 13 50
M  V30 56 1 14 51
M  V30 57 1 17 52
M  V30 58 1 18 53
M  V30 59 1 19 54
M  V30 60 1 22 55
M  V30 61 1 23 56
M  V30 62 1 24 57
M  V30 63 1 27 58
M  V30 64 1 29 59
M  V30 65 1 30 60
M  V30 66 1 30 61
M  V30 67 1 31 62
M  V30 68 1 31 63
M  V30 69 1 32 64
M  V30 70 1 32 65
M  V30 71 1 33 66
M  V30 72 1 33 67
M  V30 73 1 36 68
M  V30 74 1 36 69
M  V30 75 1 37 70
M  V30 76 1 37 71
M  V30 END BOND
M  V30 END CTAB
M  END
>  <Dataset>  (125) 
ChEMBL_Kinases

>  <Ligand_Instance>  (125) 
nan

>  <PDB_ID>  (125) 
nan

>  <Standardized_SMILES>  (125) 
NC1CCC(Nc2nc(NCc3ccc(-c4cccc(F)c4)cc3)c3ncn(C4CCCC4)c3n2)CC1

>  <Name>  (125) 
nan

>  <Pocket>  (125) 
nan

>  <ATP_Site>  (125) 
nan

>  <Peripheral>  (125) 
nan

>  <Num_H_Atoms_ProtBoundConf>  (125) 
nan

>  <Num_Resolved_Atoms>  (125) 
nan

>  <Num_Not_Resolved_Atoms>  (125) 
nan

$$$$
CHEMBL2403073
     RDKit          3D

  0  0  0  0  0  0  0  0  0  0999 V3000
M  V30 BEGIN CTAB
M  V30 COUNTS 69 72 0 0 0
M  V30 BEGIN ATOM
M  V30 1 C 3.425152 0.354823 4.805275 0
M  V30 2 C 2.927781 -1.009955 4.405217 0
M  V30 3 N 1.501670 -1.126717 4.384300 0
M  V30 4 C 0.886933 -1.534811 5.654921 0
M  V30 5 C 0.781231 -3.033473 5.725719 0
M  V30 6 C 0.540053 -0.915645 3.345932 0
M  V30 7 O -0.725501 -1.066613 3.459999 0
M  V30 8 C 0.496417 -0.522100 1.968282 0
M  V30 9 C 0.688450 -1.559797 1.054209 0
M  V30 10 C 0.704364 -1.397631 -0.325742 0
M  V30 11 N 0.916690 -2.500006 -1.197334 0
M  V30 12 C 0.886098 -2.347558 -2.608461 0
M  V30 13 N 1.902971 -1.966858 -3.434730 0
M  V30 14 C 1.706625 -1.876473 -4.768488 0
M  V30 15 C 0.486622 -2.160865 -5.348980 0
M  V30 16 Cl 0.247775 -2.039959 -7.080847 0
M  V30 17 C -0.535931 -2.545576 -4.503507 0
M  V30 18 C -1.868220 -2.875865 -5.038708 0
M  V30 19 C -2.627267 -2.188028 -5.970151 0
M  V30 20 C -3.853142 -2.697510 -6.323809 0
M  V30 21 C -4.323813 -3.871761 -5.764535 0
M  V30 22 C -3.586361 -4.571859 -4.837138 0
M  V30 23 C -4.130997 -5.845299 -4.253531 0
M  V30 24 C -4.897175 -5.553176 -3.048886 0
M  V30 25 N -5.497862 -5.315516 -2.091427 0
M  V30 26 C -2.342575 -4.051001 -4.481069 0
M  V30 27 N -0.274061 -2.614297 -3.195046 0
M  V30 28 C 0.513501 -0.110112 -0.781612 0
M  V30 29 C 0.314818 0.980456 0.069374 0
M  V30 30 C 0.314126 0.727451 1.425554 0
M  V30 31 N 0.102457 1.796963 2.337719 0
M  V30 32 C 0.935904 2.286977 3.398755 0
M  V30 33 C 0.493923 3.719028 3.707312 0
M  V30 34 N 0.316813 4.348831 2.434614 0
M  V30 35 C 0.689945 5.716538 2.353447 0
M  V30 36 C -0.903281 3.981019 1.774948 0
M  V30 37 C -1.164047 2.521666 2.174083 0
M  V30 38 H 4.391704 0.175563 5.368057 0
M  V30 39 H 2.681643 0.828543 5.481604 0
M  V30 40 H 3.693141 0.950079 3.920790 0
M  V30 41 H 3.343490 -1.818703 5.076220 0
M  V30 42 H 3.394009 -1.225408 3.419018 0
M  V30 43 H 1.523361 -1.209362 6.509445 0
M  V30 44 H -0.061620 -1.009388 5.772024 0
M  V30 45 H 1.481684 -3.489171 6.463946 0
M  V30 46 H -0.259573 -3.266023 6.071174 0
M  V30 47 H 0.901106 -3.503326 4.714802 0
M  V30 48 H 0.842840 -2.595266 1.380292 0
M  V30 49 H 1.096189 -3.428033 -0.798090 0
M  V30 50 H 2.550764 -1.569219 -5.373326 0
M  V30 51 H -2.139060 -1.293145 -6.320457 0
M  V30 52 H -4.396956 -2.120634 -7.051006 0
M  V30 53 H -5.300096 -4.241837 -6.071349 0
M  V30 54 H -4.883926 -6.235679 -5.000348 0
M  V30 55 H -3.361809 -6.618165 -4.119863 0
M  V30 56 H -1.834109 -4.672333 -3.743593 0
M  V30 57 H 0.512594 0.095313 -1.840783 0
M  V30 58 H 0.168379 1.973756 -0.303231 0
M  V30 59 H 1.989686 2.373417 3.065769 0
M  V30 60 H 0.794590 1.670274 4.297142 0
M  V30 61 H -0.441552 3.637564 4.296188 0
M  V30 62 H 1.227593 4.271671 4.308277 0
M  V30 63 H 0.120117 6.325851 1.653527 0
M  V30 64 H 1.771569 5.733890 2.027016 0
M  V30 65 H 0.721025 6.211708 3.366583 0
M  V30 66 H -1.756579 4.614042 2.033224 0
M  V30 67 H -0.726272 3.965430 0.686346 0
M  V30 68 H -1.671240 2.458943 3.168958 0
M  V30 69 H -1.813940 2.068578 1.420310 0
M  V30 END ATOM
M  V30 BEGIN BOND
M  V30 1 1 1 2
M  V30 2 1 2 3
M  V30 3 1 3 4
M  V30 4 1 4 5
M  V30 5 1 3 6
M  V30 6 2 6 7
M  V30 7 1 6 8
M  V30 8 2 8 9
M  V30 9 1 9 10
M  V30 10 1 10 11
M  V30 11 1 11 12
M  V30 12 2 12 13
M  V30 13 1 13 14
M  V30 14 2 14 15
M  V30 15 1 15 16
M  V30 16 1 15 17
M  V30 17 1 17 18
M  V30 18 2 18 19
M  V30 19 1 19 20
M  V30 20 2 20 21
M  V30 21 1 21 22
M  V30 22 1 22 23
M  V30 23 1 23 24
M  V30 24 3 24 25
M  V30 25 2 22 26
M  V30 26 2 17 27
M  V30 27 2 10 28
M  V30 28 1 28 29
M  V30 29 2 29 30
M  V30 30 1 30 31
M  V30 31 1 31 32
M  V30 32 1 32 33
M  V30 33 1 33 34
M  V30 34 1 34 35
M  V30 35 1 34 36
M  V30 36 1 36 37
M  V30 37 1 30 8
M  V30 38 1 37 31
M  V30 39 1 27 12
M  V30 40 1 26 18
M  V30 41 1 1 38
M  V30 42 1 1 39
M  V30 43 1 1 40
M  V30 44 1 2 41
M  V30 45 1 2 42
M  V30 46 1 4 43
M  V30 47 1 4 44
M  V30 48 1 5 45
M  V30 49 1 5 46
M  V30 50 1 5 47
M  V30 51 1 9 48
M  V30 52 1 11 49
M  V30 53 1 14 50
M  V30 54 1 19 51
M  V30 55 1 20 52
M  V30 56 1 21 53
M  V30 57 1 23 54
M  V30 58 1 23 55
M  V30 59 1 26 56
M  V30 60 1 28 57
M  V30 61 1 29 58
M  V30 62 1 32 59
M  V30 63 1 32 60
M  V30 64 1 33 61
M  V30 65 1 33 62
M  V30 66 1 35 63
M  V30 67 1 35 64
M  V30 68 1 35 65
M  V30 69 1 36 66
M  V30 70 1 36 67
M  V30 71 1 37 68
M  V30 72 1 37 69
M  V30 END BOND
M  V30 END CTAB
M  END
>  <Dataset>  (126) 
ChEMBL_Kinases

>  <Ligand_Instance>  (126) 
nan

>  <PDB_ID>  (126) 
nan

>  <Standardized_SMILES>  (126) 
CCN(CC)C(=O)c1cc(Nc2ncc(Cl)c(-c3cccc(CC#N)c3)n2)ccc1N1CCN(C)CC1

>  <Name>  (126) 
nan

>  <Pocket>  (126) 
nan

>  <ATP_Site>  (126) 
nan

>  <Peripheral>  (126) 
nan

>  <Num_H_Atoms_ProtBoundConf>  (126) 
nan

>  <Num_Resolved_Atoms>  (126) 
nan

>  <Num_Not_Resolved_Atoms>  (126) 
nan

$$$$
CHEMBL271084
     RDKit          3D

  0  0  0  0  0  0  0  0  0  0999 V3000
M  V30 BEGIN CTAB
M  V30 COUNTS 64 69 0 0 0
M  V30 BEGIN ATOM
M  V30 1 C -0.366519 -3.178934 1.357132 0
M  V30 2 N -0.539426 -1.800111 1.719472 0
M  V30 3 C 0.348998 -0.773822 1.627467 0
M  V30 4 C 1.641157 -0.880413 1.145451 0
M  V30 5 C 2.488176 0.235990 1.082571 0
M  V30 6 C 3.842124 0.058481 0.539470 0
M  V30 7 C 3.944788 0.505219 -0.907359 0
M  V30 8 C 2.988126 -0.318918 -1.721028 0
M  V30 9 C 2.966404 -0.021097 -3.177817 0
M  V30 10 N 4.224759 -0.218859 -3.861818 0
M  V30 11 C 4.577992 -1.644454 -3.916928 0
M  V30 12 C 3.484331 -2.246788 -4.789750 0
M  V30 13 C 3.085318 -1.131136 -5.744618 0
M  V30 14 C 3.962930 0.015003 -5.290550 0
M  V30 15 C 1.971129 1.447795 1.525335 0
M  V30 16 O 2.784961 2.551366 1.471832 0
M  V30 17 C 0.675793 1.478431 1.992667 0
M  V30 18 C -0.178081 0.418361 2.070076 0
M  V30 19 C -1.451446 0.119788 2.455664 0
M  V30 20 C -2.426178 0.913536 2.971812 0
M  V30 21 C -3.639999 0.366700 3.283391 0
M  V30 22 C -3.839898 -0.982891 3.062594 0
M  V30 23 C -5.142813 -1.610134 3.387754 0
M  V30 24 C -6.097781 -1.642699 2.393999 0
M  V30 25 C -7.358801 -2.175678 2.490764 0
M  V30 26 C -7.639013 -2.720169 3.737010 0
M  V30 27 C -6.734150 -2.727311 4.786754 0
M  V30 28 C -5.477300 -2.169009 4.613528 0
M  V30 29 Cl -4.251672 -2.116222 5.861546 0
M  V30 30 C -2.861704 -1.799192 2.539973 0
M  V30 31 C -1.641074 -1.220606 2.233382 0
M  V30 32 C -4.566407 1.360851 3.829105 0
M  V30 33 O -5.763866 1.153676 4.209541 0
M  V30 34 N -3.801630 2.575598 3.822373 0
M  V30 35 C -2.509055 2.308767 3.305110 0
M  V30 36 O -1.737071 3.271002 3.241038 0
M  V30 37 H -0.583941 -3.356295 0.266502 0
M  V30 38 H -1.060800 -3.833250 1.918506 0
M  V30 39 H 0.670748 -3.525529 1.540619 0
M  V30 40 H 2.054119 -1.821352 0.796284 0
M  V30 41 H 4.603133 0.603846 1.164098 0
M  V30 42 H 4.100586 -1.014637 0.578099 0
M  V30 43 H 3.594940 1.553835 -0.985511 0
M  V30 44 H 4.950578 0.427744 -1.306365 0
M  V30 45 H 1.963948 -0.105302 -1.332494 0
M  V30 46 H 3.277658 -1.372885 -1.577342 0
M  V30 47 H 2.212076 -0.665078 -3.699823 0
M  V30 48 H 2.604288 1.021705 -3.394475 0
M  V30 49 H 5.549720 -1.699518 -4.454609 0
M  V30 50 H 4.610909 -2.112391 -2.920332 0
M  V30 51 H 2.643023 -2.613447 -4.172279 0
M  V30 52 H 3.965963 -3.062821 -5.383939 0
M  V30 53 H 2.007964 -0.917478 -5.710948 0
M  V30 54 H 3.366674 -1.412730 -6.794151 0
M  V30 55 H 3.452604 1.009500 -5.397164 0
M  V30 56 H 4.941031 -0.034231 -5.789012 0
M  V30 57 H 3.722714 2.584870 1.843500 0
M  V30 58 H 0.365556 2.441136 2.307257 0
M  V30 59 H -5.853487 -1.204642 1.415643 0
M  V30 60 H -8.059735 -2.167574 1.668703 0
M  V30 61 H -8.617945 -3.167485 3.907649 0
M  V30 62 H -6.971752 -3.158737 5.756165 0
M  V30 63 H -3.008345 -2.853031 2.363777 0
M  V30 64 H -4.254864 3.468274 4.178409 0
M  V30 END ATOM
M  V30 BEGIN BOND
M  V30 1 1 1 2
M  V30 2 1 2 3
M  V30 3 2 3 4
M  V30 4 1 4 5
M  V30 5 1 5 6
M  V30 6 1 6 7
M  V30 7 1 7 8
M  V30 8 1 8 9
M  V30 9 1 9 10
M  V30 10 1 10 11
M  V30 11 1 11 12
M  V30 12 1 12 13
M  V30 13 1 13 14
M  V30 14 2 5 15
M  V30 15 1 15 16
M  V30 16 1 15 17
M  V30 17 2 17 18
M  V30 18 1 18 19
M  V30 19 2 19 20
M  V30 20 1 20 21
M  V30 21 2 21 22
M  V30 22 1 22 23
M  V30 23 2 23 24
M  V30 24 1 24 25
M  V30 25 2 25 26
M  V30 26 1 26 27
M  V30 27 2 27 28
M  V30 28 1 28 29
M  V30 29 1 22 30
M  V30 30 2 30 31
M  V30 31 1 21 32
M  V30 32 2 32 33
M  V30 33 1 32 34
M  V30 34 1 34 35
M  V30 35 2 35 36
M  V30 36 1 31 2
M  V30 37 1 18 3
M  V30 38 1 31 19
M  V30 39 1 14 10
M  V30 40 1 35 20
M  V30 41 1 28 23
M  V30 42 1 1 37
M  V30 43 1 1 38
M  V30 44 1 1 39
M  V30 45 1 4 40
M  V30 46 1 6 41
M  V30 47 1 6 42
M  V30 48 1 7 43
M  V30 49 1 7 44
M  V30 50 1 8 45
M  V30 51 1 8 46
M  V30 52 1 9 47
M  V30 53 1 9 48
M  V30 54 1 11 49
M  V30 55 1 11 50
M  V30 56 1 12 51
M  V30 57 1 12 52
M  V30 58 1 13 53
M  V30 59 1 13 54
M  V30 60 1 14 55
M  V30 61 1 14 56
M  V30 62 1 16 57
M  V30 63 1 17 58
M  V30 64 1 24 59
M  V30 65 1 25 60
M  V30 66 1 26 61
M  V30 67 1 27 62
M  V30 68 1 30 63
M  V30 69 1 34 64
M  V30 END BOND
M  V30 END CTAB
M  END
>  <Dataset>  (127) 
ChEMBL_Kinases

>  <Ligand_Instance>  (127) 
nan

>  <PDB_ID>  (127) 
nan

>  <Standardized_SMILES>  (127) 
Cn1c2cc(CCCCN3CCCC3)c(O)cc2c2c3c(c(-c4ccccc4Cl)cc21)C(=O)NC3=O

>  <Name>  (127) 
nan

>  <Pocket>  (127) 
nan

>  <ATP_Site>  (127) 
nan

>  <Peripheral>  (127) 
nan

>  <Num_H_Atoms_ProtBoundConf>  (127) 
nan

>  <Num_Resolved_Atoms>  (127) 
nan

>  <Num_Not_Resolved_Atoms>  (127) 
nan

$$$$
CHEMBL271071
     RDKit          3D

  0  0  0  0  0  0  0  0  0  0999 V3000
M  V30 BEGIN CTAB
M  V30 COUNTS 59 64 0 0 0
M  V30 BEGIN ATOM
M  V30 1 O 3.949238 2.640573 5.574157 0
M  V30 2 C 3.005836 1.846640 5.283761 0
M  V30 3 N 2.190907 1.022705 6.144661 0
M  V30 4 C 1.269559 0.312816 5.336211 0
M  V30 5 O 0.520426 -0.426896 5.986304 0
M  V30 6 C 1.464465 0.656379 3.953328 0
M  V30 7 C 2.495628 1.564403 3.945410 0
M  V30 8 C 2.918585 2.086719 2.733235 0
M  V30 9 C 4.011039 3.065429 2.588910 0
M  V30 10 C 3.568352 4.370045 2.653641 0
M  V30 11 C 4.480628 5.397800 2.533347 0
M  V30 12 C 5.806095 5.059509 2.352055 0
M  V30 13 C 6.224700 3.747767 2.290561 0
M  V30 14 C 5.323683 2.687514 2.409232 0
M  V30 15 Cl 5.722205 0.998182 2.348394 0
M  V30 16 C 2.325429 1.712954 1.540106 0
M  V30 17 C 1.298028 0.797583 1.632593 0
M  V30 18 N 0.554968 0.266604 0.644342 0
M  V30 19 C -0.328905 -0.583215 1.228168 0
M  V30 20 C -1.283869 -1.345422 0.594898 0
M  V30 21 C -2.142765 -2.182663 1.241681 0
M  V30 22 O -3.129579 -3.003875 0.833634 0
M  V30 23 C -3.617190 -3.304139 -0.418248 0
M  V30 24 C -2.657652 -3.952697 -1.379885 0
M  V30 25 C -3.414725 -4.179728 -2.663470 0
M  V30 26 N -2.633993 -4.794366 -3.688619 0
M  V30 27 C -1.584590 -3.961433 -4.206662 0
M  V30 28 C -2.276599 -2.904290 -5.001486 0
M  V30 29 C -3.362251 -3.734195 -5.699131 0
M  V30 30 C -3.484829 -4.977091 -4.850870 0
M  V30 31 C -1.967596 -2.201038 2.636706 0
M  V30 32 O -2.760773 -3.003861 3.482811 0
M  V30 33 C -1.016078 -1.443305 3.284120 0
M  V30 34 C -0.178901 -0.620813 2.595266 0
M  V30 35 C 0.846941 0.254259 2.813975 0
M  V30 36 H 2.396311 1.075234 7.169571 0
M  V30 37 H 2.550671 4.669220 2.793464 0
M  V30 38 H 4.207194 6.429523 2.574197 0
M  V30 39 H 6.612861 5.773766 2.244338 0
M  V30 40 H 7.270045 3.439144 2.147627 0
M  V30 41 H 2.641353 2.109378 0.584788 0
M  V30 42 H 0.656198 0.482394 -0.374549 0
M  V30 43 H -1.409310 -1.308505 -0.472473 0
M  V30 44 H -4.548322 -3.932470 -0.318335 0
M  V30 45 H -4.024247 -2.337297 -0.845571 0
M  V30 46 H -1.763637 -3.364719 -1.480043 0
M  V30 47 H -2.344696 -4.935222 -0.918629 0
M  V30 48 H -4.241703 -4.895008 -2.425193 0
M  V30 49 H -3.889236 -3.249737 -3.004977 0
M  V30 50 H -0.874461 -3.576459 -3.459492 0
M  V30 51 H -0.980325 -4.574277 -4.908109 0
M  V30 52 H -2.801389 -2.148044 -4.398011 0
M  V30 53 H -1.594871 -2.416314 -5.743237 0
M  V30 54 H -2.945853 -3.973271 -6.711290 0
M  V30 55 H -4.311416 -3.152034 -5.768804 0
M  V30 56 H -4.553091 -5.028243 -4.529324 0
M  V30 57 H -3.249831 -5.898623 -5.419937 0
M  V30 58 H -3.349694 -2.581737 4.179886 0
M  V30 59 H -0.920097 -1.490492 4.340518 0
M  V30 END ATOM
M  V30 BEGIN BOND
M  V30 1 2 1 2
M  V30 2 1 2 3
M  V30 3 1 3 4
M  V30 4 2 4 5
M  V30 5 1 4 6
M  V30 6 2 6 7
M  V30 7 1 7 8
M  V30 8 1 8 9
M  V30 9 2 9 10
M  V30 10 1 10 11
M  V30 11 2 11 12
M  V30 12 1 12 13
M  V30 13 2 13 14
M  V30 14 1 14 15
M  V30 15 2 8 16
M  V30 16 1 16 17
M  V30 17 1 17 18
M  V30 18 1 18 19
M  V30 19 2 19 20
M  V30 20 1 20 21
M  V30 21 1 21 22
M  V30 22 1 22 23
M  V30 23 1 23 24
M  V30 24 1 24 25
M  V30 25 1 25 26
M  V30 26 1 26 27
M  V30 27 1 27 28
M  V30 28 1 28 29
M  V30 29 1 29 30
M  V30 30 2 21 31
M  V30 31 1 31 32
M  V30 32 1 31 33
M  V30 33 2 33 34
M  V30 34 1 34 35
M  V30 35 1 7 2
M  V30 36 1 14 9
M  V30 37 2 35 17
M  V30 38 1 35 6
M  V30 39 1 34 19
M  V30 40 1 30 26
M  V30 41 1 3 36
M  V30 42 1 10 37
M  V30 43 1 11 38
M  V30 44 1 12 39
M  V30 45 1 13 40
M  V30 46 1 16 41
M  V30 47 1 18 42
M  V30 48 1 20 43
M  V30 49 1 23 44
M  V30 50 1 23 45
M  V30 51 1 24 46
M  V30 52 1 24 47
M  V30 53 1 25 48
M  V30 54 1 25 49
M  V30 55 1 27 50
M  V30 56 1 27 51
M  V30 57 1 28 52
M  V30 58 1 28 53
M  V30 59 1 29 54
M  V30 60 1 29 55
M  V30 61 1 30 56
M  V30 62 1 30 57
M  V30 63 1 32 58
M  V30 64 1 33 59
M  V30 END BOND
M  V30 END CTAB
M  END
>  <Dataset>  (128) 
ChEMBL_Kinases

>  <Ligand_Instance>  (128) 
nan

>  <PDB_ID>  (128) 
nan

>  <Standardized_SMILES>  (128) 
O=C1NC(=O)c2c1c(-c1ccccc1Cl)cc1[nH]c3cc(OCCCN4CCCC4)c(O)cc3c21

>  <Name>  (128) 
nan

>  <Pocket>  (128) 
nan

>  <ATP_Site>  (128) 
nan

>  <Peripheral>  (128) 
nan

>  <Num_H_Atoms_ProtBoundConf>  (128) 
nan

>  <Num_Resolved_Atoms>  (128) 
nan

>  <Num_Not_Resolved_Atoms>  (128) 
nan

$$$$
CHEMBL271020
     RDKit          3D

  0  0  0  0  0  0  0  0  0  0999 V3000
M  V30 BEGIN CTAB
M  V30 COUNTS 70 75 0 0 0
M  V30 BEGIN ATOM
M  V30 1 C 3.446169 0.283825 6.092162 0
M  V30 2 N 2.495517 -0.522484 5.416613 0
M  V30 3 C 2.881100 -1.886771 5.375195 0
M  V30 4 C 3.676790 -2.307453 4.156682 0
M  V30 5 N 3.199107 -1.527865 3.034130 0
M  V30 6 C 4.079378 -1.263680 1.995587 0
M  V30 7 O 5.069382 -1.899851 2.506934 0
M  V30 8 C 4.329693 -0.640068 0.720396 0
M  V30 9 C 5.633066 -0.560159 0.285142 0
M  V30 10 C 5.815025 0.073331 -0.931737 0
M  V30 11 C 4.782414 0.594455 -1.673832 0
M  V30 12 C 3.471409 0.509642 -1.228993 0
M  V30 13 N 2.401052 1.075856 -1.968536 0
M  V30 14 C 0.987268 0.818260 -1.923549 0
M  V30 15 N 0.066966 1.805617 -1.991258 0
M  V30 16 C -1.238206 1.513478 -1.981877 0
M  V30 17 N -1.562831 0.218866 -1.903791 0
M  V30 18 C -0.632845 -0.712394 -1.838891 0
M  V30 19 C -0.911168 -2.084559 -1.757181 0
M  V30 20 C 0.329615 -2.664549 -1.711037 0
M  V30 21 N 1.266161 -1.690226 -1.764431 0
M  V30 22 N 0.698358 -0.495976 -1.843010 0
M  V30 23 C -2.380812 -2.361857 -1.762121 0
M  V30 24 C -2.819023 -3.596885 -1.083314 0
M  V30 25 C -4.285620 -3.875858 -1.043202 0
M  V30 26 C -5.158375 -2.907652 -0.333011 0
M  V30 27 C -5.177838 -1.594247 -1.024007 0
M  V30 28 O -5.151390 -0.542271 -1.682967 0
M  V30 29 N -5.688696 -0.378650 -0.378874 0
M  V30 30 C -5.530687 0.814746 -1.217548 0
M  V30 31 C -6.413440 1.564911 -1.952813 0
M  V30 32 C -5.926352 2.628603 -2.692088 0
M  V30 33 C -4.587627 2.949115 -2.706253 0
M  V30 34 C -3.627905 2.246871 -1.993931 0
M  V30 35 C -4.161504 1.206722 -1.277013 0
M  V30 36 N -2.254073 2.523051 -2.032957 0
M  V30 37 C 3.315095 -0.115395 -0.031926 0
M  V30 38 C 1.791062 -1.141991 3.238261 0
M  V30 39 C 1.903883 0.016147 4.234146 0
M  V30 40 H 3.420740 1.348380 5.775556 0
M  V30 41 H 4.472949 -0.103487 6.005994 0
M  V30 42 H 3.215071 0.215562 7.195154 0
M  V30 43 H 2.014194 -2.594572 5.524810 0
M  V30 44 H 3.543447 -2.081110 6.260054 0
M  V30 45 H 3.411792 -3.368831 3.947765 0
M  V30 46 H 4.767488 -2.197973 4.344816 0
M  V30 47 H 6.470516 -0.957973 0.838250 0
M  V30 48 H 6.827046 0.169387 -1.331952 0
M  V30 49 H 5.013346 1.070009 -2.610550 0
M  V30 50 H 2.610793 1.823276 -2.696148 0
M  V30 51 H 0.402566 -3.740090 -1.643921 0
M  V30 52 H -2.863670 -1.450021 -1.413423 0
M  V30 53 H -2.646908 -2.461964 -2.863700 0
M  V30 54 H -2.362471 -4.477877 -1.636592 0
M  V30 55 H -2.350108 -3.661649 -0.071536 0
M  V30 56 H -4.409061 -4.867979 -0.524592 0
M  V30 57 H -4.690433 -4.054611 -2.065888 0
M  V30 58 H -6.191018 -3.295345 -0.308035 0
M  V30 59 H -4.882717 -2.777642 0.742630 0
M  V30 60 H -6.141851 0.226505 0.374036 0
M  V30 61 H -7.358901 1.106766 -1.751929 0
M  V30 62 H -6.728397 3.127078 -3.214840 0
M  V30 63 H -4.276511 3.786433 -3.302726 0
M  V30 64 H -3.421086 0.676904 -0.690506 0
M  V30 65 H -2.039833 3.523854 -2.107657 0
M  V30 66 H 2.292848 -0.180037 0.316627 0
M  V30 67 H 1.276063 -0.861898 2.331554 0
M  V30 68 H 1.207977 -1.924670 3.742351 0
M  V30 69 H 0.952902 0.556730 4.374384 0
M  V30 70 H 2.614882 0.719868 3.753418 0
M  V30 END ATOM
M  V30 BEGIN BOND
M  V30 1 1 1 2
M  V30 2 1 2 3
M  V30 3 1 3 4
M  V30 4 1 4 5
M  V30 5 1 5 6
M  V30 6 2 6 7
M  V30 7 1 6 8
M  V30 8 2 8 9
M  V30 9 1 9 10
M  V30 10 2 10 11
M  V30 11 1 11 12
M  V30 12 1 12 13
M  V30 13 1 13 14
M  V30 14 2 14 15
M  V30 15 1 15 16
M  V30 16 2 16 17
M  V30 17 1 17 18
M  V30 18 2 18 19
M  V30 19 1 19 20
M  V30 20 2 20 21
M  V30 21 1 21 22
M  V30 22 1 19 23
M  V30 23 1 23 24
M  V30 24 1 24 25
M  V30 25 1 25 26
M  V30 26 1 26 27
M  V30 27 2 27 28
M  V30 28 1 27 29
M  V30 29 1 29 30
M  V30 30 2 30 31
M  V30 31 1 31 32
M  V30 32 2 32 33
M  V30 33 1 33 34
M  V30 34 2 34 35
M  V30 35 1 34 36
M  V30 36 2 12 37
M  V30 37 1 5 38
M  V30 38 1 38 39
M  V30 39 1 39 2
M  V30 40 1 37 8
M  V30 41 1 22 14
M  V30 42 1 35 30
M  V30 43 1 36 16
M  V30 44 1 22 18
M  V30 45 1 1 40
M  V30 46 1 1 41
M  V30 47 1 1 42
M  V30 48 1 3 43
M  V30 49 1 3 44
M  V30 50 1 4 45
M  V30 51 1 4 46
M  V30 52 1 9 47
M  V30 53 1 10 48
M  V30 54 1 11 49
M  V30 55 1 13 50
M  V30 56 1 20 51
M  V30 57 1 23 52
M  V30 58 1 23 53
M  V30 59 1 24 54
M  V30 60 1 24 55
M  V30 61 1 25 56
M  V30 62 1 25 57
M  V30 63 1 26 58
M  V30 64 1 26 59
M  V30 65 1 29 60
M  V30 66 1 31 61
M  V30 67 1 32 62
M  V30 68 1 33 63
M  V30 69 1 35 64
M  V30 70 1 36 65
M  V30 71 1 37 66
M  V30 72 1 38 67
M  V30 73 1 38 68
M  V30 74 1 39 69
M  V30 75 1 39 70
M  V30 END BOND
M  V30 END CTAB
M  END
>  <Dataset>  (129) 
ChEMBL_Kinases

>  <Ligand_Instance>  (129) 
nan

>  <PDB_ID>  (129) 
nan

>  <Standardized_SMILES>  (129) 
CN1CCN(C(=O)c2cccc(Nc3nc4nc5c(cnn35)CCCCC(=O)Nc3cccc(c3)N4)c2)CC1

>  <Name>  (129) 
nan

>  <Pocket>  (129) 
nan

>  <ATP_Site>  (129) 
nan

>  <Peripheral>  (129) 
nan

>  <Num_H_Atoms_ProtBoundConf>  (129) 
nan

>  <Num_Resolved_Atoms>  (129) 
nan

>  <Num_Not_Resolved_Atoms>  (129) 
nan

$$$$
CHEMBL270926
     RDKit          3D

  0  0  0  0  0  0  0  0  0  0999 V3000
M  V30 BEGIN CTAB
M  V30 COUNTS 31 33 0 0 0
M  V30 BEGIN ATOM
M  V30 1 C 1.652858 -1.758559 3.865347 0
M  V30 2 O 1.275950 -1.475391 2.539688 0
M  V30 3 C 1.235983 -2.492181 1.622779 0
M  V30 4 C 1.552785 -3.763311 1.992030 0
M  V30 5 C 1.535602 -4.844713 1.149096 0
M  V30 6 N 1.172944 -4.565758 -0.112578 0
M  V30 7 C 0.852648 -3.329316 -0.522030 0
M  V30 8 N 0.446568 -2.819739 -1.695441 0
M  V30 9 C 0.229132 -1.500218 -1.583547 0
M  V30 10 C 0.497053 -1.067560 -0.272129 0
M  V30 11 C 0.307512 0.303553 0.083752 0
M  V30 12 C 0.920248 1.114571 0.985943 0
M  V30 13 C 0.705563 2.451265 1.222672 0
M  V30 14 N -0.247480 3.017505 0.439831 0
M  V30 15 C -0.905250 2.286030 -0.484189 0
M  V30 16 S -2.151274 3.096162 -1.485715 0
M  V30 17 C -3.782622 3.005121 -0.689138 0
M  V30 18 N -0.618551 0.987746 -0.633026 0
M  V30 19 C 0.871861 -2.245306 0.322975 0
M  V30 20 H 1.345116 -0.852383 4.465073 0
M  V30 21 H 2.735563 -1.932706 4.004041 0
M  V30 22 H 1.016317 -2.576745 4.302575 0
M  V30 23 H 1.842399 -3.942762 3.033165 0
M  V30 24 H 1.789661 -5.851755 1.452358 0
M  V30 25 H 0.330524 -3.412736 -2.554382 0
M  V30 26 H -0.111520 -0.928334 -2.462191 0
M  V30 27 H 1.703289 0.726181 1.586840 0
M  V30 28 H 1.248711 3.008000 1.968656 0
M  V30 29 H -3.682165 2.322887 0.176860 0
M  V30 30 H -4.150294 4.008281 -0.387446 0
M  V30 31 H -4.464493 2.507861 -1.416406 0
M  V30 END ATOM
M  V30 BEGIN BOND
M  V30 1 1 1 2
M  V30 2 1 2 3
M  V30 3 2 3 4
M  V30 4 1 4 5
M  V30 5 2 5 6
M  V30 6 1 6 7
M  V30 7 1 7 8
M  V30 8 1 8 9
M  V30 9 2 9 10
M  V30 10 1 10 11
M  V30 11 2 11 12
M  V30 12 1 12 13
M  V30 13 2 13 14
M  V30 14 1 14 15
M  V30 15 1 15 16
M  V30 16 1 16 17
M  V30 17 2 15 18
M  V30 18 1 10 19
M  V30 19 1 19 3
M  V30 20 2 19 7
M  V30 21 1 18 11
M  V30 22 1 1 20
M  V30 23 1 1 21
M  V30 24 1 1 22
M  V30 25 1 4 23
M  V30 26 1 5 24
M  V30 27 1 8 25
M  V30 28 1 9 26
M  V30 29 1 12 27
M  V30 30 1 13 28
M  V30 31 1 17 29
M  V30 32 1 17 30
M  V30 33 1 17 31
M  V30 END BOND
M  V30 END CTAB
M  END
>  <Dataset>  (130) 
ChEMBL_Kinases

>  <Ligand_Instance>  (130) 
nan

>  <PDB_ID>  (130) 
nan

>  <Standardized_SMILES>  (130) 
COc1ccnc2[nH]cc(-c3ccnc(SC)n3)c12

>  <Name>  (130) 
nan

>  <Pocket>  (130) 
nan

>  <ATP_Site>  (130) 
nan

>  <Peripheral>  (130) 
nan

>  <Num_H_Atoms_ProtBoundConf>  (130) 
nan

>  <Num_Resolved_Atoms>  (130) 
nan

>  <Num_Not_Resolved_Atoms>  (130) 
nan

$$$$
CHEMBL270897
     RDKit          3D

  0  0  0  0  0  0  0  0  0  0999 V3000
M  V30 BEGIN CTAB
M  V30 COUNTS 26 28 0 0 0
M  V30 BEGIN ATOM
M  V30 1 N -1.523755 -3.282626 3.001234 0
M  V30 2 C -0.388356 -2.423109 2.994017 0
M  V30 3 N 0.544783 -2.398454 3.991936 0
M  V30 4 C 1.600170 -1.547214 3.908245 0
M  V30 5 C 1.641966 -0.753669 2.786114 0
M  V30 6 C 0.732941 -0.731952 1.746641 0
M  V30 7 C 0.985020 0.199362 0.654747 0
M  V30 8 C 2.062169 1.084911 0.544832 0
M  V30 9 N 1.898109 1.747131 -0.612067 0
M  V30 10 C 0.796292 1.376896 -1.288235 0
M  V30 11 N 0.273212 1.779953 -2.461483 0
M  V30 12 C -0.873750 1.215469 -2.901664 0
M  V30 13 C -1.503851 0.232864 -2.153318 0
M  V30 14 C -0.933120 -0.151087 -0.955392 0
M  V30 15 O -1.591094 -1.121013 -0.256618 0
M  V30 16 C 0.235661 0.408726 -0.484140 0
M  V30 17 N -0.256819 -1.606480 1.937359 0
M  V30 18 H -2.098332 -3.144877 3.858258 0
M  V30 19 H -1.757302 -3.968575 2.244059 0
M  V30 20 H 2.353947 -1.503547 4.679391 0
M  V30 21 H 2.508018 -0.082713 2.758023 0
M  V30 22 H 2.876773 1.226995 1.238548 0
M  V30 23 H 2.571312 2.478853 -0.943256 0
M  V30 24 H -1.343251 1.508976 -3.854194 0
M  V30 25 H -2.432233 -0.200790 -2.543857 0
M  V30 26 H -2.602549 -1.080960 -0.171035 0
M  V30 END ATOM
M  V30 BEGIN BOND
M  V30 1 1 1 2
M  V30 2 2 2 3
M  V30 3 1 3 4
M  V30 4 2 4 5
M  V30 5 1 5 6
M  V30 6 1 6 7
M  V30 7 2 7 8
M  V30 8 1 8 9
M  V30 9 1 9 10
M  V30 10 2 10 11
M  V30 11 1 11 12
M  V30 12 2 12 13
M  V30 13 1 13 14
M  V30 14 1 14 15
M  V30 15 2 14 16
M  V30 16 2 6 17
M  V30 17 1 17 2
M  V30 18 1 16 7
M  V30 19 1 16 10
M  V30 20 1 1 18
M  V30 21 1 1 19
M  V30 22 1 4 20
M  V30 23 1 5 21
M  V30 24 1 8 22
M  V30 25 1 9 23
M  V30 26 1 12 24
M  V30 27 1 13 25
M  V30 28 1 15 26
M  V30 END BOND
M  V30 END CTAB
M  END
>  <Dataset>  (131) 
ChEMBL_Kinases

>  <Ligand_Instance>  (131) 
nan

>  <PDB_ID>  (131) 
nan

>  <Standardized_SMILES>  (131) 
Nc1nccc(-c2c[nH]c3nccc(O)c23)n1

>  <Name>  (131) 
MERIOLIN 2

>  <Pocket>  (131) 
nan

>  <ATP_Site>  (131) 
nan

>  <Peripheral>  (131) 
nan

>  <Num_H_Atoms_ProtBoundConf>  (131) 
nan

>  <Num_Resolved_Atoms>  (131) 
nan

>  <Num_Not_Resolved_Atoms>  (131) 
nan

$$$$
CHEMBL270866
     RDKit          3D

  0  0  0  0  0  0  0  0  0  0999 V3000
M  V30 BEGIN CTAB
M  V30 COUNTS 63 68 0 0 0
M  V30 BEGIN ATOM
M  V30 1 C 0.581119 0.142044 3.429333 0
M  V30 2 N 0.389920 -0.771027 2.318964 0
M  V30 3 C 1.181027 -0.939047 1.229894 0
M  V30 4 C 2.366081 -0.265597 0.931241 0
M  V30 5 C 3.077173 -0.551602 -0.242146 0
M  V30 6 S 4.538093 0.275289 -0.605185 0 CHG=1 VAL=3
M  V30 7 O 5.920681 -0.428189 -0.034603 0 CHG=-1 VAL=1
M  V30 8 C 4.675355 0.968476 -2.190496 0
M  V30 9 C 3.659069 2.000200 -2.554410 0
M  V30 10 C 2.239069 1.561088 -2.537762 0
M  V30 11 N 1.321950 2.650513 -2.920228 0
M  V30 12 C -0.007513 2.023878 -2.842873 0
M  V30 13 C -0.908594 3.232577 -2.937272 0
M  V30 14 C -0.114520 4.261740 -2.136293 0
M  V30 15 C 1.218588 3.585303 -1.812139 0
M  V30 16 C 2.527883 -1.537146 -1.073788 0
M  V30 17 O 3.241349 -1.807550 -2.227205 0
M  V30 18 C 1.353928 -2.163111 -0.718560 0
M  V30 19 C 0.641450 -1.907116 0.413054 0
M  V30 20 C -0.483793 -2.310064 1.037386 0
M  V30 21 C -1.404482 -3.244656 0.676716 0
M  V30 22 C -2.488770 -3.492536 1.480514 0
M  V30 23 C -2.656957 -2.790137 2.672504 0
M  V30 24 C -3.780023 -3.010516 3.557636 0
M  V30 25 C -5.005737 -2.382350 3.553867 0
M  V30 26 C -5.961555 -2.735717 4.492494 0
M  V30 27 C -5.744315 -3.702943 5.448867 0
M  V30 28 C -4.511690 -4.321298 5.437759 0
M  V30 29 C -3.544442 -3.995046 4.522913 0
M  V30 30 Cl -2.015377 -4.876790 4.637047 0
M  V30 31 C -1.720819 -1.843854 3.033433 0
M  V30 32 C -0.650553 -1.617108 2.214164 0
M  V30 33 C -3.383257 -4.528729 0.945267 0
M  V30 34 O -4.444345 -4.956531 1.464967 0
M  V30 35 N -2.750369 -4.913877 -0.287323 0
M  V30 36 C -1.571475 -4.141296 -0.436403 0
M  V30 37 O -0.911352 -4.360701 -1.459330 0
M  V30 38 H -0.405626 0.417442 3.877293 0
M  V30 39 H 1.270863 -0.302757 4.196758 0
M  V30 40 H 1.004734 1.089818 3.034872 0
M  V30 41 H 2.740224 0.485133 1.612077 0
M  V30 42 H 5.670145 1.504647 -2.226000 0
M  V30 43 H 4.762816 0.222851 -3.013265 0
M  V30 44 H 3.857268 2.416512 -3.575651 0
M  V30 45 H 3.829135 2.874837 -1.866380 0
M  V30 46 H 1.987814 1.267687 -1.485152 0
M  V30 47 H 2.003236 0.721244 -3.181596 0
M  V30 48 H -0.153568 1.502937 -1.880266 0
M  V30 49 H -0.154987 1.299835 -3.652493 0
M  V30 50 H -1.897071 3.031332 -2.458658 0
M  V30 51 H -1.005432 3.487399 -3.998785 0
M  V30 52 H -0.649174 4.583858 -1.234516 0
M  V30 53 H 0.124143 5.079802 -2.850896 0
M  V30 54 H 1.150005 2.985192 -0.889245 0
M  V30 55 H 2.061337 4.287294 -1.835811 0
M  V30 56 H 4.121742 -2.295271 -2.272511 0
M  V30 57 H 1.049113 -2.874573 -1.417010 0
M  V30 58 H -5.098810 -1.645762 2.784283 0
M  V30 59 H -6.915648 -2.202257 4.439846 0
M  V30 60 H -6.512651 -3.951699 6.163892 0
M  V30 61 H -4.335346 -5.082147 6.187005 0
M  V30 62 H -1.827894 -1.286844 3.950446 0
M  V30 63 H -3.204628 -5.655653 -0.869949 0
M  V30 END ATOM
M  V30 BEGIN BOND
M  V30 1 1 1 2
M  V30 2 1 2 3
M  V30 3 2 3 4
M  V30 4 1 4 5
M  V30 5 1 5 6
M  V30 6 1 6 7
M  V30 7 1 6 8
M  V30 8 1 8 9
M  V30 9 1 9 10
M  V30 10 1 10 11
M  V30 11 1 11 12
M  V30 12 1 12 13
M  V30 13 1 13 14
M  V30 14 1 14 15
M  V30 15 2 5 16
M  V30 16 1 16 17
M  V30 17 1 16 18
M  V30 18 2 18 19
M  V30 19 1 19 20
M  V30 20 2 20 21
M  V30 21 1 21 22
M  V30 22 2 22 23
M  V30 23 1 23 24
M  V30 24 2 24 25
M  V30 25 1 25 26
M  V30 26 2 26 27
M  V30 27 1 27 28
M  V30 28 2 28 29
M  V30 29 1 29 30
M  V30 30 1 23 31
M  V30 31 2 31 32
M  V30 32 1 22 33
M  V30 33 2 33 34
M  V30 34 1 33 35
M  V30 35 1 35 36
M  V30 36 2 36 37
M  V30 37 1 32 2
M  V30 38 1 19 3
M  V30 39 1 32 20
M  V30 40 1 15 11
M  V30 41 1 36 21
M  V30 42 1 29 24
M  V30 43 1 1 38
M  V30 44 1 1 39
M  V30 45 1 1 40
M  V30 46 1 4 41
M  V30 47 1 8 42
M  V30 48 1 8 43
M  V30 49 1 9 44
M  V30 50 1 9 45
M  V30 51 1 10 46
M  V30 52 1 10 47
M  V30 53 1 12 48
M  V30 54 1 12 49
M  V30 55 1 13 50
M  V30 56 1 13 51
M  V30 57 1 14 52
M  V30 58 1 14 53
M  V30 59 1 15 54
M  V30 60 1 15 55
M  V30 61 1 17 56
M  V30 62 1 18 57
M  V30 63 1 25 58
M  V30 64 1 26 59
M  V30 65 1 27 60
M  V30 66 1 28 61
M  V30 67 1 31 62
M  V30 68 1 35 63
M  V30 END BOND
M  V30 END CTAB
M  END
>  <Dataset>  (132) 
ChEMBL_Kinases

>  <Ligand_Instance>  (132) 
nan

>  <PDB_ID>  (132) 
nan

>  <Standardized_SMILES>  (132) 
Cn1c2cc([S+]([O-])CCCN3CCCC3)c(O)cc2c2c3c(c(-c4ccccc4Cl)cc21)C(=O)NC3=O

>  <Name>  (132) 
nan

>  <Pocket>  (132) 
nan

>  <ATP_Site>  (132) 
nan

>  <Peripheral>  (132) 
nan

>  <Num_H_Atoms_ProtBoundConf>  (132) 
nan

>  <Num_Resolved_Atoms>  (132) 
nan

>  <Num_Not_Resolved_Atoms>  (132) 
nan

$$$$
CHEMBL270849
     RDKit          3D

  0  0  0  0  0  0  0  0  0  0999 V3000
M  V30 BEGIN CTAB
M  V30 COUNTS 46 49 0 0 0
M  V30 BEGIN ATOM
M  V30 1 Cl -1.552981 -7.624063 1.572202 0
M  V30 2 C -1.196545 -5.947838 1.247596 0
M  V30 3 C -0.342766 -5.261474 2.072769 0
M  V30 4 C -0.062410 -3.927654 1.809870 0
M  V30 5 C -0.672858 -3.377601 0.718232 0
M  V30 6 C -1.528443 -3.987629 -0.146357 0
M  V30 7 N -2.158766 -3.407378 -1.275978 0
M  V30 8 C -2.070007 -2.076194 -1.752441 0
M  V30 9 N -2.743999 -1.732460 -2.858475 0
M  V30 10 C -2.709897 -0.498090 -3.366086 0
M  V30 11 C -1.961182 0.474935 -2.746975 0
M  V30 12 C -1.255760 0.163239 -1.610723 0
M  V30 13 C -0.461845 1.186634 -0.947471 0
M  V30 14 C -0.383500 2.476685 -1.417064 0
M  V30 15 C 0.360813 3.460527 -0.804315 0
M  V30 16 C 1.059285 3.132026 0.334519 0
M  V30 17 C 1.044058 1.853864 0.888337 0
M  V30 18 N 1.766476 1.476386 2.080766 0
M  V30 19 C 1.596843 0.106830 2.520753 0
M  V30 20 C 2.421886 -0.156047 3.744330 0
M  V30 21 N 2.726386 1.030352 4.514410 0
M  V30 22 C 3.463027 1.997142 3.698104 0
M  V30 23 C 2.558903 2.586002 2.636863 0
M  V30 24 C 0.268224 0.950828 0.194217 0
M  V30 25 N -1.369204 -1.106259 -1.199707 0
M  V30 26 C -1.771675 -5.322961 0.167587 0
M  V30 27 H 0.109504 -5.759465 2.925831 0
M  V30 28 H 0.606964 -3.378487 2.452284 0
M  V30 29 H -0.427532 -2.344195 0.550588 0
M  V30 30 H -2.780266 -4.067196 -1.835701 0
M  V30 31 H -3.299687 -0.348472 -4.265522 0
M  V30 32 H -1.993113 1.428916 -3.221142 0
M  V30 33 H -0.899983 2.811046 -2.301022 0
M  V30 34 H 0.418195 4.471819 -1.179212 0
M  V30 35 H 1.648797 3.883072 0.833566 0
M  V30 36 H 1.978250 -0.607450 1.735535 0
M  V30 37 H 0.530866 -0.161023 2.654244 0
M  V30 38 H 1.780781 -0.788491 4.425088 0
M  V30 39 H 3.365446 -0.728058 3.526876 0
M  V30 40 H 1.884713 1.489418 4.887545 0
M  V30 41 H 4.316629 1.466758 3.262282 0
M  V30 42 H 3.808701 2.802574 4.345814 0
M  V30 43 H 1.834407 3.289763 3.040051 0
M  V30 44 H 3.191056 3.003725 1.828739 0
M  V30 45 H 0.231741 -0.058122 0.597064 0
M  V30 46 H -2.441233 -5.922403 -0.449972 0
M  V30 END ATOM
M  V30 BEGIN BOND
M  V30 1 1 1 2
M  V30 2 2 2 3
M  V30 3 1 3 4
M  V30 4 2 4 5
M  V30 5 1 5 6
M  V30 6 1 6 7
M  V30 7 1 7 8
M  V30 8 2 8 9
M  V30 9 1 9 10
M  V30 10 2 10 11
M  V30 11 1 11 12
M  V30 12 1 12 13
M  V30 13 2 13 14
M  V30 14 1 14 15
M  V30 15 2 15 16
M  V30 16 1 16 17
M  V30 17 1 17 18
M  V30 18 1 18 19
M  V30 19 1 19 20
M  V30 20 1 20 21
M  V30 21 1 21 22
M  V30 22 1 22 23
M  V30 23 2 17 24
M  V30 24 2 12 25
M  V30 25 2 6 26
M  V30 26 1 26 2
M  V30 27 1 25 8
M  V30 28 1 24 13
M  V30 29 1 23 18
M  V30 30 1 3 27
M  V30 31 1 4 28
M  V30 32 1 5 29
M  V30 33 1 7 30
M  V30 34 1 10 31
M  V30 35 1 11 32
M  V30 36 1 14 33
M  V30 37 1 15 34
M  V30 38 1 16 35
M  V30 39 1 19 36
M  V30 40 1 19 37
M  V30 41 1 20 38
M  V30 42 1 20 39
M  V30 43 1 21 40
M  V30 44 1 22 41
M  V30 45 1 22 42
M  V30 46 1 23 43
M  V30 47 1 23 44
M  V30 48 1 24 45
M  V30 49 1 26 46
M  V30 END BOND
M  V30 END CTAB
M  END
>  <Dataset>  (133) 
ChEMBL_Kinases

>  <Ligand_Instance>  (133) 
nan

>  <PDB_ID>  (133) 
nan

>  <Standardized_SMILES>  (133) 
Clc1cccc(Nc2nccc(-c3cccc(N4CCNCC4)c3)n2)c1

>  <Name>  (133) 
nan

>  <Pocket>  (133) 
nan

>  <ATP_Site>  (133) 
nan

>  <Peripheral>  (133) 
nan

>  <Num_H_Atoms_ProtBoundConf>  (133) 
nan

>  <Num_Resolved_Atoms>  (133) 
nan

>  <Num_Not_Resolved_Atoms>  (133) 
nan

$$$$
CHEMBL270847
     RDKit          3D

  0  0  0  0  0  0  0  0  0  0999 V3000
M  V30 BEGIN CTAB
M  V30 COUNTS 68 74 0 0 0
M  V30 BEGIN ATOM
M  V30 1 O 3.094952 -1.238468 5.542963 0
M  V30 2 C 3.908485 -0.927225 4.636283 0
M  V30 3 N 5.216680 -1.226727 4.556709 0
M  V30 4 C 5.700085 -0.695113 3.420726 0
M  V30 5 C 6.957501 -0.728139 2.904348 0
M  V30 6 C 7.201979 -0.088842 1.690691 0
M  V30 7 C 6.164245 0.554036 1.055552 0
M  V30 8 C 4.917727 0.559762 1.614016 0
M  V30 9 C 4.625729 -0.067754 2.828965 0
M  V30 10 N 3.494998 -0.204872 3.579984 0
M  V30 11 C 2.262163 0.381994 3.128490 0
M  V30 12 C 1.087657 -0.308529 3.783609 0
M  V30 13 C -0.226053 0.242302 3.264355 0
M  V30 14 N -0.053602 1.581330 2.728866 0
M  V30 15 C -1.300182 2.187666 2.385467 0
M  V30 16 C -1.963053 1.343868 1.358342 0
M  V30 17 C -2.822392 0.315580 1.685559 0
M  V30 18 C -3.421197 -0.448862 0.705050 0
M  V30 19 C -3.177382 -0.207300 -0.652927 0
M  V30 20 C -3.905729 -1.122294 -1.503945 0
M  V30 21 N -5.270140 -1.185009 -1.515752 0
M  V30 22 C -5.929485 -2.043437 -2.315173 0
M  V30 23 C -5.279992 -2.911829 -3.170528 0
M  V30 24 C -5.924174 -3.860523 -4.057343 0
M  V30 25 N -7.245778 -4.053942 -4.194567 0
M  V30 26 N -7.393955 -5.008016 -5.104605 0
M  V30 27 N -6.223556 -5.412669 -5.535612 0
M  V30 28 N -5.316691 -4.715616 -4.899959 0
M  V30 29 C -3.904542 -2.826774 -3.137697 0
M  V30 30 C -3.189202 -1.949717 -2.322386 0
M  V30 31 C -1.735847 -1.999608 -2.422221 0
M  V30 32 C -1.304968 -1.694388 -3.705891 0
M  V30 33 C 0.032687 -1.678027 -4.044435 0
M  V30 34 C 0.965475 -1.974925 -3.072909 0
M  V30 35 C 0.541436 -2.279306 -1.793666 0
M  V30 36 C -0.789150 -2.298528 -1.445618 0
M  V30 37 C -2.317822 0.821292 -0.979700 0
M  V30 38 C -1.729402 1.573774 0.016839 0
M  V30 39 C 0.821143 2.384091 3.535342 0
M  V30 40 C 2.233968 1.871617 3.346802 0
M  V30 41 H 5.760137 -1.776504 5.256496 0
M  V30 42 H 7.772611 -1.238442 3.412404 0
M  V30 43 H 8.201780 -0.116682 1.282261 0
M  V30 44 H 6.327006 1.051642 0.123170 0
M  V30 45 H 4.127533 1.077152 1.082447 0
M  V30 46 H 2.172966 0.183700 2.032696 0
M  V30 47 H 1.143370 -0.187358 4.865979 0
M  V30 48 H 1.122524 -1.378617 3.502685 0
M  V30 49 H -0.940313 0.218994 4.111656 0
M  V30 50 H -0.575485 -0.380043 2.418283 0
M  V30 51 H -1.060182 3.173411 1.890005 0
M  V30 52 H -1.974509 2.341653 3.259277 0
M  V30 53 H -2.987548 0.157539 2.750859 0
M  V30 54 H -4.075254 -1.225077 1.116655 0
M  V30 55 H -7.029382 -2.088430 -2.319555 0
M  V30 56 H -4.291114 -4.856043 -5.072421 0
M  V30 57 H -3.353183 -3.504744 -3.806852 0
M  V30 58 H -1.943285 -1.443097 -4.559234 0
M  V30 59 H 0.425526 -1.447953 -5.026830 0
M  V30 60 H 2.045128 -1.979962 -3.275084 0
M  V30 61 H 1.205749 -2.518442 -0.993471 0
M  V30 62 H -1.235282 -2.516086 -0.501886 0
M  V30 63 H -2.191250 0.932549 -2.040876 0
M  V30 64 H -1.070506 2.357819 -0.344946 0
M  V30 65 H 0.781564 3.417427 3.139569 0
M  V30 66 H 0.571980 2.340504 4.618973 0
M  V30 67 H 2.791413 2.176546 4.257064 0
M  V30 68 H 2.658169 2.386808 2.461418 0
M  V30 END ATOM
M  V30 BEGIN BOND
M  V30 1 2 1 2
M  V30 2 1 2 3
M  V30 3 1 3 4
M  V30 4 2 4 5
M  V30 5 1 5 6
M  V30 6 2 6 7
M  V30 7 1 7 8
M  V30 8 2 8 9
M  V30 9 1 9 10
M  V30 10 1 10 11
M  V30 11 1 11 12
M  V30 12 1 12 13
M  V30 13 1 13 14
M  V30 14 1 14 15
M  V30 15 1 15 16
M  V30 16 2 16 17
M  V30 17 1 17 18
M  V30 18 2 18 19
M  V30 19 1 19 20
M  V30 20 2 20 21
M  V30 21 1 21 22
M  V30 22 2 22 23
M  V30 23 1 23 24
M  V30 24 2 24 25
M  V30 25 1 25 26
M  V30 26 2 26 27
M  V30 27 1 27 28
M  V30 28 1 23 29
M  V30 29 2 29 30
M  V30 30 1 30 31
M  V30 31 2 31 32
M  V30 32 1 32 33
M  V30 33 2 33 34
M  V30 34 1 34 35
M  V30 35 2 35 36
M  V30 36 1 19 37
M  V30 37 2 37 38
M  V30 38 1 14 39
M  V30 39 1 39 40
M  V30 40 1 10 2
M  V30 41 1 40 11
M  V30 42 1 9 4
M  V30 43 1 38 16
M  V30 44 1 30 20
M  V30 45 1 36 31
M  V30 46 1 28 24
M  V30 47 1 3 41
M  V30 48 1 5 42
M  V30 49 1 6 43
M  V30 50 1 7 44
M  V30 51 1 8 45
M  V30 52 1 11 46
M  V30 53 1 12 47
M  V30 54 1 12 48
M  V30 55 1 13 49
M  V30 56 1 13 50
M  V30 57 1 15 51
M  V30 58 1 15 52
M  V30 59 1 17 53
M  V30 60 1 18 54
M  V30 61 1 22 55
M  V30 62 1 28 56
M  V30 63 1 29 57
M  V30 64 1 32 58
M  V30 65 1 33 59
M  V30 66 1 34 60
M  V30 67 1 35 61
M  V30 68 1 36 62
M  V30 69 1 37 63
M  V30 70 1 38 64
M  V30 71 1 39 65
M  V30 72 1 39 66
M  V30 73 1 40 67
M  V30 74 1 40 68
M  V30 END BOND
M  V30 END CTAB
M  END
>  <Dataset>  (134) 
ChEMBL_Kinases

>  <Ligand_Instance>  (134) 
nan

>  <PDB_ID>  (134) 
nan

>  <Standardized_SMILES>  (134) 
O=c1[nH]c2ccccc2n1C1CCN(Cc2ccc(-c3ncc(-c4nnn[nH]4)cc3-c3ccccc3)cc2)CC1

>  <Name>  (134) 
nan

>  <Pocket>  (134) 
nan

>  <ATP_Site>  (134) 
nan

>  <Peripheral>  (134) 
nan

>  <Num_H_Atoms_ProtBoundConf>  (134) 
nan

>  <Num_Resolved_Atoms>  (134) 
nan

>  <Num_Not_Resolved_Atoms>  (134) 
nan

$$$$
CHEMBL270722
     RDKit          3D

  0  0  0  0  0  0  0  0  0  0999 V3000
M  V30 BEGIN CTAB
M  V30 COUNTS 29 31 0 0 0
M  V30 BEGIN ATOM
M  V30 1 C 0.442746 -2.632582 4.016241 0
M  V30 2 C 0.850800 -2.752525 2.595682 0
M  V30 3 C 1.512249 -3.899962 2.143396 0
M  V30 4 C 1.924686 -4.079718 0.819694 0
M  V30 5 O 2.518740 -5.140459 0.478630 0
M  V30 6 O 1.663305 -3.104498 -0.016305 0
M  V30 7 C 1.051452 -1.991123 0.296964 0
M  V30 8 C 0.790952 -0.981503 -0.613483 0
M  V30 9 C 0.147188 0.191269 -0.289115 0
M  V30 10 C -0.095737 1.175494 -1.223512 0
M  V30 11 N 0.313518 1.023300 -2.576798 0 CHG=1 VAL=4
M  V30 12 O 1.561117 1.139777 -2.696629 0
M  V30 13 O -0.394747 0.775890 -3.726078 0 CHG=-1 VAL=1
M  V30 14 C -0.754501 2.314540 -0.771075 0
M  V30 15 O -1.038869 3.351286 -1.640574 0
M  V30 16 C -1.153293 2.471815 0.541667 0
M  V30 17 C -0.887176 1.456078 1.442498 0
M  V30 18 C -0.228084 0.295856 1.029609 0
M  V30 19 C -0.026500 -0.633579 2.025270 0
M  V30 20 C 0.633982 -1.796217 1.612693 0
M  V30 21 H 0.726672 -1.609820 4.373068 0
M  V30 22 H 1.048674 -3.361012 4.587822 0
M  V30 23 H -0.634760 -2.804275 4.137263 0
M  V30 24 H 1.727398 -4.711185 2.855690 0
M  V30 25 H 1.120601 -1.138504 -1.651358 0
M  V30 26 H -1.871351 3.906894 -1.507265 0
M  V30 27 H -1.669125 3.370510 0.893100 0
M  V30 28 H -1.210129 1.602255 2.466934 0
M  V30 29 H -0.346914 -0.490401 3.044665 0
M  V30 END ATOM
M  V30 BEGIN BOND
M  V30 1 1 1 2
M  V30 2 2 2 3
M  V30 3 1 3 4
M  V30 4 2 4 5
M  V30 5 1 4 6
M  V30 6 1 6 7
M  V30 7 2 7 8
M  V30 8 1 8 9
M  V30 9 2 9 10
M  V30 10 1 10 11
M  V30 11 2 11 12
M  V30 12 1 11 13
M  V30 13 1 10 14
M  V30 14 1 14 15
M  V30 15 2 14 16
M  V30 16 1 16 17
M  V30 17 2 17 18
M  V30 18 1 18 19
M  V30 19 2 19 20
M  V30 20 1 20 2
M  V30 21 1 20 7
M  V30 22 1 18 9
M  V30 23 1 1 21
M  V30 24 1 1 22
M  V30 25 1 1 23
M  V30 26 1 3 24
M  V30 27 1 8 25
M  V30 28 1 15 26
M  V30 29 1 16 27
M  V30 30 1 17 28
M  V30 31 1 19 29
M  V30 END BOND
M  V30 END CTAB
M  END
>  <Dataset>  (135) 
ChEMBL_Kinases

>  <Ligand_Instance>  (135) 
nan

>  <PDB_ID>  (135) 
nan

>  <Standardized_SMILES>  (135) 
Cc1cc(=O)oc2cc3c([N+](=O)[O-])c(O)ccc3cc12

>  <Name>  (135) 
nan

>  <Pocket>  (135) 
nan

>  <ATP_Site>  (135) 
nan

>  <Peripheral>  (135) 
nan

>  <Num_H_Atoms_ProtBoundConf>  (135) 
nan

>  <Num_Resolved_Atoms>  (135) 
nan

>  <Num_Not_Resolved_Atoms>  (135) 
nan

$$$$
CHEMBL270687
     RDKit          3D

  0  0  0  0  0  0  0  0  0  0999 V3000
M  V30 BEGIN CTAB
M  V30 COUNTS 35 37 0 0 0
M  V30 BEGIN ATOM
M  V30 1 C 0.121430 -1.211915 3.775527 0
M  V30 2 C -0.513360 -2.419594 3.084528 0
M  V30 3 C 0.284992 -2.670494 1.829404 0
M  V30 4 O 0.257196 -1.549115 0.933455 0
M  V30 5 C 0.974431 -1.674829 -0.249167 0
M  V30 6 C 1.691291 -2.840562 -0.543909 0
M  V30 7 C 2.434915 -3.069519 -1.681622 0
M  V30 8 N 2.443314 -2.045304 -2.565927 0
M  V30 9 C 1.766597 -0.904045 -2.322907 0
M  V30 10 N 1.634810 0.219376 -3.041900 0
M  V30 11 C 0.864529 1.128975 -2.436650 0
M  V30 12 C 0.446459 0.577007 -1.219620 0
M  V30 13 C -0.414788 1.236690 -0.252120 0
M  V30 14 C -0.845172 2.518396 -0.539073 0
M  V30 15 C -1.658415 3.301846 0.240312 0
M  V30 16 N -2.088824 2.778776 1.409068 0
M  V30 17 C -1.686228 1.531832 1.716206 0
M  V30 18 N -2.153591 0.998931 2.949251 0
M  V30 19 N -0.896825 0.816302 0.923738 0
M  V30 20 C 1.022205 -0.674199 -1.185105 0
M  V30 21 H 0.988176 -1.522982 4.394442 0
M  V30 22 H -0.608665 -0.766693 4.476082 0
M  V30 23 H 0.419995 -0.478412 3.026510 0
M  V30 24 H -1.550822 -2.143579 2.855733 0
M  V30 25 H -0.410663 -3.266232 3.772804 0
M  V30 26 H -0.147553 -3.569788 1.346372 0
M  V30 27 H 1.334804 -2.889672 2.062097 0
M  V30 28 H 1.656338 -3.632061 0.190278 0
M  V30 29 H 2.947258 -4.015284 -1.796689 0
M  V30 30 H 2.088308 0.354175 -3.967957 0
M  V30 31 H 0.638172 2.110278 -2.865545 0
M  V30 32 H -0.537977 3.016199 -1.473705 0
M  V30 33 H -1.961159 4.299804 -0.039171 0
M  V30 34 H -2.848159 0.295966 3.319187 0
M  V30 35 H -1.798860 1.288271 3.905366 0
M  V30 END ATOM
M  V30 BEGIN BOND
M  V30 1 1 1 2
M  V30 2 1 2 3
M  V30 3 1 3 4
M  V30 4 1 4 5
M  V30 5 2 5 6
M  V30 6 1 6 7
M  V30 7 2 7 8
M  V30 8 1 8 9
M  V30 9 1 9 10
M  V30 10 1 10 11
M  V30 11 2 11 12
M  V30 12 1 12 13
M  V30 13 2 13 14
M  V30 14 1 14 15
M  V30 15 2 15 16
M  V30 16 1 16 17
M  V30 17 1 17 18
M  V30 18 2 17 19
M  V30 19 1 12 20
M  V30 20 1 20 5
M  V30 21 2 20 9
M  V30 22 1 19 13
M  V30 23 1 1 21
M  V30 24 1 1 22
M  V30 25 1 1 23
M  V30 26 1 2 24
M  V30 27 1 2 25
M  V30 28 1 3 26
M  V30 29 1 3 27
M  V30 30 1 6 28
M  V30 31 1 7 29
M  V30 32 1 10 30
M  V30 33 1 11 31
M  V30 34 1 14 32
M  V30 35 1 15 33
M  V30 36 1 18 34
M  V30 37 1 18 35
M  V30 END BOND
M  V30 END CTAB
M  END
>  <Dataset>  (136) 
ChEMBL_Kinases

>  <Ligand_Instance>  (136) 
nan

>  <PDB_ID>  (136) 
nan

>  <Standardized_SMILES>  (136) 
CCCOc1ccnc2[nH]cc(-c3ccnc(N)n3)c12

>  <Name>  (136) 
MERIOLIN 5

>  <Pocket>  (136) 
nan

>  <ATP_Site>  (136) 
nan

>  <Peripheral>  (136) 
nan

>  <Num_H_Atoms_ProtBoundConf>  (136) 
nan

>  <Num_Resolved_Atoms>  (136) 
nan

>  <Num_Not_Resolved_Atoms>  (136) 
nan

$$$$
CHEMBL270686
     RDKit          3D

  0  0  0  0  0  0  0  0  0  0999 V3000
M  V30 BEGIN CTAB
M  V30 COUNTS 29 31 0 0 0
M  V30 BEGIN ATOM
M  V30 1 C 0.061573 -0.766996 3.861107 0
M  V30 2 O 0.169646 -0.745904 2.451898 0
M  V30 3 C 0.707611 -1.862433 1.834493 0
M  V30 4 C 1.132146 -2.974988 2.559486 0
M  V30 5 C 1.676098 -4.118676 2.012380 0
M  V30 6 N 1.790742 -4.125510 0.670348 0
M  V30 7 C 1.385164 -3.057117 -0.051178 0
M  V30 8 N 1.409117 -2.858860 -1.377647 0
M  V30 9 C 0.916413 -1.661182 -1.729297 0
M  V30 10 C 0.540125 -1.023836 -0.545038 0
M  V30 11 C -0.046058 0.301921 -0.443883 0
M  V30 12 C -0.260128 1.016397 -1.613766 0
M  V30 13 C -0.798989 2.272802 -1.718043 0
M  V30 14 N -1.160648 2.886850 -0.587009 0
M  V30 15 C -0.975624 2.239938 0.578092 0
M  V30 16 N -1.332936 2.816979 1.850745 0
M  V30 17 N -0.445232 1.015256 0.617947 0
M  V30 18 C 0.840867 -1.907589 0.469481 0
M  V30 19 H -0.612353 0.077706 4.179367 0
M  V30 20 H -0.450079 -1.702783 4.228959 0
M  V30 21 H 1.019966 -0.587902 4.383150 0
M  V30 22 H 1.040184 -2.972511 3.651715 0
M  V30 23 H 1.981115 -4.939848 2.647739 0
M  V30 24 H 1.767525 -3.548700 -2.072002 0
M  V30 25 H 0.841390 -1.292355 -2.759509 0
M  V30 26 H 0.016926 0.564405 -2.576688 0
M  V30 27 H -0.932151 2.760590 -2.672990 0
M  V30 28 H -0.429285 3.063545 2.336814 0
M  V30 29 H -2.130230 3.078400 2.462024 0
M  V30 END ATOM
M  V30 BEGIN BOND
M  V30 1 1 1 2
M  V30 2 1 2 3
M  V30 3 2 3 4
M  V30 4 1 4 5
M  V30 5 2 5 6
M  V30 6 1 6 7
M  V30 7 1 7 8
M  V30 8 1 8 9
M  V30 9 2 9 10
M  V30 10 1 10 11
M  V30 11 2 11 12
M  V30 12 1 12 13
M  V30 13 2 13 14
M  V30 14 1 14 15
M  V30 15 1 15 16
M  V30 16 2 15 17
M  V30 17 1 10 18
M  V30 18 1 18 3
M  V30 19 2 18 7
M  V30 20 1 17 11
M  V30 21 1 1 19
M  V30 22 1 1 20
M  V30 23 1 1 21
M  V30 24 1 4 22
M  V30 25 1 5 23
M  V30 26 1 8 24
M  V30 27 1 9 25
M  V30 28 1 12 26
M  V30 29 1 13 27
M  V30 30 1 16 28
M  V30 31 1 16 29
M  V30 END BOND
M  V30 END CTAB
M  END
>  <Dataset>  (137) 
ChEMBL_Kinases

>  <Ligand_Instance>  (137) 
nan

>  <PDB_ID>  (137) 
nan

>  <Standardized_SMILES>  (137) 
COc1ccnc2[nH]cc(-c3ccnc(N)n3)c12

>  <Name>  (137) 
MERIOLIN 3

>  <Pocket>  (137) 
nan

>  <ATP_Site>  (137) 
nan

>  <Peripheral>  (137) 
nan

>  <Num_H_Atoms_ProtBoundConf>  (137) 
nan

>  <Num_Resolved_Atoms>  (137) 
nan

>  <Num_Not_Resolved_Atoms>  (137) 
nan

$$$$
CHEMBL270640
     RDKit          3D

  0  0  0  0  0  0  0  0  0  0999 V3000
M  V30 BEGIN CTAB
M  V30 COUNTS 51 55 0 0 0
M  V30 BEGIN ATOM
M  V30 1 C 0.670908 -4.798043 4.075341 0
M  V30 2 C -0.694267 -4.233789 3.849414 0
M  V30 3 C -0.655891 -2.734308 3.878874 0
M  V30 4 N -0.839803 -2.114202 5.059739 0
M  V30 5 C -0.764294 -0.808614 4.837490 0
M  V30 6 C -0.879801 0.270679 5.695167 0
M  V30 7 N -0.753062 1.511074 5.161951 0
M  V30 8 C -0.522233 1.687552 3.840411 0
M  V30 9 C -0.404517 2.981300 3.368917 0
M  V30 10 C -0.168940 3.138143 2.016219 0
M  V30 11 C -0.046294 2.070327 1.118655 0
M  V30 12 C 0.200276 2.342884 -0.279066 0
M  V30 13 C 0.424858 2.580994 -1.444969 0
M  V30 14 C 0.674357 2.881637 -2.836698 0
M  V30 15 C 1.609132 3.884523 -3.109473 0
M  V30 16 C 1.875250 4.201160 -4.432042 0
M  V30 17 C 1.206434 3.513701 -5.440406 0
M  V30 18 N 0.309141 2.550313 -5.150468 0
M  V30 19 C 0.036683 2.228006 -3.871363 0
M  V30 20 C -0.167989 0.785761 1.615026 0
M  V30 21 C -0.400895 0.638374 2.953660 0
M  V30 22 C -0.529221 -0.618227 3.493499 0
M  V30 23 N -0.463868 -1.820392 2.908682 0
M  V30 24 C -0.256515 -2.294688 1.614517 0
M  V30 25 C -1.363534 -2.503884 0.779294 0
M  V30 26 C -1.306491 -2.978953 -0.514633 0
M  V30 27 C -0.069019 -3.277653 -1.046495 0
M  V30 28 C -0.000388 -3.785304 -2.427362 0
M  V30 29 C -0.083615 -5.251274 -2.479820 0
M  V30 30 N -0.132611 -6.403048 -2.528656 0
M  V30 31 C 1.058519 -3.092755 -0.273347 0
M  V30 32 C 0.970901 -2.616004 1.018086 0
M  V30 33 H 0.921365 -4.625608 5.142200 0
M  V30 34 H 0.700204 -5.862919 3.843005 0
M  V30 35 H 1.426141 -4.256969 3.474564 0
M  V30 36 H -1.086281 -4.493580 2.824329 0
M  V30 37 H -1.429015 -4.642264 4.551629 0
M  V30 38 H -1.064955 0.112804 6.752324 0
M  V30 39 H -0.486726 3.852156 3.996634 0
M  V30 40 H -0.075916 4.146538 1.641207 0
M  V30 41 H 2.136147 4.426687 -2.334162 0
M  V30 42 H 2.609245 4.988434 -4.639392 0
M  V30 43 H 1.453893 3.803124 -6.468627 0
M  V30 44 H -0.669835 1.467738 -3.576497 0
M  V30 45 H -0.065841 0.036337 0.891250 0
M  V30 46 H -2.339296 -2.273400 1.184667 0
M  V30 47 H -2.237370 -3.100533 -1.067424 0
M  V30 48 H 0.918669 -3.454988 -2.917270 0
M  V30 49 H -0.856661 -3.419271 -3.039657 0
M  V30 50 H 2.036222 -3.312060 -0.647713 0
M  V30 51 H 1.824504 -2.454223 1.663452 0
M  V30 END ATOM
M  V30 BEGIN BOND
M  V30 1 1 1 2
M  V30 2 1 2 3
M  V30 3 2 3 4
M  V30 4 1 4 5
M  V30 5 2 5 6
M  V30 6 1 6 7
M  V30 7 2 7 8
M  V30 8 1 8 9
M  V30 9 2 9 10
M  V30 10 1 10 11
M  V30 11 1 11 12
M  V30 12 3 12 13
M  V30 13 1 13 14
M  V30 14 2 14 15
M  V30 15 1 15 16
M  V30 16 2 16 17
M  V30 17 1 17 18
M  V30 18 2 18 19
M  V30 19 2 11 20
M  V30 20 1 20 21
M  V30 21 2 21 22
M  V30 22 1 22 23
M  V30 23 1 23 24
M  V30 24 2 24 25
M  V30 25 1 25 26
M  V30 26 2 26 27
M  V30 27 1 27 28
M  V30 28 1 28 29
M  V30 29 3 29 30
M  V30 30 1 27 31
M  V30 31 2 31 32
M  V30 32 1 23 3
M  V30 33 1 32 24
M  V30 34 1 22 5
M  V30 35 1 21 8
M  V30 36 1 19 14
M  V30 37 1 1 33
M  V30 38 1 1 34
M  V30 39 1 1 35
M  V30 40 1 2 36
M  V30 41 1 2 37
M  V30 42 1 6 38
M  V30 43 1 9 39
M  V30 44 1 10 40
M  V30 45 1 15 41
M  V30 46 1 16 42
M  V30 47 1 17 43
M  V30 48 1 19 44
M  V30 49 1 20 45
M  V30 50 1 25 46
M  V30 51 1 26 47
M  V30 52 1 28 48
M  V30 53 1 28 49
M  V30 54 1 31 50
M  V30 55 1 32 51
M  V30 END BOND
M  V30 END CTAB
M  END
>  <Dataset>  (138) 
ChEMBL_Kinases

>  <Ligand_Instance>  (138) 
nan

>  <PDB_ID>  (138) 
nan

>  <Standardized_SMILES>  (138) 
CCc1nc2cnc3ccc(C#Cc4cccnc4)cc3c2n1-c1ccc(CC#N)cc1

>  <Name>  (138) 
nan

>  <Pocket>  (138) 
nan

>  <ATP_Site>  (138) 
nan

>  <Peripheral>  (138) 
nan

>  <Num_H_Atoms_ProtBoundConf>  (138) 
nan

>  <Num_Resolved_Atoms>  (138) 
nan

>  <Num_Not_Resolved_Atoms>  (138) 
nan

$$$$
CHEMBL270639
     RDKit          3D

  0  0  0  0  0  0  0  0  0  0999 V3000
M  V30 BEGIN CTAB
M  V30 COUNTS 48 52 0 0 0
M  V30 BEGIN ATOM
M  V30 1 C -0.699110 -5.309274 2.468149 0
M  V30 2 C 0.478278 -4.467847 2.071272 0
M  V30 3 N 1.725023 -5.009863 2.155597 0
M  V30 4 C 2.616513 -4.065992 1.747059 0
M  V30 5 C 3.979766 -4.099309 1.642297 0
M  V30 6 N 4.575259 -2.977923 1.196542 0
M  V30 7 C 3.864971 -1.883473 0.871852 0
M  V30 8 C 4.552886 -0.782225 0.425277 0
M  V30 9 C 3.815198 0.341400 0.092649 0
M  V30 10 C 2.420381 0.417236 0.185140 0
M  V30 11 C 1.734620 1.633800 -0.184667 0
M  V30 12 C 1.146325 2.643561 -0.503741 0
M  V30 13 C 0.424932 3.831922 -0.882542 0
M  V30 14 C -0.953004 3.777767 -0.812851 0
M  V30 15 C -1.598831 4.948054 -1.188293 0
M  V30 16 C -0.835343 6.028002 -1.585272 0
M  V30 17 N 0.508767 6.038537 -1.638817 0
M  V30 18 C 1.191368 4.910414 -1.279134 0
M  V30 19 C 1.768020 -0.711205 0.638249 0
M  V30 20 C 2.496843 -1.825976 0.968515 0
M  V30 21 C 1.868955 -2.957329 1.420551 0
M  V30 22 N 0.572217 -3.206023 1.618927 0
M  V30 23 C -0.634566 -2.481391 1.466898 0
M  V30 24 C -1.206428 -1.703115 2.483159 0
M  V30 25 C -2.388852 -1.013919 2.327396 0
M  V30 26 C -3.063786 -1.071786 1.131413 0
M  V30 27 C -4.339665 -0.327527 0.964855 0
M  V30 28 C -5.500719 -1.147013 1.348670 0
M  V30 29 N -6.396810 -1.798214 1.654782 0
M  V30 30 C -2.559529 -1.817286 0.089978 0
M  V30 31 C -1.373203 -2.497038 0.275005 0
M  V30 32 H -1.559940 -4.611509 2.643610 0
M  V30 33 H -0.979185 -6.039815 1.707726 0
M  V30 34 H -0.542512 -5.819940 3.426875 0
M  V30 35 H 4.479933 -5.004733 1.918375 0
M  V30 36 H 5.631563 -0.776769 0.331182 0
M  V30 37 H 4.352842 1.211280 -0.259611 0
M  V30 38 H -1.458270 2.882242 -0.488422 0
M  V30 39 H -2.682305 4.977536 -1.158094 0
M  V30 40 H -1.428287 6.904148 -1.862292 0
M  V30 41 H 2.269800 4.844696 -1.296787 0
M  V30 42 H 0.705590 -0.596259 0.688573 0
M  V30 43 H -0.608701 -1.710962 3.397343 0
M  V30 44 H -2.760807 -0.430612 3.177518 0
M  V30 45 H -4.491886 -0.062828 -0.105598 0
M  V30 46 H -4.319521 0.600111 1.592358 0
M  V30 47 H -3.085929 -1.865202 -0.849626 0
M  V30 48 H -0.968839 -3.085564 -0.537321 0
M  V30 END ATOM
M  V30 BEGIN BOND
M  V30 1 1 1 2
M  V30 2 2 2 3
M  V30 3 1 3 4
M  V30 4 2 4 5
M  V30 5 1 5 6
M  V30 6 2 6 7
M  V30 7 1 7 8
M  V30 8 2 8 9
M  V30 9 1 9 10
M  V30 10 1 10 11
M  V30 11 3 11 12
M  V30 12 1 12 13
M  V30 13 2 13 14
M  V30 14 1 14 15
M  V30 15 2 15 16
M  V30 16 1 16 17
M  V30 17 2 17 18
M  V30 18 2 10 19
M  V30 19 1 19 20
M  V30 20 2 20 21
M  V30 21 1 21 22
M  V30 22 1 22 23
M  V30 23 2 23 24
M  V30 24 1 24 25
M  V30 25 2 25 26
M  V30 26 1 26 27
M  V30 27 1 27 28
M  V30 28 3 28 29
M  V30 29 1 26 30
M  V30 30 2 30 31
M  V30 31 1 22 2
M  V30 32 1 31 23
M  V30 33 1 21 4
M  V30 34 1 20 7
M  V30 35 1 18 13
M  V30 36 1 1 32
M  V30 37 1 1 33
M  V30 38 1 1 34
M  V30 39 1 5 35
M  V30 40 1 8 36
M  V30 41 1 9 37
M  V30 42 1 14 38
M  V30 43 1 15 39
M  V30 44 1 16 40
M  V30 45 1 18 41
M  V30 46 1 19 42
M  V30 47 1 24 43
M  V30 48 1 25 44
M  V30 49 1 27 45
M  V30 50 1 27 46
M  V30 51 1 30 47
M  V30 52 1 31 48
M  V30 END BOND
M  V30 END CTAB
M  END
>  <Dataset>  (139) 
ChEMBL_Kinases

>  <Ligand_Instance>  (139) 
nan

>  <PDB_ID>  (139) 
nan

>  <Standardized_SMILES>  (139) 
Cc1nc2cnc3ccc(C#Cc4cccnc4)cc3c2n1-c1ccc(CC#N)cc1

>  <Name>  (139) 
nan

>  <Pocket>  (139) 
nan

>  <ATP_Site>  (139) 
nan

>  <Peripheral>  (139) 
nan

>  <Num_H_Atoms_ProtBoundConf>  (139) 
nan

>  <Num_Resolved_Atoms>  (139) 
nan

>  <Num_Not_Resolved_Atoms>  (139) 
nan

$$$$
CHEMBL270638
     RDKit          3D

  0  0  0  0  0  0  0  0  0  0999 V3000
M  V30 BEGIN CTAB
M  V30 COUNTS 51 55 0 0 0
M  V30 BEGIN ATOM
M  V30 1 C -3.180426 -4.066767 2.783022 0
M  V30 2 C -1.864525 -3.495964 3.167440 0
M  V30 3 N -1.295414 -3.942365 4.324636 0
M  V30 4 C -0.120932 -3.313890 4.497547 0
M  V30 5 C 0.814614 -3.422369 5.505885 0
M  V30 6 N 1.893497 -2.631826 5.359868 0
M  V30 7 C 2.059794 -1.797037 4.318287 0
M  V30 8 C 3.208170 -1.013436 4.245697 0
M  V30 9 C 3.348288 -0.167353 3.164206 0
M  V30 10 C 2.407466 -0.046546 2.133470 0
M  V30 11 C 2.632757 0.861396 1.041373 0
M  V30 12 C 2.807422 1.624562 0.117365 0
M  V30 13 C 3.002261 2.520731 -0.988717 0
M  V30 14 C 2.833434 3.888759 -0.852081 0
M  V30 15 C 3.028502 4.740974 -1.942258 0
M  V30 16 C 3.393796 4.109115 -3.130108 0
M  V30 17 N 3.547644 2.787591 -3.225927 0
M  V30 18 C 3.365688 1.949172 -2.192351 0
M  V30 19 C 1.278606 -0.835497 2.231515 0
M  V30 20 C 1.133643 -1.678686 3.304439 0
M  V30 21 C 0.020590 -2.469291 3.419375 0
M  V30 22 N -1.044298 -2.589723 2.620205 0
M  V30 23 C -1.465712 -2.009977 1.407099 0
M  V30 24 C -1.154753 -2.556049 0.153699 0
M  V30 25 C -1.561335 -2.024027 -1.051958 0
M  V30 26 C -2.328075 -0.874419 -1.038393 0
M  V30 27 C -2.740359 -0.341433 -2.362826 0
M  V30 28 C -3.575523 -1.366136 -3.102445 0
M  V30 29 C -1.571894 0.003254 -3.166691 0
M  V30 30 N -0.660483 0.274670 -3.817668 0
M  V30 31 C -2.673757 -0.280305 0.152908 0
M  V30 32 C -2.245188 -0.846744 1.335236 0
M  V30 33 H -3.124457 -5.125250 2.460007 0
M  V30 34 H -3.868484 -3.981572 3.664097 0
M  V30 35 H -3.634829 -3.426395 1.985222 0
M  V30 36 H 0.646025 -4.104310 6.326880 0
M  V30 37 H 3.962026 -1.068787 5.012348 0
M  V30 38 H 4.241847 0.431703 3.122976 0
M  V30 39 H 2.549382 4.291899 0.105298 0
M  V30 40 H 2.905006 5.811218 -1.868839 0
M  V30 41 H 3.555421 4.733324 -4.002185 0
M  V30 42 H 3.513482 0.889643 -2.364935 0
M  V30 43 H 0.596894 -0.702164 1.419186 0
M  V30 44 H -0.552242 -3.461648 0.107962 0
M  V30 45 H -1.278034 -2.507559 -1.975832 0
M  V30 46 H -3.346214 0.572657 -2.269545 0
M  V30 47 H -2.984948 -2.234505 -3.433937 0
M  V30 48 H -4.000453 -0.843783 -3.984560 0
M  V30 49 H -4.429715 -1.639551 -2.422678 0
M  V30 50 H -3.273971 0.618895 0.153151 0
M  V30 51 H -2.522530 -0.370907 2.278197 0
M  V30 END ATOM
M  V30 BEGIN BOND
M  V30 1 1 1 2
M  V30 2 2 2 3
M  V30 3 1 3 4
M  V30 4 2 4 5
M  V30 5 1 5 6
M  V30 6 2 6 7
M  V30 7 1 7 8
M  V30 8 2 8 9
M  V30 9 1 9 10
M  V30 10 1 10 11
M  V30 11 3 11 12
M  V30 12 1 12 13
M  V30 13 2 13 14
M  V30 14 1 14 15
M  V30 15 2 15 16
M  V30 16 1 16 17
M  V30 17 2 17 18
M  V30 18 2 10 19
M  V30 19 1 19 20
M  V30 20 2 20 21
M  V30 21 1 21 22
M  V30 22 1 22 23
M  V30 23 2 23 24
M  V30 24 1 24 25
M  V30 25 2 25 26
M  V30 26 1 26 27
M  V30 27 1 27 28
M  V30 28 1 27 29
M  V30 29 3 29 30
M  V30 30 1 26 31
M  V30 31 2 31 32
M  V30 32 1 22 2
M  V30 33 1 32 23
M  V30 34 1 21 4
M  V30 35 1 20 7
M  V30 36 1 18 13
M  V30 37 1 1 33
M  V30 38 1 1 34
M  V30 39 1 1 35
M  V30 40 1 5 36
M  V30 41 1 8 37
M  V30 42 1 9 38
M  V30 43 1 14 39
M  V30 44 1 15 40
M  V30 45 1 16 41
M  V30 46 1 18 42
M  V30 47 1 19 43
M  V30 48 1 24 44
M  V30 49 1 25 45
M  V30 50 1 27 46
M  V30 51 1 28 47
M  V30 52 1 28 48
M  V30 53 1 28 49
M  V30 54 1 31 50
M  V30 55 1 32 51
M  V30 END BOND
M  V30 END CTAB
M  END
>  <Dataset>  (140) 
ChEMBL_Kinases

>  <Ligand_Instance>  (140) 
nan

>  <PDB_ID>  (140) 
nan

>  <Standardized_SMILES>  (140) 
Cc1nc2cnc3ccc(C#Cc4cccnc4)cc3c2n1-c1ccc(C(C)C#N)cc1

>  <Name>  (140) 
nan

>  <Pocket>  (140) 
nan

>  <ATP_Site>  (140) 
nan

>  <Peripheral>  (140) 
nan

>  <Num_H_Atoms_ProtBoundConf>  (140) 
nan

>  <Num_Resolved_Atoms>  (140) 
nan

>  <Num_Not_Resolved_Atoms>  (140) 
nan

$$$$
CHEMBL270636
     RDKit          3D

  0  0  0  0  0  0  0  0  0  0999 V3000
M  V30 BEGIN CTAB
M  V30 COUNTS 32 33 0 0 0
M  V30 BEGIN ATOM
M  V30 1 C -3.877081 -2.113069 2.225296 0
M  V30 2 C -2.630938 -2.887247 2.664026 0
M  V30 3 O -1.565076 -2.478494 2.016834 0
M  V30 4 C -0.585733 -1.842070 1.501086 0
M  V30 5 C -0.404724 -0.476200 1.754154 0
M  V30 6 C 0.647728 0.223369 1.201165 0
M  V30 7 C 1.031461 1.617658 1.340700 0
M  V30 8 C 1.386391 2.375672 0.315510 0
M  V30 9 S 1.457556 1.835174 -1.413623 0
M  V30 10 C 2.209061 3.341538 -2.041605 0
M  V30 11 S 2.646796 3.294618 -3.593327 0
M  V30 12 N 2.222399 4.221743 -0.942806 0
M  V30 13 C 1.814012 3.793866 0.302701 0
M  V30 14 O 1.781035 4.477112 1.351243 0
M  V30 15 C 1.528034 -0.478598 0.380238 0
M  V30 16 C 1.387743 -1.845012 0.098517 0
M  V30 17 C 0.306726 -2.526565 0.676133 0
M  V30 18 O 0.124450 -3.878801 0.428565 0
M  V30 19 C 1.070093 -4.515300 -0.422736 0
M  V30 20 H -3.505036 -1.142844 1.820331 0
M  V30 21 H -4.358163 -2.721417 1.412147 0
M  V30 22 H -4.524931 -1.989404 3.112896 0
M  V30 23 H -2.878784 -3.982325 2.649411 0
M  V30 24 H -2.526523 -2.677771 3.775449 0
M  V30 25 H -1.038890 0.140691 2.374547 0
M  V30 26 H 1.035250 2.073552 2.303328 0
M  V30 27 H 2.569542 5.202605 -1.189350 0
M  V30 28 H 2.390910 -0.086645 -0.111550 0
M  V30 29 H 2.063436 -2.398132 -0.530386 0
M  V30 30 H 0.794936 -5.539586 -0.700288 0
M  V30 31 H 2.097220 -4.443905 0.022220 0
M  V30 32 H 1.028987 -3.918509 -1.373453 0
M  V30 END ATOM
M  V30 BEGIN BOND
M  V30 1 1 1 2
M  V30 2 1 2 3
M  V30 3 1 3 4
M  V30 4 2 4 5
M  V30 5 1 5 6
M  V30 6 1 6 7
M  V30 7 2 7 8
M  V30 8 1 8 9
M  V30 9 1 9 10
M  V30 10 2 10 11
M  V30 11 1 10 12
M  V30 12 1 12 13
M  V30 13 2 13 14
M  V30 14 2 6 15
M  V30 15 1 15 16
M  V30 16 2 16 17
M  V30 17 1 17 18
M  V30 18 1 18 19
M  V30 19 1 17 4
M  V30 20 1 13 8
M  V30 21 1 1 20
M  V30 22 1 1 21
M  V30 23 1 1 22
M  V30 24 1 2 23
M  V30 25 1 2 24
M  V30 26 1 5 25
M  V30 27 1 7 26
M  V30 28 1 12 27
M  V30 29 1 15 28
M  V30 30 1 16 29
M  V30 31 1 19 30
M  V30 32 1 19 31
M  V30 33 1 19 32
M  V30 END BOND
M  V30 END CTAB
M  END
>  <Dataset>  (141) 
ChEMBL_Kinases

>  <Ligand_Instance>  (141) 
nan

>  <PDB_ID>  (141) 
nan

>  <Standardized_SMILES>  (141) 
CCOc1cc(/C=C2\SC(=S)NC2=O)ccc1OC

>  <Name>  (141) 
nan

>  <Pocket>  (141) 
nan

>  <ATP_Site>  (141) 
nan

>  <Peripheral>  (141) 
nan

>  <Num_H_Atoms_ProtBoundConf>  (141) 
nan

>  <Num_Resolved_Atoms>  (141) 
nan

>  <Num_Not_Resolved_Atoms>  (141) 
nan

$$$$
CHEMBL246910
     RDKit          3D

  0  0  0  0  0  0  0  0  0  0999 V3000
M  V30 BEGIN CTAB
M  V30 COUNTS 42 45 0 0 0
M  V30 BEGIN ATOM
M  V30 1 C 0.084307 -3.720496 1.045024 0
M  V30 2 C 0.793329 -3.988861 -0.242578 0
M  V30 3 C 0.369337 -5.335725 -0.766597 0
M  V30 4 N 0.673168 -5.541632 -2.164265 0
M  V30 5 C 0.497211 -4.508245 -3.131818 0
M  V30 6 O 0.374536 -4.777605 -4.358964 0
M  V30 7 C 0.470137 -3.140119 -2.605681 0
M  V30 8 N 0.321070 -1.977894 -3.265336 0
M  V30 9 C 0.358853 -0.959949 -2.365469 0
M  V30 10 C 0.255537 0.422746 -2.500453 0
M  V30 11 C 0.331446 1.245980 -1.374607 0
M  V30 12 C 0.509840 0.667885 -0.131463 0
M  V30 13 C 0.584652 1.557411 1.022017 0
M  V30 14 O 0.481757 2.793893 0.809997 0
M  V30 15 N 0.762958 1.122228 2.343483 0
M  V30 16 C 0.809676 2.154667 3.330425 0
M  V30 17 C 1.933655 2.820484 3.775053 0
M  V30 18 C 1.820099 3.801042 4.740116 0
M  V30 19 C 0.603333 4.160375 5.299894 0
M  V30 20 C -0.487965 3.464264 4.820336 0
M  V30 21 C -1.775903 3.824304 5.393299 0
M  V30 22 N -2.818396 4.101321 5.861663 0
M  V30 23 C -0.444756 2.474679 3.858907 0
M  V30 24 C 0.610357 -0.703086 -0.014502 0
M  V30 25 C 0.539110 -1.552430 -1.114007 0
M  V30 26 C 0.611603 -2.928927 -1.246074 0
M  V30 27 H -0.768467 -3.018826 0.942689 0
M  V30 28 H 0.800549 -3.404841 1.848221 0
M  V30 29 H -0.362212 -4.660337 1.439029 0
M  V30 30 H 1.893664 -4.081141 -0.004059 0
M  V30 31 H 0.846730 -6.171831 -0.207057 0
M  V30 32 H -0.735533 -5.484790 -0.657014 0
M  V30 33 H 1.039754 -6.471360 -2.526243 0
M  V30 34 H 0.195788 -1.836574 -4.286170 0
M  V30 35 H 0.115849 0.837362 -3.495124 0
M  V30 36 H 0.243687 2.322594 -1.543943 0
M  V30 37 H 0.850850 0.101697 2.544364 0
M  V30 38 H 2.867132 2.518468 3.320214 0
M  V30 39 H 2.728913 4.307972 5.069330 0
M  V30 40 H 0.509277 4.928204 6.056496 0
M  V30 41 H -1.378589 2.003648 3.568680 0
M  V30 42 H 0.748551 -1.159100 0.943902 0
M  V30 END ATOM
M  V30 BEGIN BOND
M  V30 1 1 1 2
M  V30 2 1 2 3
M  V30 3 1 3 4
M  V30 4 1 4 5
M  V30 5 2 5 6
M  V30 6 1 5 7
M  V30 7 1 7 8
M  V30 8 1 8 9
M  V30 9 2 9 10
M  V30 10 1 10 11
M  V30 11 2 11 12
M  V30 12 1 12 13
M  V30 13 2 13 14
M  V30 14 1 13 15
M  V30 15 1 15 16
M  V30 16 2 16 17
M  V30 17 1 17 18
M  V30 18 2 18 19
M  V30 19 1 19 20
M  V30 20 1 20 21
M  V30 21 3 21 22
M  V30 22 2 20 23
M  V30 23 1 12 24
M  V30 24 2 24 25
M  V30 25 1 25 26
M  V30 26 1 26 2
M  V30 27 2 26 7
M  V30 28 1 25 9
M  V30 29 1 23 16
M  V30 30 1 1 27
M  V30 31 1 1 28
M  V30 32 1 1 29
M  V30 33 1 2 30
M  V30 34 1 3 31
M  V30 35 1 3 32
M  V30 36 1 4 33
M  V30 37 1 8 34
M  V30 38 1 10 35
M  V30 39 1 11 36
M  V30 40 1 15 37
M  V30 41 1 17 38
M  V30 42 1 18 39
M  V30 43 1 19 40
M  V30 44 1 23 41
M  V30 45 1 24 42
M  V30 END BOND
M  V30 END CTAB
M  END
>  <Dataset>  (142) 
ChEMBL_Kinases

>  <Ligand_Instance>  (142) 
nan

>  <PDB_ID>  (142) 
nan

>  <Standardized_SMILES>  (142) 
CC1CNC(=O)c2[nH]c3ccc(C(=O)Nc4cccc(C#N)c4)cc3c21

>  <Name>  (142) 
nan

>  <Pocket>  (142) 
nan

>  <ATP_Site>  (142) 
nan

>  <Peripheral>  (142) 
nan

>  <Num_H_Atoms_ProtBoundConf>  (142) 
nan

>  <Num_Resolved_Atoms>  (142) 
nan

>  <Num_Not_Resolved_Atoms>  (142) 
nan

$$$$
CHEMBL270608
     RDKit          3D

  0  0  0  0  0  0  0  0  0  0999 V3000
M  V30 BEGIN CTAB
M  V30 COUNTS 68 72 0 0 0
M  V30 BEGIN ATOM
M  V30 1 C 6.646839 0.359045 4.815147 0
M  V30 2 O 5.278818 0.694749 4.755393 0
M  V30 3 C 4.439467 0.353078 3.711795 0
M  V30 4 C 4.902238 -0.360506 2.628799 0
M  V30 5 C 4.012881 -0.667654 1.624066 0
M  V30 6 C 2.684294 -0.325929 1.595123 0
M  V30 7 N 1.746741 -0.627435 0.578278 0
M  V30 8 C 1.900564 -1.320940 -0.621584 0
M  V30 9 O 3.039837 -1.775221 -0.895491 0
M  V30 10 C 0.835889 -1.559418 -1.584869 0
M  V30 11 C -0.469361 -1.136192 -1.451248 0
M  V30 12 C -1.465311 -1.371625 -2.374866 0
M  V30 13 C -1.168212 -2.076628 -3.523123 0
M  V30 14 C -2.262788 -2.295143 -4.462747 0
M  V30 15 C -3.460281 -2.712039 -3.877875 0
M  V30 16 C -4.617284 -2.971957 -4.616361 0
M  V30 17 C -5.846744 -3.406625 -3.953903 0
M  V30 18 N -5.978249 -3.588407 -2.644622 0
M  V30 19 N -7.223611 -3.977716 -2.438924 0
M  V30 20 C -7.830037 -4.025642 -3.634811 0
M  V30 21 C -9.250873 -4.430011 -3.763791 0
M  V30 22 O -6.972716 -3.671144 -4.568326 0
M  V30 23 C -4.578861 -2.808504 -6.003889 0
M  V30 24 C -3.388333 -2.396428 -6.563579 0
M  V30 25 C -2.260722 -2.145786 -5.819330 0
M  V30 26 C -0.977201 -1.701616 -6.409782 0
M  V30 27 C 0.122654 -2.525274 -3.710478 0
M  V30 28 C 1.075844 -2.258378 -2.750333 0
M  V30 29 C 2.277951 0.384746 2.700719 0
M  V30 30 C 3.111190 0.721196 3.731397 0
M  V30 31 N 2.609053 1.453427 4.830029 0
M  V30 32 C 2.685789 0.867766 6.127297 0
M  V30 33 C 1.534094 1.436200 6.931043 0
M  V30 34 N 1.615309 2.868313 7.049394 0
M  V30 35 C 0.284016 3.391289 7.293097 0
M  V30 36 C 2.202956 3.535862 5.931495 0
M  V30 37 C 2.028963 2.769488 4.635304 0
M  V30 38 H 7.275083 1.058556 4.253824 0
M  V30 39 H 6.782680 -0.702912 4.505931 0
M  V30 40 H 6.922531 0.387971 5.907936 0
M  V30 41 H 5.938669 -0.665409 2.581092 0
M  V30 42 H 4.431751 -1.226319 0.804484 0
M  V30 43 H 0.766435 -0.291267 0.713090 0
M  V30 44 H -0.753843 -0.583608 -0.576607 0
M  V30 45 H -2.474028 -1.006288 -2.201365 0
M  V30 46 H -3.555877 -2.858812 -2.794951 0
M  V30 47 H -9.419332 -4.918994 -4.748542 0
M  V30 48 H -9.527533 -5.181893 -2.973217 0
M  V30 49 H -9.941724 -3.572011 -3.592458 0
M  V30 50 H -5.445101 -2.996106 -6.620066 0
M  V30 51 H -3.268584 -2.244342 -7.627835 0
M  V30 52 H -0.372428 -2.536580 -6.816376 0
M  V30 53 H -1.256315 -1.053986 -7.292659 0
M  V30 54 H -0.373254 -1.092190 -5.736642 0
M  V30 55 H 0.354120 -3.069050 -4.593745 0
M  V30 56 H 2.079978 -2.630684 -2.938645 0
M  V30 57 H 1.235233 0.706705 2.777065 0
M  V30 58 H 3.636752 0.913935 6.644308 0
M  V30 59 H 2.448722 -0.228141 6.014507 0
M  V30 60 H 1.560132 1.008984 7.959784 0
M  V30 61 H 0.555409 1.179487 6.491705 0
M  V30 62 H 0.303432 4.502376 7.330126 0
M  V30 63 H -0.403351 3.113757 6.443831 0
M  V30 64 H -0.138238 2.960605 8.226106 0
M  V30 65 H 1.802867 4.583214 5.804185 0
M  V30 66 H 3.291181 3.660093 6.092597 0
M  V30 67 H 2.514202 3.271466 3.787520 0
M  V30 68 H 0.928403 2.631641 4.441339 0
M  V30 END ATOM
M  V30 BEGIN BOND
M  V30 1 1 1 2
M  V30 2 1 2 3
M  V30 3 2 3 4
M  V30 4 1 4 5
M  V30 5 2 5 6
M  V30 6 1 6 7
M  V30 7 1 7 8
M  V30 8 2 8 9
M  V30 9 1 8 10
M  V30 10 2 10 11
M  V30 11 1 11 12
M  V30 12 2 12 13
M  V30 13 1 13 14
M  V30 14 2 14 15
M  V30 15 1 15 16
M  V30 16 1 16 17
M  V30 17 2 17 18
M  V30 18 1 18 19
M  V30 19 2 19 20
M  V30 20 1 20 21
M  V30 21 1 20 22
M  V30 22 2 16 23
M  V30 23 1 23 24
M  V30 24 2 24 25
M  V30 25 1 25 26
M  V30 26 1 13 27
M  V30 27 2 27 28
M  V30 28 1 6 29
M  V30 29 2 29 30
M  V30 30 1 30 31
M  V30 31 1 31 32
M  V30 32 1 32 33
M  V30 33 1 33 34
M  V30 34 1 34 35
M  V30 35 1 34 36
M  V30 36 1 36 37
M  V30 37 1 30 3
M  V30 38 1 37 31
M  V30 39 1 28 10
M  V30 40 1 25 14
M  V30 41 1 22 17
M  V30 42 1 1 38
M  V30 43 1 1 39
M  V30 44 1 1 40
M  V30 45 1 4 41
M  V30 46 1 5 42
M  V30 47 1 7 43
M  V30 48 1 11 44
M  V30 49 1 12 45
M  V30 50 1 15 46
M  V30 51 1 21 47
M  V30 52 1 21 48
M  V30 53 1 21 49
M  V30 54 1 23 50
M  V30 55 1 24 51
M  V30 56 1 26 52
M  V30 57 1 26 53
M  V30 58 1 26 54
M  V30 59 1 27 55
M  V30 60 1 28 56
M  V30 61 1 29 57
M  V30 62 1 32 58
M  V30 63 1 32 59
M  V30 64 1 33 60
M  V30 65 1 33 61
M  V30 66 1 35 62
M  V30 67 1 35 63
M  V30 68 1 35 64
M  V30 69 1 36 65
M  V30 70 1 36 66
M  V30 71 1 37 67
M  V30 72 1 37 68
M  V30 END BOND
M  V30 END CTAB
M  END
>  <Dataset>  (143) 
ChEMBL_Kinases

>  <Ligand_Instance>  (143) 
nan

>  <PDB_ID>  (143) 
nan

>  <Standardized_SMILES>  (143) 
COc1ccc(NC(=O)c2ccc(-c3cc(-c4nnc(C)o4)ccc3C)cc2)cc1N1CCN(C)CC1

>  <Name>  (143) 
nan

>  <Pocket>  (143) 
nan

>  <ATP_Site>  (143) 
nan

>  <Peripheral>  (143) 
nan

>  <Num_H_Atoms_ProtBoundConf>  (143) 
nan

>  <Num_Resolved_Atoms>  (143) 
nan

>  <Num_Not_Resolved_Atoms>  (143) 
nan

$$$$
CHEMBL270512
     RDKit          3D

  0  0  0  0  0  0  0  0  0  0999 V3000
M  V30 BEGIN CTAB
M  V30 COUNTS 27 29 0 0 0
M  V30 BEGIN ATOM
M  V30 1 O -0.877180 -2.417354 2.112894 0
M  V30 2 C -0.269274 -1.544311 1.446589 0
M  V30 3 C 1.102297 -1.394338 1.543877 0
M  V30 4 C 1.831963 -2.220346 2.391183 0
M  V30 5 O 1.145426 -3.175999 3.115589 0
M  V30 6 C 3.202434 -2.072788 2.490282 0
M  V30 7 C 3.797990 -1.089172 1.725483 0
M  V30 8 C 3.096281 -0.255176 0.874526 0
M  V30 9 C 1.722060 -0.415036 0.786294 0
M  V30 10 O 1.070010 0.396709 -0.036350 0
M  V30 11 C -0.233214 0.274555 -0.145642 0
M  V30 12 C -0.942146 1.103016 -0.990190 0
M  V30 13 N -0.315414 2.114489 -1.772154 0 CHG=1 VAL=4
M  V30 14 O 0.757010 2.349976 -2.362998 0
M  V30 15 O -0.895666 3.314795 -2.120881 0 CHG=-1 VAL=1
M  V30 16 C -2.311186 1.041026 -1.162534 0
M  V30 17 C -2.982127 0.069794 -0.420844 0
M  V30 18 C -2.263085 -0.760982 0.427249 0
M  V30 19 O -2.951448 -1.716710 1.151269 0
M  V30 20 C -0.912604 -0.681127 0.580420 0
M  V30 21 H 0.624666 -2.839072 3.938060 0
M  V30 22 H 3.774959 -2.723176 3.156632 0
M  V30 23 H 4.877213 -0.990301 1.815204 0
M  V30 24 H 3.653090 0.495812 0.311126 0
M  V30 25 H -2.869201 1.686814 -1.823068 0
M  V30 26 H -4.062925 -0.001453 -0.537917 0
M  V30 27 H -2.924269 -2.694005 0.984136 0
M  V30 END ATOM
M  V30 BEGIN BOND
M  V30 1 2 1 2
M  V30 2 1 2 3
M  V30 3 2 3 4
M  V30 4 1 4 5
M  V30 5 1 4 6
M  V30 6 2 6 7
M  V30 7 1 7 8
M  V30 8 2 8 9
M  V30 9 1 9 10
M  V30 10 1 10 11
M  V30 11 2 11 12
M  V30 12 1 12 13
M  V30 13 2 13 14
M  V30 14 1 13 15
M  V30 15 1 12 16
M  V30 16 2 16 17
M  V30 17 1 17 18
M  V30 18 1 18 19
M  V30 19 2 18 20
M  V30 20 1 20 2
M  V30 21 1 9 3
M  V30 22 1 20 11
M  V30 23 1 5 21
M  V30 24 1 6 22
M  V30 25 1 7 23
M  V30 26 1 8 24
M  V30 27 1 16 25
M  V30 28 1 17 26
M  V30 29 1 19 27
M  V30 END BOND
M  V30 END CTAB
M  END
>  <Dataset>  (144) 
ChEMBL_Kinases

>  <Ligand_Instance>  (144) 
nan

>  <PDB_ID>  (144) 
nan

>  <Standardized_SMILES>  (144) 
O=c1c2c(O)cccc2oc2c([N+](=O)[O-])ccc(O)c12

>  <Name>  (144) 
nan

>  <Pocket>  (144) 
nan

>  <ATP_Site>  (144) 
nan

>  <Peripheral>  (144) 
nan

>  <Num_H_Atoms_ProtBoundConf>  (144) 
nan

>  <Num_Resolved_Atoms>  (144) 
nan

>  <Num_Not_Resolved_Atoms>  (144) 
nan

$$$$
CHEMBL270473
     RDKit          3D

  0  0  0  0  0  0  0  0  0  0999 V3000
M  V30 BEGIN CTAB
M  V30 COUNTS 61 65 0 0 0
M  V30 BEGIN ATOM
M  V30 1 C 0.142513 -2.787677 6.248882 0
M  V30 2 C 0.408952 -3.942423 5.348722 0
M  V30 3 C 0.602834 -3.716936 4.001042 0
M  V30 4 C 0.853173 -4.747816 3.120229 0
M  V30 5 C 1.067503 -4.579769 1.683154 0
M  V30 6 C 1.041502 -3.355285 1.048164 0
M  V30 7 C 1.242914 -3.196284 -0.302979 0
M  V30 8 C 1.199861 -1.862678 -0.903025 0
M  V30 9 N 1.378237 -1.569420 -2.198625 0
M  V30 10 C 1.265796 -0.220679 -2.378570 0
M  V30 11 C 1.344128 0.660629 -3.436668 0
M  V30 12 C 1.169215 2.017172 -3.234820 0
M  V30 13 C 0.911518 2.550772 -1.985254 0
M  V30 14 C 0.738322 4.000705 -1.854693 0
M  V30 15 N -0.609832 4.475182 -2.005711 0
M  V30 16 C -1.518523 3.916293 -1.031512 0
M  V30 17 C -2.928743 4.282058 -1.477293 0
M  V30 18 N -3.314838 3.562264 -2.670171 0
M  V30 19 C -3.844538 2.261212 -2.317801 0
M  V30 20 C -2.154077 3.330799 -3.528762 0
M  V30 21 C -1.124876 4.439124 -3.342226 0
M  V30 22 C 0.828611 1.685092 -0.908956 0
M  V30 23 C 1.007305 0.314774 -1.125247 0
M  V30 24 N 0.971923 -0.715585 -0.236438 0
M  V30 25 C 1.486659 -4.299282 -1.095898 0
M  V30 26 O 1.678685 -4.219059 -2.337655 0
M  V30 27 N 1.503260 -5.472035 -0.436293 0
M  V30 28 N 1.309456 -5.624165 0.863268 0
M  V30 29 C 0.906854 -6.031344 3.621909 0
M  V30 30 C 0.720499 -6.301607 4.952078 0
M  V30 31 C 0.787209 -7.712294 5.455688 0
M  V30 32 C 0.471523 -5.245298 5.807928 0
M  V30 33 O 0.273170 -5.467939 7.181455 0
M  V30 34 H -0.558389 -3.078893 7.053052 0
M  V30 35 H 1.076640 -2.317350 6.612605 0
M  V30 36 H -0.366677 -2.007707 5.641424 0
M  V30 37 H 0.559928 -2.709297 3.611903 0
M  V30 38 H 0.856815 -2.465802 1.613963 0
M  V30 39 H 1.547439 0.192991 -4.392202 0
M  V30 40 H 1.256213 2.596009 -4.149959 0
M  V30 41 H 1.098235 4.363488 -0.862011 0
M  V30 42 H 1.348645 4.497596 -2.623025 0
M  V30 43 H -1.354052 4.428057 -0.060294 0
M  V30 44 H -1.444051 2.830817 -0.979289 0
M  V30 45 H -2.970081 5.362946 -1.730491 0
M  V30 46 H -3.677706 4.120604 -0.670949 0
M  V30 47 H -3.886873 2.175894 -1.218850 0
M  V30 48 H -4.882347 2.139152 -2.721207 0
M  V30 49 H -3.190891 1.426904 -2.669352 0
M  V30 50 H -1.723079 2.339612 -3.281161 0
M  V30 51 H -2.479569 3.386721 -4.598268 0
M  V30 52 H -0.385007 4.347916 -4.139293 0
M  V30 53 H -1.675692 5.398240 -3.568030 0
M  V30 54 H 0.627247 2.082075 0.080340 0
M  V30 55 H 0.796301 -0.594414 0.772848 0
M  V30 56 H 1.684568 -6.370425 -0.975297 0
M  V30 57 H 1.104509 -6.865914 2.939869 0
M  V30 58 H 0.305562 -8.354172 4.678034 0
M  V30 59 H 1.829677 -8.072318 5.523644 0
M  V30 60 H 0.214372 -7.855996 6.374667 0
M  V30 61 H -0.555746 -5.085848 7.648837 0
M  V30 END ATOM
M  V30 BEGIN BOND
M  V30 1 1 1 2
M  V30 2 2 2 3
M  V30 3 1 3 4
M  V30 4 1 4 5
M  V30 5 1 5 6
M  V30 6 2 6 7
M  V30 7 1 7 8
M  V30 8 2 8 9
M  V30 9 1 9 10
M  V30 10 2 10 11
M  V30 11 1 11 12
M  V30 12 2 12 13
M  V30 13 1 13 14
M  V30 14 1 14 15
M  V30 15 1 15 16
M  V30 16 1 16 17
M  V30 17 1 17 18
M  V30 18 1 18 19
M  V30 19 1 18 20
M  V30 20 1 20 21
M  V30 21 1 13 22
M  V30 22 2 22 23
M  V30 23 1 23 24
M  V30 24 1 7 25
M  V30 25 2 25 26
M  V30 26 1 25 27
M  V30 27 1 27 28
M  V30 28 2 4 29
M  V30 29 1 29 30
M  V30 30 1 30 31
M  V30 31 2 30 32
M  V30 32 1 32 33
M  V30 33 1 32 2
M  V30 34 2 28 5
M  V30 35 1 24 8
M  V30 36 1 23 10
M  V30 37 1 21 15
M  V30 38 1 1 34
M  V30 39 1 1 35
M  V30 40 1 1 36
M  V30 41 1 3 37
M  V30 42 1 6 38
M  V30 43 1 11 39
M  V30 44 1 12 40
M  V30 45 1 14 41
M  V30 46 1 14 42
M  V30 47 1 16 43
M  V30 48 1 16 44
M  V30 49 1 17 45
M  V30 50 1 17 46
M  V30 51 1 19 47
M  V30 52 1 19 48
M  V30 53 1 19 49
M  V30 54 1 20 50
M  V30 55 1 20 51
M  V30 56 1 21 52
M  V30 57 1 21 53
M  V30 58 1 22 54
M  V30 59 1 24 55
M  V30 60 1 27 56
M  V30 61 1 29 57
M  V30 62 1 31 58
M  V30 63 1 31 59
M  V30 64 1 31 60
M  V30 65 1 33 61
M  V30 END BOND
M  V30 END CTAB
M  END
>  <Dataset>  (145) 
ChEMBL_Kinases

>  <Ligand_Instance>  (145) 
nan

>  <PDB_ID>  (145) 
nan

>  <Standardized_SMILES>  (145) 
Cc1cc(-c2cc(-c3nc4ccc(CN5CCN(C)CC5)cc4[nH]3)c(=O)[nH]n2)cc(C)c1O

>  <Name>  (145) 
nan

>  <Pocket>  (145) 
nan

>  <ATP_Site>  (145) 
nan

>  <Peripheral>  (145) 
nan

>  <Num_H_Atoms_ProtBoundConf>  (145) 
nan

>  <Num_Resolved_Atoms>  (145) 
nan

>  <Num_Not_Resolved_Atoms>  (145) 
nan

$$$$
CHEMBL270417
     RDKit          3D

  0  0  0  0  0  0  0  0  0  0999 V3000
M  V30 BEGIN CTAB
M  V30 COUNTS 56 59 0 0 0
M  V30 BEGIN ATOM
M  V30 1 C 5.332547 -0.394363 0.966492 0
M  V30 2 O 4.835461 0.707357 1.668768 0
M  V30 3 C 3.476315 1.036408 1.572363 0
M  V30 4 C 2.631706 0.265129 0.779323 0
M  V30 5 C 1.296038 0.643797 0.726064 0
M  V30 6 C 0.767782 1.723645 1.403458 0
M  V30 7 C 1.619912 2.481587 2.188166 0
M  V30 8 C 2.961037 2.131429 2.264469 0
M  V30 9 C 3.914549 2.919070 3.097254 0
M  V30 10 C 4.776357 3.795118 2.210931 0
M  V30 11 C 3.879355 4.738335 1.437877 0
M  V30 12 O 3.171596 5.518827 2.364309 0
M  V30 13 N -0.572427 2.213681 1.433110 0
M  V30 14 C -1.734758 1.690662 0.775418 0
M  V30 15 O -2.726349 2.424902 0.618324 0
M  V30 16 C -1.867017 0.316063 0.250210 0
M  V30 17 C -3.197618 -0.055304 0.193277 0
M  V30 18 C -3.519517 -1.314367 -0.274912 0
M  V30 19 C -2.476937 -2.137240 -0.663267 0
M  V30 20 C -2.721253 -3.500690 -1.176104 0
M  V30 21 C -1.923950 -4.155250 -2.122035 0
M  V30 22 C -2.295259 -5.444256 -2.496224 0
M  V30 23 C -3.411796 -6.035316 -1.941946 0
M  V30 24 N -3.665204 -7.367252 -2.429102 0 CHG=1 VAL=4
M  V30 25 O -4.209009 -8.118243 -1.566686 0
M  V30 26 O -3.323035 -7.712112 -3.716409 0 CHG=-1 VAL=1
M  V30 27 C -4.203651 -5.386651 -1.003324 0
M  V30 28 O -5.262792 -6.158668 -0.585611 0
M  V30 29 C -6.185799 -5.678335 0.367886 0
M  V30 30 C -3.841184 -4.109655 -0.628908 0
M  V30 31 C -1.137824 -1.774260 -0.610151 0
M  V30 32 C -0.816917 -0.502534 -0.136912 0
M  V30 33 N 0.586739 -0.266118 -0.137129 0
M  V30 34 H 4.720510 -1.274002 1.252904 0
M  V30 35 H 5.202185 -0.225855 -0.124856 0
M  V30 36 H 6.398192 -0.522100 1.233053 0
M  V30 37 H 2.980520 -0.592149 0.222963 0
M  V30 38 H 1.236280 3.330644 2.731073 0
M  V30 39 H 3.338617 3.594111 3.766401 0
M  V30 40 H 4.588162 2.273501 3.687450 0
M  V30 41 H 5.291057 3.149380 1.477613 0
M  V30 42 H 5.480818 4.360311 2.844061 0
M  V30 43 H 4.422974 5.320568 0.690693 0
M  V30 44 H 3.108192 4.134306 0.897989 0
M  V30 45 H 2.740250 6.227481 1.821247 0
M  V30 46 H -0.757019 3.061133 1.999991 0
M  V30 47 H -3.967746 0.652704 0.519642 0
M  V30 48 H -4.534277 -1.641770 -0.335230 0
M  V30 49 H -1.074729 -3.599283 -2.489783 0
M  V30 50 H -1.640018 -5.893680 -3.228799 0
M  V30 51 H -6.481701 -6.561585 1.008207 0
M  V30 52 H -5.766179 -4.930544 1.058131 0
M  V30 53 H -7.118093 -5.273721 -0.090136 0
M  V30 54 H -4.494879 -3.666285 0.097629 0
M  V30 55 H -0.329317 -2.405437 -0.908932 0
M  V30 56 H 1.122609 -0.818989 -0.837447 0
M  V30 END ATOM
M  V30 BEGIN BOND
M  V30 1 1 1 2
M  V30 2 1 2 3
M  V30 3 2 3 4
M  V30 4 1 4 5
M  V30 5 2 5 6
M  V30 6 1 6 7
M  V30 7 2 7 8
M  V30 8 1 8 9
M  V30 9 1 9 10
M  V30 10 1 10 11
M  V30 11 1 11 12
M  V30 12 1 6 13
M  V30 13 1 13 14
M  V30 14 2 14 15
M  V30 15 1 14 16
M  V30 16 2 16 17
M  V30 17 1 17 18
M  V30 18 2 18 19
M  V30 19 1 19 20
M  V30 20 2 20 21
M  V30 21 1 21 22
M  V30 22 2 22 23
M  V30 23 1 23 24
M  V30 24 2 24 25
M  V30 25 1 24 26
M  V30 26 1 23 27
M  V30 27 1 27 28
M  V30 28 1 28 29
M  V30 29 2 27 30
M  V30 30 1 19 31
M  V30 31 2 31 32
M  V30 32 1 32 33
M  V30 33 1 8 3
M  V30 34 1 32 16
M  V30 35 1 33 5
M  V30 36 1 30 20
M  V30 37 1 1 34
M  V30 38 1 1 35
M  V30 39 1 1 36
M  V30 40 1 4 37
M  V30 41 1 7 38
M  V30 42 1 9 39
M  V30 43 1 9 40
M  V30 44 1 10 41
M  V30 45 1 10 42
M  V30 46 1 11 43
M  V30 47 1 11 44
M  V30 48 1 12 45
M  V30 49 1 13 46
M  V30 50 1 17 47
M  V30 51 1 18 48
M  V30 52 1 21 49
M  V30 53 1 22 50
M  V30 54 1 29 51
M  V30 55 1 29 52
M  V30 56 1 29 53
M  V30 57 1 30 54
M  V30 58 1 31 55
M  V30 59 1 33 56
M  V30 END BOND
M  V30 END CTAB
M  END
>  <Dataset>  (146) 
ChEMBL_Kinases

>  <Ligand_Instance>  (146) 
nan

>  <PDB_ID>  (146) 
nan

>  <Standardized_SMILES>  (146) 
COc1cc2c(cc1CCCO)NC(=O)c1ccc(-c3ccc([N+](=O)[O-])c(OC)c3)cc1N2

>  <Name>  (146) 
nan

>  <Pocket>  (146) 
nan

>  <ATP_Site>  (146) 
nan

>  <Peripheral>  (146) 
nan

>  <Num_H_Atoms_ProtBoundConf>  (146) 
nan

>  <Num_Resolved_Atoms>  (146) 
nan

>  <Num_Not_Resolved_Atoms>  (146) 
nan

$$$$
CHEMBL270265
     RDKit          3D

  0  0  0  0  0  0  0  0  0  0999 V3000
M  V30 BEGIN CTAB
M  V30 COUNTS 44 47 0 0 0
M  V30 BEGIN ATOM
M  V30 1 C 0.516076 -3.609372 -0.485258 0
M  V30 2 C -0.211485 -3.253957 -1.746230 0
M  V30 3 C -0.121578 -1.777595 -2.020814 0
M  V30 4 C -0.705377 -0.985150 -0.949480 0
M  V30 5 C -0.172886 -0.008629 -0.227923 0
M  V30 6 C 1.205572 0.444278 -0.427714 0
M  V30 7 N 1.720533 1.698760 -0.435489 0
M  V30 8 N 3.005251 1.623705 -0.648663 0
M  V30 9 C 3.286060 0.316882 -0.773429 0
M  V30 10 C 4.662028 -0.194090 -1.026994 0
M  V30 11 O 2.203266 -0.367806 -0.639530 0
M  V30 12 C -0.813779 0.794230 0.820757 0
M  V30 13 C 0.072239 0.904097 1.984157 0
M  V30 14 C 0.648156 2.138629 2.331278 0
M  V30 15 C 1.512451 2.395747 3.372058 0
M  V30 16 C 1.849862 1.324208 4.160121 0
M  V30 17 C 1.335686 0.085694 3.895789 0
M  V30 18 C 1.719816 -1.003907 4.747017 0
M  V30 19 N 2.015767 -1.890973 5.423652 0
M  V30 20 C 0.484113 -0.079450 2.842406 0
M  V30 21 Br -0.227623 -1.815969 2.534223 0
M  V30 22 C -2.166955 0.372603 1.202669 0
M  V30 23 C -3.081515 0.750650 2.129758 0
M  V30 24 N -4.187138 -0.011469 1.969695 0
M  V30 25 N -3.969372 -0.848018 0.964865 0
M  V30 26 C -2.720895 -0.649021 0.452049 0
M  V30 27 N -2.061443 -1.357452 -0.620198 0
M  V30 28 H 1.245896 -4.423892 -0.700094 0
M  V30 29 H 1.117013 -2.787356 -0.059247 0
M  V30 30 H -0.171732 -3.959760 0.318404 0
M  V30 31 H -1.281719 -3.559715 -1.589810 0
M  V30 32 H 0.122045 -3.862505 -2.617887 0
M  V30 33 H -0.708644 -1.606904 -2.970492 0
M  V30 34 H 0.960454 -1.575572 -2.193691 0
M  V30 35 H 5.377590 0.628896 -1.194328 0
M  V30 36 H 4.686208 -1.001756 -1.761951 0
M  V30 37 H 4.997869 -0.654256 -0.051299 0
M  V30 38 H -0.876164 1.839405 0.375560 0
M  V30 39 H 0.396239 3.013276 1.717907 0
M  V30 40 H 1.893935 3.392167 3.541388 0
M  V30 41 H 2.524904 1.506190 4.976675 0
M  V30 42 H -2.977969 1.519398 2.879771 0
M  V30 43 H -5.096476 -0.028878 2.478594 0
M  V30 44 H -2.608392 -2.106185 -1.100685 0
M  V30 END ATOM
M  V30 BEGIN BOND
M  V30 1 1 1 2
M  V30 2 1 2 3
M  V30 3 1 3 4
M  V30 4 2 4 5
M  V30 5 1 5 6
M  V30 6 2 6 7
M  V30 7 1 7 8
M  V30 8 2 8 9
M  V30 9 1 9 10
M  V30 10 1 9 11
M  V30 11 1 5 12
M  V30 12 1 12 13
M  V30 13 2 13 14
M  V30 14 1 14 15
M  V30 15 2 15 16
M  V30 16 1 16 17
M  V30 17 1 17 18
M  V30 18 3 18 19
M  V30 19 2 17 20
M  V30 20 1 20 21
M  V30 21 1 12 22
M  V30 22 2 22 23
M  V30 23 1 23 24
M  V30 24 1 24 25
M  V30 25 2 25 26
M  V30 26 1 26 27
M  V30 27 1 27 4
M  V30 28 1 11 6
M  V30 29 1 20 13
M  V30 30 1 26 22
M  V30 31 1 1 28
M  V30 32 1 1 29
M  V30 33 1 1 30
M  V30 34 1 2 31
M  V30 35 1 2 32
M  V30 36 1 3 33
M  V30 37 1 3 34
M  V30 38 1 10 35
M  V30 39 1 10 36
M  V30 40 1 10 37
M  V30 41 1 12 38
M  V30 42 1 14 39
M  V30 43 1 15 40
M  V30 44 1 16 41
M  V30 45 1 23 42
M  V30 46 1 24 43
M  V30 47 1 27 44
M  V30 END BOND
M  V30 END CTAB
M  END
>  <Dataset>  (147) 
ChEMBL_Kinases

>  <Ligand_Instance>  (147) 
nan

>  <PDB_ID>  (147) 
nan

>  <Standardized_SMILES>  (147) 
CCCC1=C(c2nnc(C)o2)C(c2cccc(C#N)c2Br)c2c[nH]nc2N1

>  <Name>  (147) 
nan

>  <Pocket>  (147) 
nan

>  <ATP_Site>  (147) 
nan

>  <Peripheral>  (147) 
nan

>  <Num_H_Atoms_ProtBoundConf>  (147) 
nan

>  <Num_Resolved_Atoms>  (147) 
nan

>  <Num_Not_Resolved_Atoms>  (147) 
nan

$$$$
CHEMBL270262
     RDKit          3D

  0  0  0  0  0  0  0  0  0  0999 V3000
M  V30 BEGIN CTAB
M  V30 COUNTS 34 36 0 0 0
M  V30 BEGIN ATOM
M  V30 1 C -0.670240 -6.214407 2.918576 0
M  V30 2 O -0.739591 -4.863164 3.355300 0
M  V30 3 C -0.417797 -3.875581 2.425127 0
M  V30 4 C -0.049366 -4.223411 1.133365 0
M  V30 5 C 0.283468 -3.285748 0.155885 0
M  V30 6 C 0.248518 -1.941077 0.477765 0
M  V30 7 C 0.581716 -0.844998 -0.428156 0
M  V30 8 C 1.023479 -1.152896 -1.714949 0
M  V30 9 C 1.280567 0.036413 -2.383912 0
M  V30 10 C 0.985552 1.018305 -1.481093 0
M  V30 11 C 0.966112 2.462192 -1.328884 0
M  V30 12 C 0.170876 3.379631 -0.916655 0
M  V30 13 S -1.495817 3.019777 -0.289822 0
M  V30 14 C -1.642668 4.624809 0.547433 0
M  V30 15 S -2.720613 4.996758 1.684927 0
M  V30 16 N -0.616177 5.361108 -0.054505 0
M  V30 17 C 0.375044 4.788656 -0.837629 0
M  V30 18 O 1.327202 5.370423 -1.413711 0
M  V30 19 O 0.580330 0.442007 -0.352952 0
M  V30 20 C -0.122737 -1.661929 1.767081 0
M  V30 21 N -0.175569 -0.304273 2.211369 0 CHG=1 VAL=4
M  V30 22 O 0.214255 0.867210 2.195855 0
M  V30 23 O -1.078129 0.122974 3.179376 0 CHG=-1 VAL=1
M  V30 24 C -0.460194 -2.542623 2.769410 0
M  V30 25 H -0.950140 -6.917759 3.699870 0
M  V30 26 H -1.292922 -6.289736 2.004974 0
M  V30 27 H 0.413991 -6.342799 2.620866 0
M  V30 28 H -0.000687 -5.261909 0.795227 0
M  V30 29 H 0.578638 -3.530573 -0.860319 0
M  V30 30 H 1.197677 -2.073964 -2.273372 0
M  V30 31 H 1.620833 0.405088 -3.341576 0
M  V30 32 H 1.958410 2.781601 -1.693189 0
M  V30 33 H -0.627553 6.416685 0.114503 0
M  V30 34 H -0.748074 -2.310277 3.772056 0
M  V30 END ATOM
M  V30 BEGIN BOND
M  V30 1 1 1 2
M  V30 2 1 2 3
M  V30 3 2 3 4
M  V30 4 1 4 5
M  V30 5 2 5 6
M  V30 6 1 6 7
M  V30 7 2 7 8
M  V30 8 1 8 9
M  V30 9 2 9 10
M  V30 10 1 10 11
M  V30 11 2 11 12
M  V30 12 1 12 13
M  V30 13 1 13 14
M  V30 14 2 14 15
M  V30 15 1 14 16
M  V30 16 1 16 17
M  V30 17 2 17 18
M  V30 18 1 10 19
M  V30 19 1 6 20
M  V30 20 1 20 21
M  V30 21 2 21 22
M  V30 22 1 21 23
M  V30 23 2 20 24
M  V30 24 1 24 3
M  V30 25 1 19 7
M  V30 26 1 17 12
M  V30 27 1 1 25
M  V30 28 1 1 26
M  V30 29 1 1 27
M  V30 30 1 4 28
M  V30 31 1 5 29
M  V30 32 1 8 30
M  V30 33 1 9 31
M  V30 34 1 11 32
M  V30 35 1 16 33
M  V30 36 1 24 34
M  V30 END BOND
M  V30 END CTAB
M  END
>  <Dataset>  (148) 
ChEMBL_Kinases

>  <Ligand_Instance>  (148) 
nan

>  <PDB_ID>  (148) 
nan

>  <Standardized_SMILES>  (148) 
COc1ccc(-c2ccc(/C=C3\SC(=S)NC3=O)o2)c([N+](=O)[O-])c1

>  <Name>  (148) 
nan

>  <Pocket>  (148) 
nan

>  <ATP_Site>  (148) 
nan

>  <Peripheral>  (148) 
nan

>  <Num_H_Atoms_ProtBoundConf>  (148) 
nan

>  <Num_Resolved_Atoms>  (148) 
nan

>  <Num_Not_Resolved_Atoms>  (148) 
nan

$$$$
CHEMBL270181
     RDKit          3D

  0  0  0  0  0  0  0  0  0  0999 V3000
M  V30 BEGIN CTAB
M  V30 COUNTS 54 57 0 0 0
M  V30 BEGIN ATOM
M  V30 1 C 5.745255 -2.062135 -3.209523 0
M  V30 2 O 5.467317 -1.781841 -1.875481 0
M  V30 3 C 4.261055 -1.339938 -1.390652 0
M  V30 4 C 3.311733 -1.197512 -2.411135 0
M  V30 5 C 2.032403 -0.763433 -2.133884 0
M  V30 6 C 1.711532 -0.472693 -0.825233 0
M  V30 7 C 2.674827 -0.626915 0.141727 0
M  V30 8 C 3.966645 -1.053250 -0.051498 0
M  V30 9 O 5.057357 -1.281354 0.703985 0
M  V30 10 C 5.122620 -1.132544 2.081166 0
M  V30 11 C 4.208191 -2.072735 2.805360 0
M  V30 12 O 4.611183 -3.385468 2.452834 0
M  V30 13 N 0.518517 -0.014345 -0.199099 0
M  V30 14 C -0.806542 -0.093489 -0.762418 0
M  V30 15 C -1.814329 0.064730 0.174535 0
M  V30 16 C -3.155512 0.023388 -0.154498 0
M  V30 17 C -4.114868 0.203094 0.930023 0
M  V30 18 C -5.364596 0.793668 0.769406 0
M  V30 19 C -6.208300 0.916809 1.870570 0
M  V30 20 C -5.863469 0.475004 3.139043 0
M  V30 21 N -6.722678 0.602187 4.253754 0 CHG=1 VAL=4
M  V30 22 O -6.265622 0.763541 5.405237 0
M  V30 23 O -8.088872 0.558821 4.155952 0 CHG=-1 VAL=1
M  V30 24 C -4.622280 -0.109301 3.288640 0
M  V30 25 O -4.201927 -0.576213 4.520004 0
M  V30 26 C -2.915124 -1.185048 4.688602 0
M  V30 27 C -3.778772 -0.237493 2.210003 0
M  V30 28 C -3.469049 -0.186447 -1.484101 0
M  V30 29 C -2.464397 -0.345082 -2.423621 0
M  V30 30 C -1.125143 -0.304474 -2.098901 0
M  V30 31 C -0.233443 -0.496015 -3.246513 0
M  V30 32 O -0.795481 -0.510296 -4.373781 0
M  V30 33 N 1.185203 -0.669332 -3.270003 0
M  V30 34 H 5.269863 -2.977224 -3.590845 0
M  V30 35 H 5.459073 -1.239808 -3.924991 0
M  V30 36 H 6.845929 -2.204994 -3.370412 0
M  V30 37 H 3.484295 -1.403361 -3.452166 0
M  V30 38 H 2.461932 -0.392461 1.165680 0
M  V30 39 H 6.192143 -1.390766 2.363774 0
M  V30 40 H 4.937992 -0.060325 2.402570 0
M  V30 41 H 4.462331 -1.991446 3.910414 0
M  V30 42 H 3.149393 -1.935685 2.696383 0
M  V30 43 H 5.502159 -3.487420 2.869987 0
M  V30 44 H 0.553322 0.423482 0.747968 0
M  V30 45 H -1.440875 0.223045 1.181644 0
M  V30 46 H -5.645669 1.141814 -0.211318 0
M  V30 47 H -7.182396 1.383582 1.717149 0
M  V30 48 H -2.840061 -2.161695 4.170411 0
M  V30 49 H -2.143304 -0.498555 4.283494 0
M  V30 50 H -2.672570 -1.294876 5.764383 0
M  V30 51 H -2.816136 -0.700175 2.365623 0
M  V30 52 H -4.506856 -0.217480 -1.733110 0
M  V30 53 H -2.714798 -0.506882 -3.449030 0
M  V30 54 H 1.671756 -0.736111 -4.179411 0
M  V30 END ATOM
M  V30 BEGIN BOND
M  V30 1 1 1 2
M  V30 2 1 2 3
M  V30 3 2 3 4
M  V30 4 1 4 5
M  V30 5 2 5 6
M  V30 6 1 6 7
M  V30 7 2 7 8
M  V30 8 1 8 9
M  V30 9 1 9 10
M  V30 10 1 10 11
M  V30 11 1 11 12
M  V30 12 1 6 13
M  V30 13 1 13 14
M  V30 14 2 14 15
M  V30 15 1 15 16
M  V30 16 1 16 17
M  V30 17 2 17 18
M  V30 18 1 18 19
M  V30 19 2 19 20
M  V30 20 1 20 21
M  V30 21 2 21 22
M  V30 22 1 21 23
M  V30 23 1 20 24
M  V30 24 1 24 25
M  V30 25 1 25 26
M  V30 26 2 24 27
M  V30 27 2 16 28
M  V30 28 1 28 29
M  V30 29 2 29 30
M  V30 30 1 30 31
M  V30 31 2 31 32
M  V30 32 1 31 33
M  V30 33 1 8 3
M  V30 34 1 30 14
M  V30 35 1 33 5
M  V30 36 1 27 17
M  V30 37 1 1 34
M  V30 38 1 1 35
M  V30 39 1 1 36
M  V30 40 1 4 37
M  V30 41 1 7 38
M  V30 42 1 10 39
M  V30 43 1 10 40
M  V30 44 1 11 41
M  V30 45 1 11 42
M  V30 46 1 12 43
M  V30 47 1 13 44
M  V30 48 1 15 45
M  V30 49 1 18 46
M  V30 50 1 19 47
M  V30 51 1 26 48
M  V30 52 1 26 49
M  V30 53 1 26 50
M  V30 54 1 27 51
M  V30 55 1 28 52
M  V30 56 1 29 53
M  V30 57 1 33 54
M  V30 END BOND
M  V30 END CTAB
M  END
>  <Dataset>  (149) 
ChEMBL_Kinases

>  <Ligand_Instance>  (149) 
nan

>  <PDB_ID>  (149) 
nan

>  <Standardized_SMILES>  (149) 
COc1cc2c(cc1OCCO)Nc1cc(-c3ccc([N+](=O)[O-])c(OC)c3)ccc1C(=O)N2

>  <Name>  (149) 
nan

>  <Pocket>  (149) 
nan

>  <ATP_Site>  (149) 
nan

>  <Peripheral>  (149) 
nan

>  <Num_H_Atoms_ProtBoundConf>  (149) 
nan

>  <Num_Resolved_Atoms>  (149) 
nan

>  <Num_Not_Resolved_Atoms>  (149) 
nan

$$$$
CHEMBL270164
     RDKit          3D

  0  0  0  0  0  0  0  0  0  0999 V3000
M  V30 BEGIN CTAB
M  V30 COUNTS 48 51 0 0 0
M  V30 BEGIN ATOM
M  V30 1 C 2.502137 -7.063536 -0.431338 0
M  V30 2 C 3.498833 -5.965031 -0.216629 0
M  V30 3 N 4.850549 -5.962470 -0.268573 0
M  V30 4 N 5.275958 -4.720978 0.001329 0
M  V30 5 C 4.188105 -3.961028 0.218943 0
M  V30 6 C 4.223530 -2.534919 0.546593 0
M  V30 7 C 5.412185 -1.844174 0.659760 0
M  V30 8 C 5.371885 -0.500345 0.971304 0
M  V30 9 C 4.179981 0.157685 1.169387 0
M  V30 10 C 4.165691 1.589732 1.497767 0
M  V30 11 C 2.966762 -0.482427 1.068940 0
M  V30 12 C 1.649714 0.119879 1.261712 0
M  V30 13 C 0.755626 -0.243367 0.267463 0
M  V30 14 C -0.549583 0.204294 0.243846 0
M  V30 15 C -0.982240 1.046023 1.248304 0
M  V30 16 C -2.313769 1.624341 1.401701 0
M  V30 17 O -2.720707 2.392493 2.312073 0
M  V30 18 N -3.320299 1.328337 0.447186 0
M  V30 19 C -4.665943 1.723348 0.325620 0
M  V30 20 C -5.168001 2.838574 -0.348204 0
M  V30 21 C -6.530541 3.079891 -0.368309 0
M  V30 22 C -7.408103 2.239184 0.265562 0
M  V30 23 C -6.936841 1.133304 0.936407 0
M  V30 24 C -7.883006 0.257323 1.600065 0
M  V30 25 N -8.654673 -0.446006 2.130359 0
M  V30 26 C -5.576965 0.884814 0.961437 0
M  V30 27 C -0.098731 1.412373 2.241665 0
M  V30 28 C 1.206437 0.962494 2.262083 0
M  V30 29 C 3.045045 -1.844257 0.751723 0
M  V30 30 O 3.140834 -4.736999 0.080615 0
M  V30 31 H 2.046439 -7.018983 -1.430860 0
M  V30 32 H 1.659126 -6.959772 0.307053 0
M  V30 33 H 2.971114 -8.045395 -0.193213 0
M  V30 34 H 6.354878 -2.351564 0.506106 0
M  V30 35 H 6.297190 0.081878 1.069667 0
M  V30 36 H 4.264068 1.758316 2.600538 0
M  V30 37 H 5.034356 2.116568 1.003291 0
M  V30 38 H 3.223575 2.053633 1.142429 0
M  V30 39 H 0.976158 -0.902622 -0.580643 0
M  V30 40 H -1.288742 -0.043379 -0.501278 0
M  V30 41 H -3.180102 0.709970 -0.382907 0
M  V30 42 H -4.402722 3.457033 -0.826514 0
M  V30 43 H -6.805822 3.965694 -0.915902 0
M  V30 44 H -8.480791 2.467858 0.224603 0
M  V30 45 H -5.293340 0.007174 1.502888 0
M  V30 46 H -0.339586 2.074083 3.082811 0
M  V30 47 H 1.970634 1.188943 2.991672 0
M  V30 48 H 2.113725 -2.415199 0.656194 0
M  V30 END ATOM
M  V30 BEGIN BOND
M  V30 1 1 1 2
M  V30 2 2 2 3
M  V30 3 1 3 4
M  V30 4 2 4 5
M  V30 5 1 5 6
M  V30 6 2 6 7
M  V30 7 1 7 8
M  V30 8 2 8 9
M  V30 9 1 9 10
M  V30 10 1 9 11
M  V30 11 1 11 12
M  V30 12 2 12 13
M  V30 13 1 13 14
M  V30 14 2 14 15
M  V30 15 1 15 16
M  V30 16 2 16 17
M  V30 17 1 16 18
M  V30 18 1 18 19
M  V30 19 2 19 20
M  V30 20 1 20 21
M  V30 21 2 21 22
M  V30 22 1 22 23
M  V30 23 1 23 24
M  V30 24 3 24 25
M  V30 25 2 23 26
M  V30 26 1 15 27
M  V30 27 2 27 28
M  V30 28 2 11 29
M  V30 29 1 5 30
M  V30 30 1 30 2
M  V30 31 1 29 6
M  V30 32 1 28 12
M  V30 33 1 26 19
M  V30 34 1 1 31
M  V30 35 1 1 32
M  V30 36 1 1 33
M  V30 37 1 7 34
M  V30 38 1 8 35
M  V30 39 1 10 36
M  V30 40 1 10 37
M  V30 41 1 10 38
M  V30 42 1 13 39
M  V30 43 1 14 40
M  V30 44 1 18 41
M  V30 45 1 20 42
M  V30 46 1 21 43
M  V30 47 1 22 44
M  V30 48 1 26 45
M  V30 49 1 27 46
M  V30 50 1 28 47
M  V30 51 1 29 48
M  V30 END BOND
M  V30 END CTAB
M  END
>  <Dataset>  (150) 
ChEMBL_Kinases

>  <Ligand_Instance>  (150) 
nan

>  <PDB_ID>  (150) 
nan

>  <Standardized_SMILES>  (150) 
Cc1nnc(-c2ccc(C)c(-c3ccc(C(=O)Nc4cccc(C#N)c4)cc3)c2)o1

>  <Name>  (150) 
GW607117X

>  <Pocket>  (150) 
nan

>  <ATP_Site>  (150) 
nan

>  <Peripheral>  (150) 
nan

>  <Num_H_Atoms_ProtBoundConf>  (150) 
nan

>  <Num_Resolved_Atoms>  (150) 
nan

>  <Num_Not_Resolved_Atoms>  (150) 
nan

$$$$
CHEMBL270046
     RDKit          3D

  0  0  0  0  0  0  0  0  0  0999 V3000
M  V30 BEGIN CTAB
M  V30 COUNTS 37 39 0 0 0
M  V30 BEGIN ATOM
M  V30 1 O 2.434091 -1.698627 3.847895 0
M  V30 2 C 2.920135 -0.614417 3.433363 0
M  V30 3 N 4.064723 -0.030474 4.008127 0
M  V30 4 C 4.513145 1.196604 3.446748 0
M  V30 5 S 5.660481 2.231363 3.967383 0
M  V30 6 S 3.519377 1.430382 1.948088 0
M  V30 7 C 2.344594 0.134477 2.323175 0
M  V30 8 C 1.215250 -0.100071 1.744911 0
M  V30 9 C 0.694200 0.670702 0.650938 0
M  V30 10 C 1.570971 1.109291 -0.328845 0
M  V30 11 C 1.169705 1.855718 -1.412647 0
M  V30 12 C -0.163988 2.180155 -1.526156 0
M  V30 13 C -1.019977 1.739070 -0.548666 0
M  V30 14 C -0.667888 0.990937 0.552131 0
M  V30 15 O -1.434586 0.498646 1.579716 0
M  V30 16 S -2.158945 -1.025630 1.634246 0
M  V30 17 O -2.093389 -1.582856 3.034678 0
M  V30 18 O -3.643703 -0.782583 1.386578 0
M  V30 19 C -1.585362 -2.151318 0.468032 0
M  V30 20 C -0.849578 -3.236490 0.966309 0
M  V30 21 C -0.294544 -4.186469 0.116258 0
M  V30 22 C -0.449861 -4.092474 -1.246582 0
M  V30 23 C -1.174291 -3.032132 -1.798278 0
M  V30 24 C -1.687797 -2.142211 -0.894259 0
M  V30 25 N -2.455253 -1.089018 -1.451783 0 CHG=1 VAL=4
M  V30 26 O -2.616031 -0.375520 -2.455793 0
M  V30 27 O -3.491676 -0.238020 -1.164837 0 CHG=-1 VAL=1
M  V30 28 H 4.616929 -0.412052 4.807637 0
M  V30 29 H 0.566268 -0.913393 2.050529 0
M  V30 30 H 2.643538 0.917281 -0.357857 0
M  V30 31 H 1.823937 2.215387 -2.197472 0
M  V30 32 H -0.562263 2.761809 -2.344243 0
M  V30 33 H -2.071649 1.981093 -0.594478 0
M  V30 34 H -0.690993 -3.367732 2.039022 0
M  V30 35 H 0.279246 -5.032083 0.511658 0
M  V30 36 H -0.016907 -4.831440 -1.905618 0
M  V30 37 H -1.310263 -2.934330 -2.846936 0
M  V30 END ATOM
M  V30 BEGIN BOND
M  V30 1 2 1 2
M  V30 2 1 2 3
M  V30 3 1 3 4
M  V30 4 2 4 5
M  V30 5 1 4 6
M  V30 6 1 6 7
M  V30 7 2 7 8
M  V30 8 1 8 9
M  V30 9 2 9 10
M  V30 10 1 10 11
M  V30 11 2 11 12
M  V30 12 1 12 13
M  V30 13 2 13 14
M  V30 14 1 14 15
M  V30 15 1 15 16
M  V30 16 2 16 17
M  V30 17 2 16 18
M  V30 18 1 16 19
M  V30 19 2 19 20
M  V30 20 1 20 21
M  V30 21 2 21 22
M  V30 22 1 22 23
M  V30 23 2 23 24
M  V30 24 1 24 25
M  V30 25 2 25 26
M  V30 26 1 25 27
M  V30 27 1 7 2
M  V30 28 1 14 9
M  V30 29 1 24 19
M  V30 30 1 3 28
M  V30 31 1 8 29
M  V30 32 1 10 30
M  V30 33 1 11 31
M  V30 34 1 12 32
M  V30 35 1 13 33
M  V30 36 1 20 34
M  V30 37 1 21 35
M  V30 38 1 22 36
M  V30 39 1 23 37
M  V30 END BOND
M  V30 END CTAB
M  END
>  <Dataset>  (151) 
ChEMBL_Kinases

>  <Ligand_Instance>  (151) 
nan

>  <PDB_ID>  (151) 
nan

>  <Standardized_SMILES>  (151) 
O=C1NC(=S)S/C1=C\c1ccccc1OS(=O)(=O)c1ccccc1[N+](=O)[O-]

>  <Name>  (151) 
nan

>  <Pocket>  (151) 
nan

>  <ATP_Site>  (151) 
nan

>  <Peripheral>  (151) 
nan

>  <Num_H_Atoms_ProtBoundConf>  (151) 
nan

>  <Num_Resolved_Atoms>  (151) 
nan

>  <Num_Not_Resolved_Atoms>  (151) 
nan

$$$$
CHEMBL270045
     RDKit          3D

  0  0  0  0  0  0  0  0  0  0999 V3000
M  V30 BEGIN CTAB
M  V30 COUNTS 24 25 0 0 0
M  V30 BEGIN ATOM
M  V30 1 O -0.085923 -4.581966 1.124354 0
M  V30 2 C 0.427514 -3.581076 1.740793 0
M  V30 3 N 1.106896 -3.780339 2.970051 0
M  V30 4 C 1.638259 -2.576629 3.568866 0
M  V30 5 S 2.792044 -2.405683 4.711530 0
M  V30 6 S 0.717476 -1.268739 2.750258 0
M  V30 7 C 0.356024 -2.213224 1.245653 0
M  V30 8 C 0.077338 -1.837900 0.008934 0
M  V30 9 C 0.111381 -0.360903 -0.069414 0
M  V30 10 C -0.962739 0.233669 -0.728913 0
M  V30 11 C -1.049677 1.598163 -0.869117 0
M  V30 12 C -0.065713 2.416359 -0.356672 0
M  V30 13 O -0.120050 3.811624 -0.479776 0
M  V30 14 C 0.981057 1.786189 0.287961 0
M  V30 15 N 1.970815 2.640247 0.785576 0 CHG=1 VAL=4
M  V30 16 O 3.161879 2.820180 1.079363 0
M  V30 17 O 1.730008 3.934010 1.177151 0 CHG=-1 VAL=1
M  V30 18 C 1.098857 0.405775 0.448120 0
M  V30 19 H 1.247884 -4.687603 3.468494 0
M  V30 20 H -0.138895 -2.540043 -0.783466 0
M  V30 21 H -1.754442 -0.378067 -1.141464 0
M  V30 22 H -1.895481 2.009369 -1.382655 0
M  V30 23 H -0.419838 4.189114 -1.349713 0
M  V30 24 H 1.927464 -0.040783 0.948095 0
M  V30 END ATOM
M  V30 BEGIN BOND
M  V30 1 2 1 2
M  V30 2 1 2 3
M  V30 3 1 3 4
M  V30 4 2 4 5
M  V30 5 1 4 6
M  V30 6 1 6 7
M  V30 7 2 7 8
M  V30 8 1 8 9
M  V30 9 2 9 10
M  V30 10 1 10 11
M  V30 11 2 11 12
M  V30 12 1 12 13
M  V30 13 1 12 14
M  V30 14 1 14 15
M  V30 15 2 15 16
M  V30 16 1 15 17
M  V30 17 2 14 18
M  V30 18 1 7 2
M  V30 19 1 18 9
M  V30 20 1 3 19
M  V30 21 1 8 20
M  V30 22 1 10 21
M  V30 23 1 11 22
M  V30 24 1 13 23
M  V30 25 1 18 24
M  V30 END BOND
M  V30 END CTAB
M  END
>  <Dataset>  (152) 
ChEMBL_Kinases

>  <Ligand_Instance>  (152) 
nan

>  <PDB_ID>  (152) 
nan

>  <Standardized_SMILES>  (152) 
O=C1NC(=S)S/C1=C\c1ccc(O)c([N+](=O)[O-])c1

>  <Name>  (152) 
nan

>  <Pocket>  (152) 
nan

>  <ATP_Site>  (152) 
nan

>  <Peripheral>  (152) 
nan

>  <Num_H_Atoms_ProtBoundConf>  (152) 
nan

>  <Num_Resolved_Atoms>  (152) 
nan

>  <Num_Not_Resolved_Atoms>  (152) 
nan

$$$$
CHEMBL269696
     RDKit          3D

  0  0  0  0  0  0  0  0  0  0999 V3000
M  V30 BEGIN CTAB
M  V30 COUNTS 47 49 0 0 0
M  V30 BEGIN ATOM
M  V30 1 C 2.426413 0.096858 -3.225114 0
M  V30 2 C 2.966334 -0.130138 -1.824619 0
M  V30 3 C 4.440578 -0.362591 -1.935606 0
M  V30 4 O 4.608666 -1.537821 -2.686676 0
M  V30 5 N 2.612402 1.057354 -1.071375 0
M  V30 6 C 2.322024 0.935051 0.174112 0
M  V30 7 N 2.322000 -0.295205 0.878648 0
M  V30 8 C 1.951029 2.024290 1.050613 0
M  V30 9 C 1.913097 3.273737 0.488299 0
M  V30 10 O 2.171639 3.738607 -0.819430 0
M  V30 11 N 1.594284 4.488526 1.077746 0
M  V30 12 S 1.267363 3.802874 2.787474 0
M  V30 13 C 1.605055 2.103923 2.399327 0
M  V30 14 N 1.567067 0.955679 3.212113 0
M  V30 15 C 0.363941 0.203533 3.313221 0
M  V30 16 C 0.298390 -0.919409 4.113899 0
M  V30 17 C -0.879035 -1.632042 4.193405 0
M  V30 18 C -2.009983 -1.281673 3.509068 0
M  V30 19 O -3.236429 -1.918378 3.516348 0
M  V30 20 C -3.726750 -2.463315 2.345651 0
M  V30 21 C -3.215562 -2.553939 1.073834 0
M  V30 22 C -3.903452 -3.153827 0.043016 0
M  V30 23 F -3.309170 -3.185172 -1.155952 0
M  V30 24 C -5.171325 -3.705657 0.249324 0
M  V30 25 C -5.681000 -3.613578 1.525764 0
M  V30 26 C -4.998074 -3.013059 2.566880 0
M  V30 27 Cl -5.859508 -3.018072 4.110218 0
M  V30 28 C -1.977944 -0.147907 2.688642 0
M  V30 29 Cl -3.273226 0.541370 1.721936 0
M  V30 30 C -0.773665 0.563555 2.619726 0
M  V30 31 H 3.223495 0.664412 -3.772610 0
M  V30 32 H 2.166411 -0.851680 -3.733510 0
M  V30 33 H 1.557132 0.787150 -3.197521 0
M  V30 34 H 2.486934 -1.043140 -1.446910 0
M  V30 35 H 4.947606 -0.490062 -0.968038 0
M  V30 36 H 4.917655 0.439948 -2.516520 0
M  V30 37 H 4.108630 -2.298251 -2.295304 0
M  V30 38 H 2.845619 -0.618079 1.743970 0
M  V30 39 H 2.804658 -0.650198 1.709167 0
M  V30 40 H 1.752994 3.285785 -1.621149 0
M  V30 41 H 2.405643 0.639647 3.746706 0
M  V30 42 H 1.143641 -1.270874 4.691367 0
M  V30 43 H -0.971331 -2.523441 4.813722 0
M  V30 44 H -2.233405 -2.116152 0.996789 0
M  V30 45 H -5.662668 -4.163121 -0.596966 0
M  V30 46 H -6.662271 -4.056241 1.627764 0
M  V30 47 H -0.655818 1.466452 2.000147 0
M  V30 END ATOM
M  V30 BEGIN BOND
M  V30 1 1 1 2
M  V30 2 1 2 3
M  V30 3 1 3 4
M  V30 4 1 2 5
M  V30 5 2 5 6
M  V30 6 1 6 7
M  V30 7 1 6 8
M  V30 8 1 8 9
M  V30 9 1 9 10
M  V30 10 2 9 11
M  V30 11 1 11 12
M  V30 12 1 12 13
M  V30 13 1 13 14
M  V30 14 1 14 15
M  V30 15 2 15 16
M  V30 16 1 16 17
M  V30 17 2 17 18
M  V30 18 1 18 19
M  V30 19 1 19 20
M  V30 20 2 20 21
M  V30 21 1 21 22
M  V30 22 1 22 23
M  V30 23 2 22 24
M  V30 24 1 24 25
M  V30 25 2 25 26
M  V30 26 1 26 27
M  V30 27 1 18 28
M  V30 28 1 28 29
M  V30 29 2 28 30
M  V30 30 2 13 8
M  V30 31 1 30 15
M  V30 32 1 26 20
M  V30 33 1 1 31
M  V30 34 1 1 32
M  V30 35 1 1 33
M  V30 36 1 2 34
M  V30 37 1 3 35
M  V30 38 1 3 36
M  V30 39 1 4 37
M  V30 40 1 7 38
M  V30 41 1 7 39
M  V30 42 1 10 40
M  V30 43 1 14 41
M  V30 44 1 16 42
M  V30 45 1 17 43
M  V30 46 1 21 44
M  V30 47 1 24 45
M  V30 48 1 25 46
M  V30 49 1 30 47
M  V30 END BOND
M  V30 END CTAB
M  END
>  <Dataset>  (153) 
ChEMBL_Kinases

>  <Ligand_Instance>  (153) 
nan

>  <PDB_ID>  (153) 
nan

>  <Standardized_SMILES>  (153) 
CC(CO)/N=C(\N)c1c(O)nsc1Nc1ccc(Oc2cc(F)ccc2Cl)c(Cl)c1

>  <Name>  (153) 
nan

>  <Pocket>  (153) 
nan

>  <ATP_Site>  (153) 
nan

>  <Peripheral>  (153) 
nan

>  <Num_H_Atoms_ProtBoundConf>  (153) 
nan

>  <Num_Resolved_Atoms>  (153) 
nan

>  <Num_Not_Resolved_Atoms>  (153) 
nan

$$$$
CHEMBL269264
     RDKit          3D

  0  0  0  0  0  0  0  0  0  0999 V3000
M  V30 BEGIN CTAB
M  V30 COUNTS 52 56 0 0 0
M  V30 BEGIN ATOM
M  V30 1 C -3.128299 -3.060370 3.441204 0
M  V30 2 N -2.332628 -3.163809 2.237670 0
M  V30 3 C -1.115987 -2.669031 1.981508 0
M  V30 4 C -0.685974 -2.995688 0.688847 0
M  V30 5 C 0.543934 -2.656099 0.014288 0
M  V30 6 C 1.196295 -1.510376 -0.101868 0
M  V30 7 C 0.955568 -0.159921 0.381737 0
M  V30 8 C 1.956077 0.666366 0.915126 0
M  V30 9 N 1.455825 1.856862 1.270352 0
M  V30 10 C 2.234964 2.936616 1.850854 0
M  V30 11 C 2.804922 3.840677 0.779338 0
M  V30 12 C 3.708836 3.070005 -0.159467 0
M  V30 13 N 4.823004 2.474394 0.548846 0
M  V30 14 C 0.139790 1.871647 0.995837 0
M  V30 15 C -0.797423 2.865796 1.179300 0
M  V30 16 C -2.111309 2.591814 0.789674 0
M  V30 17 C -2.413215 1.343231 0.240039 0
M  V30 18 C -1.443253 0.400970 0.083787 0
M  V30 19 C -0.139753 0.633992 0.455983 0
M  V30 20 C 2.420014 -1.778231 -0.900889 0
M  V30 21 O 3.326143 -0.942835 -1.246045 0
M  V30 22 N 2.464340 -3.175941 -1.261477 0
M  V30 23 C 1.274799 -3.706526 -0.674197 0
M  V30 24 O 1.119319 -4.951487 -0.875137 0
M  V30 25 C -1.771714 -3.728422 0.215972 0
M  V30 26 C -2.018351 -4.350605 -1.009468 0
M  V30 27 C -3.179640 -5.034591 -1.292818 0
M  V30 28 C -4.174517 -5.128910 -0.335842 0
M  V30 29 C -3.918962 -4.510454 0.866793 0
M  V30 30 C -2.770927 -3.826764 1.165685 0
M  V30 31 H -2.478446 -2.717091 4.289831 0
M  V30 32 H -4.003330 -2.394709 3.347418 0
M  V30 33 H -3.469136 -4.110699 3.663036 0
M  V30 34 H -0.518237 -2.087380 2.664125 0
M  V30 35 H 3.009946 0.368268 1.021329 0
M  V30 36 H 3.064531 2.526604 2.436170 0
M  V30 37 H 1.557550 3.477479 2.538373 0
M  V30 38 H 3.405077 4.656822 1.225345 0
M  V30 39 H 1.992757 4.304005 0.196253 0
M  V30 40 H 4.118919 3.678129 -0.982954 0
M  V30 41 H 3.146722 2.233369 -0.631666 0
M  V30 42 H 5.084070 1.556405 0.079962 0
M  V30 43 H 5.683570 3.077587 0.449701 0
M  V30 44 H -0.502981 3.827488 1.616448 0
M  V30 45 H -2.800858 3.431914 0.966710 0
M  V30 46 H -3.438285 1.265951 -0.011589 0
M  V30 47 H -1.707677 -0.542878 -0.345912 0
M  V30 48 H 3.249408 -3.588109 -1.830288 0
M  V30 49 H -1.301791 -4.317083 -1.816907 0
M  V30 50 H -3.341022 -5.504163 -2.247928 0
M  V30 51 H -5.105278 -5.652246 -0.501017 0
M  V30 52 H -4.703044 -4.588517 1.611616 0
M  V30 END ATOM
M  V30 BEGIN BOND
M  V30 1 1 1 2
M  V30 2 1 2 3
M  V30 3 2 3 4
M  V30 4 1 4 5
M  V30 5 2 5 6
M  V30 6 1 6 7
M  V30 7 2 7 8
M  V30 8 1 8 9
M  V30 9 1 9 10
M  V30 10 1 10 11
M  V30 11 1 11 12
M  V30 12 1 12 13
M  V30 13 1 9 14
M  V30 14 2 14 15
M  V30 15 1 15 16
M  V30 16 2 16 17
M  V30 17 1 17 18
M  V30 18 2 18 19
M  V30 19 1 6 20
M  V30 20 2 20 21
M  V30 21 1 20 22
M  V30 22 1 22 23
M  V30 23 2 23 24
M  V30 24 1 4 25
M  V30 25 2 25 26
M  V30 26 1 26 27
M  V30 27 2 27 28
M  V30 28 1 28 29
M  V30 29 2 29 30
M  V30 30 1 30 2
M  V30 31 1 23 5
M  V30 32 1 30 25
M  V30 33 1 19 7
M  V30 34 1 19 14
M  V30 35 1 1 31
M  V30 36 1 1 32
M  V30 37 1 1 33
M  V30 38 1 3 34
M  V30 39 1 8 35
M  V30 40 1 10 36
M  V30 41 1 10 37
M  V30 42 1 11 38
M  V30 43 1 11 39
M  V30 44 1 12 40
M  V30 45 1 12 41
M  V30 46 1 13 42
M  V30 47 1 13 43
M  V30 48 1 15 44
M  V30 49 1 16 45
M  V30 50 1 17 46
M  V30 51 1 18 47
M  V30 52 1 22 48
M  V30 53 1 26 49
M  V30 54 1 27 50
M  V30 55 1 28 51
M  V30 56 1 29 52
M  V30 END BOND
M  V30 END CTAB
M  END
>  <Dataset>  (154) 
ChEMBL_Kinases

>  <Ligand_Instance>  (154) 
nan

>  <PDB_ID>  (154) 
nan

>  <Standardized_SMILES>  (154) 
Cn1cc(C2=C(c3cn(CCCN)c4ccccc34)C(=O)NC2=O)c2ccccc21

>  <Name>  (154) 
nan

>  <Pocket>  (154) 
nan

>  <ATP_Site>  (154) 
nan

>  <Peripheral>  (154) 
nan

>  <Num_H_Atoms_ProtBoundConf>  (154) 
nan

>  <Num_Resolved_Atoms>  (154) 
nan

>  <Num_Not_Resolved_Atoms>  (154) 
nan

$$$$
CHEMBL268809
     RDKit          3D

  0  0  0  0  0  0  0  0  0  0999 V3000
M  V30 BEGIN CTAB
M  V30 COUNTS 22 23 0 0 0
M  V30 BEGIN ATOM
M  V30 1 N 1.636379 0.629153 3.828637 0
M  V30 2 S 1.004827 -0.839883 3.211119 0
M  V30 3 O -0.361492 -1.133782 3.762525 0
M  V30 4 O 1.920315 -2.001088 3.562416 0
M  V30 5 C 0.923986 -0.810316 1.442903 0
M  V30 6 C 1.593722 -1.705874 0.645692 0
M  V30 7 C 1.519240 -1.667969 -0.730144 0
M  V30 8 C 0.749851 -0.704082 -1.355575 0
M  V30 9 C 0.071975 0.201539 -0.568219 0
M  V30 10 C -0.703624 1.174644 -1.164745 0
M  V30 11 C -1.386364 2.086661 -0.374174 0
M  V30 12 C -1.262107 1.984189 0.989754 0
M  V30 13 N -0.509386 1.040904 1.595126 0
M  V30 14 C 0.153269 0.155726 0.828036 0
M  V30 15 H 2.282155 0.494522 4.622063 0
M  V30 16 H 0.873077 1.329613 4.025197 0
M  V30 17 H 2.201292 -2.467443 1.129952 0
M  V30 18 H 2.083374 -2.416690 -1.268126 0
M  V30 19 H 0.689386 -0.671755 -2.435500 0
M  V30 20 H -0.815177 1.273487 -2.226778 0
M  V30 21 H -2.023591 2.892254 -0.719699 0
M  V30 22 H -1.754580 2.648609 1.715798 0
M  V30 END ATOM
M  V30 BEGIN BOND
M  V30 1 1 1 2
M  V30 2 2 2 3
M  V30 3 2 2 4
M  V30 4 1 2 5
M  V30 5 2 5 6
M  V30 6 1 6 7
M  V30 7 2 7 8
M  V30 8 1 8 9
M  V30 9 2 9 10
M  V30 10 1 10 11
M  V30 11 2 11 12
M  V30 12 1 12 13
M  V30 13 2 13 14
M  V30 14 1 14 5
M  V30 15 1 14 9
M  V30 16 1 1 15
M  V30 17 1 1 16
M  V30 18 1 6 17
M  V30 19 1 7 18
M  V30 20 1 8 19
M  V30 21 1 10 20
M  V30 22 1 11 21
M  V30 23 1 12 22
M  V30 END BOND
M  V30 END CTAB
M  END
>  <Dataset>  (155) 
ChEMBL_Kinases

>  <Ligand_Instance>  (155) 
nan

>  <PDB_ID>  (155) 
nan

>  <Standardized_SMILES>  (155) 
NS(=O)(=O)c1cccc2cccnc12

>  <Name>  (155) 
nan

>  <Pocket>  (155) 
nan

>  <ATP_Site>  (155) 
nan

>  <Peripheral>  (155) 
nan

>  <Num_H_Atoms_ProtBoundConf>  (155) 
nan

>  <Num_Resolved_Atoms>  (155) 
nan

>  <Num_Not_Resolved_Atoms>  (155) 
nan

$$$$
CHEMBL268769
     RDKit          3D

  0  0  0  0  0  0  0  0  0  0999 V3000
M  V30 BEGIN CTAB
M  V30 COUNTS 58 62 0 0 0
M  V30 BEGIN ATOM
M  V30 1 C -2.771600 -0.772499 0.457905 0
M  V30 2 N -1.929523 0.389717 0.665693 0
M  V30 3 C -1.051456 0.010590 1.787305 0
M  V30 4 C -2.689726 1.526474 1.141147 0
M  V30 5 C -3.638140 2.071219 0.139004 0
M  V30 6 C -3.071261 2.572334 -1.133289 0
M  V30 7 N -2.328695 1.571010 -1.878038 0
M  V30 8 C -1.014635 1.364770 -1.793163 0
M  V30 9 C -0.538866 0.371143 -2.604104 0
M  V30 10 C 0.735251 -0.272957 -2.887878 0
M  V30 11 C 1.699768 -0.777073 -2.139320 0
M  V30 12 C 1.938998 -0.919853 -0.713846 0
M  V30 13 C 2.126927 -2.146031 -0.081262 0
M  V30 14 N 2.363500 -1.972398 1.244821 0
M  V30 15 C 2.610538 -2.970660 2.267995 0
M  V30 16 C 2.343440 -0.662392 1.534537 0
M  V30 17 C 2.521294 0.125057 2.658961 0
M  V30 18 C 2.457344 1.491373 2.646091 0
M  V30 19 C 2.198545 2.126735 1.431953 0
M  V30 20 C 2.022350 1.337548 0.321662 0
M  V30 21 C 2.085167 -0.037582 0.335127 0
M  V30 22 C 2.790632 -1.285354 -3.003395 0
M  V30 23 O 3.894806 -1.843821 -2.708512 0
M  V30 24 N 2.433443 -1.057111 -4.365764 0
M  V30 25 C 1.161708 -0.429221 -4.299783 0
M  V30 26 O 0.632846 -0.121170 -5.425572 0
M  V30 27 C -1.716810 -0.052448 -3.235559 0
M  V30 28 C -2.096986 -0.996197 -4.161972 0
M  V30 29 C -3.377741 -1.202998 -4.605918 0
M  V30 30 C -4.393620 -0.422007 -4.106417 0
M  V30 31 C -4.102973 0.543518 -3.176867 0
M  V30 32 C -2.788172 0.688726 -2.781189 0
M  V30 33 H -3.181228 -1.050930 1.460442 0
M  V30 34 H -2.108424 -1.591251 0.093004 0
M  V30 35 H -3.545802 -0.647316 -0.302186 0
M  V30 36 H -0.286131 0.764125 2.004000 0
M  V30 37 H -0.535105 -0.944357 1.564283 0
M  V30 38 H -1.637728 -0.142884 2.724860 0
M  V30 39 H -1.997445 2.268308 1.544178 0
M  V30 40 H -3.294768 1.173623 2.009120 0
M  V30 41 H -4.153223 2.938219 0.642940 0
M  V30 42 H -4.467957 1.345873 -0.044701 0
M  V30 43 H -3.909203 2.995652 -1.736304 0
M  V30 44 H -2.420556 3.471070 -0.915487 0
M  V30 45 H -0.385679 1.926100 -1.148566 0
M  V30 46 H 2.109890 -3.166156 -0.492272 0
M  V30 47 H 2.289715 -3.966028 1.947463 0
M  V30 48 H 2.015252 -2.688536 3.163000 0
M  V30 49 H 3.687105 -2.967687 2.547635 0
M  V30 50 H 2.724215 -0.376732 3.611812 0
M  V30 51 H 2.591348 2.117665 3.501979 0
M  V30 52 H 2.143298 3.214535 1.398967 0
M  V30 53 H 1.845143 1.858819 -0.604606 0
M  V30 54 H 3.029663 -1.321208 -5.205750 0
M  V30 55 H -1.366912 -1.660507 -4.594508 0
M  V30 56 H -3.623894 -1.955738 -5.333566 0
M  V30 57 H -5.414638 -0.544818 -4.422458 0
M  V30 58 H -4.900488 1.156903 -2.783884 0
M  V30 END ATOM
M  V30 BEGIN BOND
M  V30 1 1 1 2
M  V30 2 1 2 3
M  V30 3 1 2 4
M  V30 4 1 4 5
M  V30 5 1 5 6
M  V30 6 1 6 7
M  V30 7 1 7 8
M  V30 8 2 8 9
M  V30 9 1 9 10
M  V30 10 2 10 11
M  V30 11 1 11 12
M  V30 12 2 12 13
M  V30 13 1 13 14
M  V30 14 1 14 15
M  V30 15 1 14 16
M  V30 16 2 16 17
M  V30 17 1 17 18
M  V30 18 2 18 19
M  V30 19 1 19 20
M  V30 20 2 20 21
M  V30 21 1 11 22
M  V30 22 2 22 23
M  V30 23 1 22 24
M  V30 24 1 24 25
M  V30 25 2 25 26
M  V30 26 1 9 27
M  V30 27 2 27 28
M  V30 28 1 28 29
M  V30 29 2 29 30
M  V30 30 1 30 31
M  V30 31 2 31 32
M  V30 32 1 32 7
M  V30 33 1 25 10
M  V30 34 1 32 27
M  V30 35 1 21 12
M  V30 36 1 21 16
M  V30 37 1 1 33
M  V30 38 1 1 34
M  V30 39 1 1 35
M  V30 40 1 3 36
M  V30 41 1 3 37
M  V30 42 1 3 38
M  V30 43 1 4 39
M  V30 44 1 4 40
M  V30 45 1 5 41
M  V30 46 1 5 42
M  V30 47 1 6 43
M  V30 48 1 6 44
M  V30 49 1 8 45
M  V30 50 1 13 46
M  V30 51 1 15 47
M  V30 52 1 15 48
M  V30 53 1 15 49
M  V30 54 1 17 50
M  V30 55 1 18 51
M  V30 56 1 19 52
M  V30 57 1 20 53
M  V30 58 1 24 54
M  V30 59 1 28 55
M  V30 60 1 29 56
M  V30 61 1 30 57
M  V30 62 1 31 58
M  V30 END BOND
M  V30 END CTAB
M  END
>  <Dataset>  (156) 
ChEMBL_Kinases

>  <Ligand_Instance>  (156) 
nan

>  <PDB_ID>  (156) 
nan

>  <Standardized_SMILES>  (156) 
CN(C)CCCn1cc(C2=C(c3cn(C)c4ccccc34)C(=O)NC2=O)c2ccccc21

>  <Name>  (156) 
nan

>  <Pocket>  (156) 
nan

>  <ATP_Site>  (156) 
nan

>  <Peripheral>  (156) 
nan

>  <Num_H_Atoms_ProtBoundConf>  (156) 
nan

>  <Num_Resolved_Atoms>  (156) 
nan

>  <Num_Not_Resolved_Atoms>  (156) 
nan

$$$$
CHEMBL268345
     RDKit          3D

  0  0  0  0  0  0  0  0  0  0999 V3000
M  V30 BEGIN CTAB
M  V30 COUNTS 77 81 0 0 0
M  V30 BEGIN ATOM
M  V30 1 C 1.134736 -0.395372 5.011422 0
M  V30 2 O 0.685988 -1.221848 4.100781 0
M  V30 3 C 0.253017 -2.027982 3.215426 0
M  V30 4 C 0.944287 -3.147853 2.764135 0
M  V30 5 C 0.317785 -3.908050 1.849020 0
M  V30 6 C 0.838770 -4.964383 1.143849 0
M  V30 7 N 2.341663 -4.914957 1.103332 0
M  V30 8 C 2.727091 -4.202943 -0.169255 0
M  V30 9 C 1.708425 -3.684446 -0.986773 0
M  V30 10 C 1.927570 -3.060496 -2.219307 0
M  V30 11 C 0.924384 -2.619636 -3.180601 0
M  V30 12 C 0.278912 -1.331380 -3.098567 0
M  V30 13 O 0.914042 -0.261408 -3.300954 0
M  V30 14 N -1.097404 -1.058508 -2.809465 0
M  V30 15 C -1.936241 0.100691 -2.713242 0
M  V30 16 C -1.530428 1.401980 -2.886367 0
M  V30 17 C -2.294365 2.570720 -2.813519 0
M  V30 18 C -3.620061 2.239964 -2.526081 0
M  V30 19 C -4.110252 0.996885 -2.344693 0
M  V30 20 N -5.491285 0.836052 -2.080338 0 CHG=1 VAL=4
M  V30 21 O -6.247130 1.803582 -1.976122 0
M  V30 22 O -6.085192 -0.387107 -1.957994 0 CHG=-1 VAL=1
M  V30 23 C -3.267013 -0.123203 -2.431972 0
M  V30 24 N 3.303881 -3.231957 -2.107304 0
M  V30 25 N 3.686094 -3.837961 -1.017076 0
M  V30 26 N 0.353401 -5.786576 0.153138 0
M  V30 27 C -0.958815 -5.489271 -0.257287 0
M  V30 28 N -1.541958 -4.451580 0.355969 0
M  V30 29 C -0.954519 -3.733990 1.304523 0
M  V30 30 C -1.733794 -2.623955 1.681591 0
M  V30 31 C -0.999344 -1.897845 2.598004 0
M  V30 32 O -1.431741 -0.600490 3.078013 0
M  V30 33 C -2.487504 -0.113365 2.190462 0
M  V30 34 C -2.499813 1.394784 2.382255 0
M  V30 35 C -1.124552 1.964666 2.296127 0
M  V30 36 N -0.215934 1.819707 1.244312 0
M  V30 37 C 0.438552 0.605693 0.981576 0
M  V30 38 C 1.220259 0.703119 -0.346139 0
M  V30 39 C 2.388438 1.612379 -0.126933 0
M  V30 40 C 3.665614 0.869582 -0.287811 0
M  V30 41 O 3.861751 -0.199592 0.554014 0
M  V30 42 C 2.223592 2.378922 1.143463 0
M  V30 43 C 0.833972 2.854118 1.361106 0
M  V30 44 H 2.248936 -0.357658 5.218976 0
M  V30 45 H 0.836701 0.684747 4.842816 0
M  V30 46 H 0.689775 -0.550992 6.069925 0
M  V30 47 H 1.901238 -3.454342 3.072549 0
M  V30 48 H 3.321347 -5.057041 1.407548 0
M  V30 49 H 0.609880 -3.573390 -0.867702 0
M  V30 50 H 0.114448 -3.435337 -3.163645 0
M  V30 51 H 1.334232 -2.786379 -4.240610 0
M  V30 52 H -1.579234 -1.997312 -2.631615 0
M  V30 53 H -0.489833 1.570129 -3.102088 0
M  V30 54 H -1.871560 3.542948 -2.956924 0
M  V30 55 H -4.307909 3.109415 -2.452055 0
M  V30 56 H -3.769260 -1.045634 -2.264259 0
M  V30 57 H 3.966378 -2.896072 -2.855324 0
M  V30 58 H -1.214107 -6.197399 -1.014965 0
M  V30 59 H -2.698433 -2.322221 1.381313 0
M  V30 60 H -3.469059 -0.498357 2.512937 0
M  V30 61 H -2.356315 -0.397913 1.154304 0
M  V30 62 H -3.092527 1.767686 1.477712 0
M  V30 63 H -3.070312 1.620818 3.280410 0
M  V30 64 H -1.320859 3.120904 2.415442 0
M  V30 65 H -0.653520 1.773907 3.313823 0
M  V30 66 H 1.226147 0.323543 1.725986 0
M  V30 67 H -0.185060 -0.293313 0.824077 0
M  V30 68 H 0.532905 1.163209 -1.029169 0
M  V30 69 H 1.523989 -0.331842 -0.647948 0
M  V30 70 H 2.391174 2.383517 -0.980566 0
M  V30 71 H 3.734852 0.435869 -1.337484 0
M  V30 72 H 4.558116 1.559173 -0.271010 0
M  V30 73 H 4.682465 -0.719822 0.286602 0
M  V30 74 H 2.863108 3.303109 1.009831 0
M  V30 75 H 2.683232 1.857790 2.038046 0
M  V30 76 H 0.596045 3.655007 0.622575 0
M  V30 77 H 0.779884 3.253572 2.391448 0
M  V30 END ATOM
M  V30 BEGIN BOND
M  V30 1 1 1 2
M  V30 2 1 2 3
M  V30 3 2 3 4
M  V30 4 1 4 5
M  V30 5 2 5 6
M  V30 6 1 6 7
M  V30 7 1 7 8
M  V30 8 1 8 9
M  V30 9 2 9 10
M  V30 10 1 10 11
M  V30 11 1 11 12
M  V30 12 2 12 13
M  V30 13 1 12 14
M  V30 14 1 14 15
M  V30 15 2 15 16
M  V30 16 1 16 17
M  V30 17 2 17 18
M  V30 18 1 18 19
M  V30 19 1 19 20
M  V30 20 2 20 21
M  V30 21 1 20 22
M  V30 22 2 19 23
M  V30 23 1 10 24
M  V30 24 1 24 25
M  V30 25 1 6 26
M  V30 26 2 26 27
M  V30 27 1 27 28
M  V30 28 2 28 29
M  V30 29 1 29 30
M  V30 30 2 30 31
M  V30 31 1 31 32
M  V30 32 1 32 33
M  V30 33 1 33 34
M  V30 34 1 34 35
M  V30 35 1 35 36
M  V30 36 1 36 37
M  V30 37 1 37 38
M  V30 38 1 38 39
M  V30 39 1 39 40
M  V30 40 1 40 41
M  V30 41 1 39 42
M  V30 42 1 42 43
M  V30 43 1 31 3
M  V30 44 1 43 36
M  V30 45 1 29 5
M  V30 46 2 25 8
M  V30 47 1 23 15
M  V30 48 1 1 44
M  V30 49 1 1 45
M  V30 50 1 1 46
M  V30 51 1 4 47
M  V30 52 1 7 48
M  V30 53 1 9 49
M  V30 54 1 11 50
M  V30 55 1 11 51
M  V30 56 1 14 52
M  V30 57 1 16 53
M  V30 58 1 17 54
M  V30 59 1 18 55
M  V30 60 1 23 56
M  V30 61 1 24 57
M  V30 62 1 27 58
M  V30 63 1 30 59
M  V30 64 1 33 60
M  V30 65 1 33 61
M  V30 66 1 34 62
M  V30 67 1 34 63
M  V30 68 1 35 64
M  V30 69 1 35 65
M  V30 70 1 37 66
M  V30 71 1 37 67
M  V30 72 1 38 68
M  V30 73 1 38 69
M  V30 74 1 39 70
M  V30 75 1 40 71
M  V30 76 1 40 72
M  V30 77 1 41 73
M  V30 78 1 42 74
M  V30 79 1 42 75
M  V30 80 1 43 76
M  V30 81 1 43 77
M  V30 END BOND
M  V30 END CTAB
M  END
>  <Dataset>  (157) 
ChEMBL_Kinases

>  <Ligand_Instance>  (157) 
nan

>  <PDB_ID>  (157) 
nan

>  <Standardized_SMILES>  (157) 
COc1cc2c(Nc3cc(CC(=O)Nc4cccc([N+](=O)[O-])c4)[nH]n3)ncnc2cc1OCCCN1CCC(CO)CC1

>  <Name>  (157) 
nan

>  <Pocket>  (157) 
nan

>  <ATP_Site>  (157) 
nan

>  <Peripheral>  (157) 
nan

>  <Num_H_Atoms_ProtBoundConf>  (157) 
nan

>  <Num_Resolved_Atoms>  (157) 
nan

>  <Num_Not_Resolved_Atoms>  (157) 
nan

$$$$
CHEMBL270617
     RDKit          3D

  0  0  0  0  0  0  0  0  0  0999 V3000
M  V30 BEGIN CTAB
M  V30 COUNTS 76 80 0 0 0
M  V30 BEGIN ATOM
M  V30 1 C 6.638076 -0.583835 3.492604 0
M  V30 2 C 5.916518 -0.347246 2.215337 0
M  V30 3 C 6.091641 -1.043471 1.047178 0
M  V30 4 C 5.362545 -0.735841 -0.088867 0
M  V30 5 C 4.423573 0.296874 -0.078127 0
M  V30 6 N 3.735843 0.523377 -1.299996 0
M  V30 7 N 4.088162 1.682050 -1.855630 0
M  V30 8 C 3.420337 1.867761 -3.010699 0
M  V30 9 C 3.453822 2.972875 -4.010050 0
M  V30 10 C 4.459461 2.562866 -5.066875 0
M  V30 11 C 3.917573 4.254035 -3.325502 0
M  V30 12 C 2.131184 3.193039 -4.664300 0
M  V30 13 C 2.608374 0.738065 -3.158050 0
M  V30 14 C 2.831321 -0.088695 -2.064129 0
M  V30 15 N 2.340976 -1.352181 -1.640748 0
M  V30 16 C 1.196203 -1.593420 -0.851805 0
M  V30 17 O 0.793680 -0.418996 -0.668616 0
M  V30 18 C 0.683036 -2.880607 -0.410292 0
M  V30 19 O 1.463190 -3.744944 -0.853398 0
M  V30 20 C -0.515551 -3.002836 0.386742 0
M  V30 21 C -1.223326 -1.893678 0.762097 0
M  V30 22 C -2.369686 -1.953204 1.518408 0
M  V30 23 C -2.896630 -3.147048 1.958404 0
M  V30 24 O -4.001839 -3.425188 2.706939 0
M  V30 25 C -4.959388 -2.576646 3.246777 0
M  V30 26 C -5.716098 -1.854608 2.187300 0
M  V30 27 N -6.718152 -0.951092 2.720276 0
M  V30 28 C -6.206982 0.179404 3.411186 0
M  V30 29 C -6.361790 1.496974 2.719521 0
M  V30 30 O -6.113058 1.285791 1.376080 0
M  V30 31 C -7.203223 0.609965 0.860720 0
M  V30 32 C -7.612158 -0.592757 1.644395 0
M  V30 33 C -2.179193 -4.291317 1.580140 0
M  V30 34 C -2.609506 -5.570935 1.964892 0
M  V30 35 C -1.971273 -6.749948 1.641249 0
M  V30 36 C -0.823683 -6.647875 0.881225 0
M  V30 37 C -0.400131 -5.391541 0.502781 0
M  V30 38 C -1.019638 -4.202697 0.813308 0
M  V30 39 C 4.263200 0.983503 1.104751 0
M  V30 40 C 4.983140 0.686388 2.241923 0
M  V30 41 H 7.456352 -1.321714 3.398225 0
M  V30 42 H 5.944681 -0.958791 4.287369 0
M  V30 43 H 7.128601 0.353137 3.847424 0
M  V30 44 H 6.833174 -1.840299 1.081538 0
M  V30 45 H 5.614218 -1.374789 -0.932082 0
M  V30 46 H 4.100948 1.568160 -5.443395 0
M  V30 47 H 4.440206 3.260900 -5.954578 0
M  V30 48 H 5.486327 2.476970 -4.688086 0
M  V30 49 H 4.058240 5.033635 -4.109868 0
M  V30 50 H 4.903465 4.027491 -2.840042 0
M  V30 51 H 3.169078 4.521221 -2.581222 0
M  V30 52 H 1.390375 2.408904 -4.410912 0
M  V30 53 H 1.707228 4.206883 -4.448609 0
M  V30 54 H 2.248526 3.156655 -5.765084 0
M  V30 55 H 1.910661 0.438739 -3.907651 0
M  V30 56 H 2.911354 -2.202268 -1.962889 0
M  V30 57 H -0.990175 -0.874429 0.527670 0
M  V30 58 H -2.920025 -1.091342 1.829643 0
M  V30 59 H -5.621833 -3.215300 3.886147 0
M  V30 60 H -4.455214 -1.899528 3.970929 0
M  V30 61 H -6.342040 -2.662652 1.675859 0
M  V30 62 H -5.135511 -1.429271 1.360876 0
M  V30 63 H -6.783458 0.254622 4.379772 0
M  V30 64 H -5.146111 0.109319 3.723723 0
M  V30 65 H -7.344570 1.976503 2.919886 0
M  V30 66 H -5.609131 2.227928 3.077819 0
M  V30 67 H -6.951182 0.395380 -0.211993 0
M  V30 68 H -8.032553 1.376444 0.826814 0
M  V30 69 H -7.619906 -1.453825 0.913024 0
M  V30 70 H -8.663135 -0.443986 2.014455 0
M  V30 71 H -3.521152 -5.689916 2.572077 0
M  V30 72 H -2.348195 -7.692597 1.964154 0
M  V30 73 H -0.309281 -7.556750 0.616721 0
M  V30 74 H 0.497991 -5.411564 -0.083563 0
M  V30 75 H 3.514324 1.785457 1.065191 0
M  V30 76 H 4.809775 1.268480 3.150965 0
M  V30 END ATOM
M  V30 BEGIN BOND
M  V30 1 1 1 2
M  V30 2 2 2 3
M  V30 3 1 3 4
M  V30 4 2 4 5
M  V30 5 1 5 6
M  V30 6 1 6 7
M  V30 7 2 7 8
M  V30 8 1 8 9
M  V30 9 1 9 10
M  V30 10 1 9 11
M  V30 11 1 9 12
M  V30 12 1 8 13
M  V30 13 2 13 14
M  V30 14 1 14 15
M  V30 15 1 15 16
M  V30 16 2 16 17
M  V30 17 1 16 18
M  V30 18 2 18 19
M  V30 19 1 18 20
M  V30 20 2 20 21
M  V30 21 1 21 22
M  V30 22 2 22 23
M  V30 23 1 23 24
M  V30 24 1 24 25
M  V30 25 1 25 26
M  V30 26 1 26 27
M  V30 27 1 27 28
M  V30 28 1 28 29
M  V30 29 1 29 30
M  V30 30 1 30 31
M  V30 31 1 31 32
M  V30 32 1 23 33
M  V30 33 2 33 34
M  V30 34 1 34 35
M  V30 35 2 35 36
M  V30 36 1 36 37
M  V30 37 2 37 38
M  V30 38 1 5 39
M  V30 39 2 39 40
M  V30 40 1 40 2
M  V30 41 1 14 6
M  V30 42 1 38 20
M  V30 43 1 32 27
M  V30 44 1 38 33
M  V30 45 1 1 41
M  V30 46 1 1 42
M  V30 47 1 1 43
M  V30 48 1 3 44
M  V30 49 1 4 45
M  V30 50 1 10 46
M  V30 51 1 10 47
M  V30 52 1 10 48
M  V30 53 1 11 49
M  V30 54 1 11 50
M  V30 55 1 11 51
M  V30 56 1 12 52
M  V30 57 1 12 53
M  V30 58 1 12 54
M  V30 59 1 13 55
M  V30 60 1 15 56
M  V30 61 1 21 57
M  V30 62 1 22 58
M  V30 63 1 25 59
M  V30 64 1 25 60
M  V30 65 1 26 61
M  V30 66 1 26 62
M  V30 67 1 28 63
M  V30 68 1 28 64
M  V30 69 1 29 65
M  V30 70 1 29 66
M  V30 71 1 31 67
M  V30 72 1 31 68
M  V30 73 1 32 69
M  V30 74 1 32 70
M  V30 75 1 34 71
M  V30 76 1 35 72
M  V30 77 1 36 73
M  V30 78 1 37 74
M  V30 79 1 39 75
M  V30 80 1 40 76
M  V30 END BOND
M  V30 END CTAB
M  END
>  <Dataset>  (158) 
ChEMBL_Kinases

>  <Ligand_Instance>  (158) 
nan

>  <PDB_ID>  (158) 
nan

>  <Standardized_SMILES>  (158) 
Cc1ccc(-n2nc(C(C)(C)C)cc2NC(=O)C(=O)c2ccc(OCCN3CCOCC3)c3ccccc23)cc1

>  <Name>  (158) 
nan

>  <Pocket>  (158) 
nan

>  <ATP_Site>  (158) 
nan

>  <Peripheral>  (158) 
nan

>  <Num_H_Atoms_ProtBoundConf>  (158) 
nan

>  <Num_Resolved_Atoms>  (158) 
nan

>  <Num_Not_Resolved_Atoms>  (158) 
nan

$$$$
CHEMBL277409
     RDKit          3D

  0  0  0  0  0  0  0  0  0  0999 V3000
M  V30 BEGIN CTAB
M  V30 COUNTS 48 51 0 0 0
M  V30 BEGIN ATOM
M  V30 1 O 0.525311 -3.950647 1.264145 0
M  V30 2 C -0.373300 -2.930924 1.676886 0
M  V30 3 C 0.074366 -1.720861 0.948992 0
M  V30 4 N 1.323569 -1.438432 0.500344 0
M  V30 5 C 1.345973 -0.245258 -0.121632 0
M  V30 6 C 2.549074 0.356109 -0.724448 0
M  V30 7 C 3.142984 -0.362788 -1.744983 0
M  V30 8 C 4.278229 0.142082 -2.359115 0
M  V30 9 C 4.783581 1.365904 -1.921800 0
M  V30 10 F 5.903723 1.939428 -2.474483 0
M  V30 11 C 4.169099 2.071068 -0.893398 0
M  V30 12 C 3.032156 1.559342 -0.282691 0
M  V30 13 C 0.082628 0.259216 -0.076017 0
M  V30 14 C -0.316345 1.544546 -0.642397 0
M  V30 15 C -0.259473 1.911237 -1.973787 0
M  V30 16 C -0.678472 3.172716 -2.344463 0
M  V30 17 N -1.148307 4.088055 -1.478118 0
M  V30 18 C -1.211712 3.746982 -0.168311 0
M  V30 19 C -0.804674 2.494881 0.260158 0
M  V30 20 N -0.659949 -0.654343 0.575851 0
M  V30 21 C -0.246275 -2.884663 3.144593 0
M  V30 22 C -1.022356 -1.972818 3.957433 0
M  V30 23 C -2.362655 -1.515753 3.577997 0
M  V30 24 C -3.292628 -2.456588 2.919758 0
M  V30 25 C -2.691487 -3.686587 2.326677 0
M  V30 26 C -1.734441 -3.399483 1.212986 0
M  V30 27 H 0.238970 -4.788074 1.732907 0
M  V30 28 H 2.756522 -1.300604 -2.080734 0
M  V30 29 H 4.804123 -0.361860 -3.167975 0
M  V30 30 H 4.590964 3.027339 -0.574944 0
M  V30 31 H 2.537871 2.089096 0.517888 0
M  V30 32 H 0.120799 1.161542 -2.650698 0
M  V30 33 H -0.623364 3.437638 -3.400860 0
M  V30 34 H -1.582421 4.435152 0.600450 0
M  V30 35 H -0.867897 2.251473 1.315895 0
M  V30 36 H -1.674757 -0.491934 0.735914 0
M  V30 37 H 0.854202 -2.724600 3.355672 0
M  V30 38 H -0.387827 -3.947706 3.502864 0
M  V30 39 H -0.407563 -1.038516 4.143757 0
M  V30 40 H -1.080645 -2.407551 5.004122 0
M  V30 41 H -2.889251 -1.197545 4.531332 0
M  V30 42 H -2.292035 -0.522450 3.041417 0
M  V30 43 H -4.140378 -2.804906 3.569403 0
M  V30 44 H -3.797243 -1.901444 2.087241 0
M  V30 45 H -2.341858 -4.363773 3.102536 0
M  V30 46 H -3.554065 -4.229138 1.837773 0
M  V30 47 H -1.697121 -4.297583 0.561979 0
M  V30 48 H -2.231619 -2.624186 0.568609 0
M  V30 END ATOM
M  V30 BEGIN BOND
M  V30 1 1 1 2
M  V30 2 1 2 3
M  V30 3 2 3 4
M  V30 4 1 4 5
M  V30 5 1 5 6
M  V30 6 2 6 7
M  V30 7 1 7 8
M  V30 8 2 8 9
M  V30 9 1 9 10
M  V30 10 1 9 11
M  V30 11 2 11 12
M  V30 12 2 5 13
M  V30 13 1 13 14
M  V30 14 2 14 15
M  V30 15 1 15 16
M  V30 16 2 16 17
M  V30 17 1 17 18
M  V30 18 2 18 19
M  V30 19 1 13 20
M  V30 20 1 2 21
M  V30 21 1 21 22
M  V30 22 1 22 23
M  V30 23 1 23 24
M  V30 24 1 24 25
M  V30 25 1 25 26
M  V30 26 1 26 2
M  V30 27 1 20 3
M  V30 28 1 12 6
M  V30 29 1 19 14
M  V30 30 1 1 27
M  V30 31 1 7 28
M  V30 32 1 8 29
M  V30 33 1 11 30
M  V30 34 1 12 31
M  V30 35 1 15 32
M  V30 36 1 16 33
M  V30 37 1 18 34
M  V30 38 1 19 35
M  V30 39 1 20 36
M  V30 40 1 21 37
M  V30 41 1 21 38
M  V30 42 1 22 39
M  V30 43 1 22 40
M  V30 44 1 23 41
M  V30 45 1 23 42
M  V30 46 1 24 43
M  V30 47 1 24 44
M  V30 48 1 25 45
M  V30 49 1 25 46
M  V30 50 1 26 47
M  V30 51 1 26 48
M  V30 END BOND
M  V30 END CTAB
M  END
>  <Dataset>  (159) 
ChEMBL_Kinases

>  <Ligand_Instance>  (159) 
nan

>  <PDB_ID>  (159) 
nan

>  <Standardized_SMILES>  (159) 
OC1(c2nc(-c3ccc(F)cc3)c(-c3ccncc3)[nH]2)CCCCCC1

>  <Name>  (159) 
nan

>  <Pocket>  (159) 
nan

>  <ATP_Site>  (159) 
nan

>  <Peripheral>  (159) 
nan

>  <Num_H_Atoms_ProtBoundConf>  (159) 
nan

>  <Num_Resolved_Atoms>  (159) 
nan

>  <Num_Not_Resolved_Atoms>  (159) 
nan

$$$$
CHEMBL277294
     RDKit          3D

  0  0  0  0  0  0  0  0  0  0999 V3000
M  V30 BEGIN CTAB
M  V30 COUNTS 16 17 0 0 0
M  V30 BEGIN ATOM
M  V30 1 O -0.872440 -2.113943 0.347668 0
M  V30 2 C -0.032526 -1.461448 1.052664 0
M  V30 3 N 0.325189 -1.612339 2.420813 0
M  V30 4 C 1.319929 -0.624268 2.719558 0
M  V30 5 O 1.813624 -0.538271 3.874979 0
M  V30 6 C 1.597003 0.164490 1.523783 0
M  V30 7 C 2.459562 1.214623 1.301240 0
M  V30 8 C 2.533211 1.802494 0.041406 0
M  V30 9 C 1.721777 1.300904 -0.960413 0
M  V30 10 C 0.851719 0.234664 -0.718551 0
M  V30 11 C 0.783104 -0.344108 0.532583 0
M  V30 12 H -0.116704 -2.344511 3.018466 0
M  V30 13 H 3.064310 1.567037 2.101238 0
M  V30 14 H 3.223771 2.625248 -0.091985 0
M  V30 15 H 1.784307 1.762656 -1.937008 0
M  V30 16 H 0.252072 -0.097449 -1.554889 0
M  V30 END ATOM
M  V30 BEGIN BOND
M  V30 1 2 1 2
M  V30 2 1 2 3
M  V30 3 1 3 4
M  V30 4 2 4 5
M  V30 5 1 4 6
M  V30 6 2 6 7
M  V30 7 1 7 8
M  V30 8 2 8 9
M  V30 9 1 9 10
M  V30 10 2 10 11
M  V30 11 1 11 2
M  V30 12 1 11 6
M  V30 13 1 3 12
M  V30 14 1 7 13
M  V30 15 1 8 14
M  V30 16 1 9 15
M  V30 17 1 10 16
M  V30 END BOND
M  V30 END CTAB
M  END
>  <Dataset>  (160) 
ChEMBL_Kinases

>  <Ligand_Instance>  (160) 
nan

>  <PDB_ID>  (160) 
nan

>  <Standardized_SMILES>  (160) 
O=C1NC(=O)c2ccccc21

>  <Name>  (160) 
PHTHALIMIDE

>  <Pocket>  (160) 
nan

>  <ATP_Site>  (160) 
nan

>  <Peripheral>  (160) 
nan

>  <Num_H_Atoms_ProtBoundConf>  (160) 
nan

>  <Num_Resolved_Atoms>  (160) 
nan

>  <Num_Not_Resolved_Atoms>  (160) 
nan

$$$$
CHEMBL276429
     RDKit          3D

  0  0  0  0  0  0  0  0  0  0999 V3000
M  V30 BEGIN CTAB
M  V30 COUNTS 58 58 0 0 0
M  V30 BEGIN ATOM
M  V30 1 C -2.147154 -2.259805 4.944385 0
M  V30 2 C -0.753942 -1.754601 4.584621 0
M  V30 3 C -0.025786 -2.906410 3.943487 0
M  V30 4 C 1.386494 -2.601440 3.539501 0
M  V30 5 C 1.342262 -1.453129 2.512338 0
M  V30 6 C 2.717293 -1.114686 2.048830 0
M  V30 7 C 2.854765 -0.059842 1.030658 0
M  V30 8 C 2.438507 1.321502 1.279941 0
M  V30 9 C 1.036596 1.658008 1.583345 0
M  V30 10 C 0.053500 1.217276 0.494327 0
M  V30 11 C -1.315230 1.639959 0.934777 0
M  V30 12 C -2.445938 1.285162 0.061676 0
M  V30 13 C -2.508060 1.772782 -1.328307 0
M  V30 14 C -1.418732 1.308323 -2.206908 0
M  V30 15 O -0.386056 1.538557 -2.887206 0
M  V30 16 O -1.503280 -0.049319 -2.452661 0
M  V30 17 C -0.652964 -0.823281 -3.225169 0 CFG=2
M  V30 18 C -1.479396 -1.391357 -4.392600 0
M  V30 19 C -1.984743 -2.676387 -3.822691 0
M  V30 20 O -2.899505 -3.454517 -4.211970 0
M  V30 21 O -1.277614 -3.001544 -2.671820 0
M  V30 22 C -0.191176 -2.082359 -2.519311 0 CFG=1
M  V30 23 C 0.978259 -2.652289 -3.274653 0
M  V30 24 O 2.120313 -1.835880 -3.201334 0
M  V30 25 H -2.568882 -1.660741 5.771670 0
M  V30 26 H -2.836599 -2.211980 4.093439 0
M  V30 27 H -2.028842 -3.307011 5.317697 0
M  V30 28 H -0.197458 -1.399750 5.458814 0
M  V30 29 H -0.937991 -0.966410 3.808417 0
M  V30 30 H -0.087488 -3.824326 4.583747 0
M  V30 31 H -0.648969 -3.178630 3.040403 0
M  V30 32 H 1.956663 -2.307964 4.435104 0
M  V30 33 H 1.783741 -3.522966 3.060456 0
M  V30 34 H 0.848235 -0.636509 3.052756 0
M  V30 35 H 0.766581 -1.854666 1.654030 0
M  V30 36 H 3.176177 -2.068040 1.631760 0
M  V30 37 H 3.396162 -0.851257 2.906637 0
M  V30 38 H 2.471289 -0.436893 0.010267 0
M  V30 39 H 3.979310 -0.001171 0.792174 0
M  V30 40 H 3.059169 1.711843 2.137808 0
M  V30 41 H 2.765342 1.957029 0.405914 0
M  V30 42 H 0.991085 2.814146 1.470620 0
M  V30 43 H 0.673846 1.522803 2.598268 0
M  V30 44 H 0.391801 1.761643 -0.418722 0
M  V30 45 H 0.062152 0.148066 0.303321 0
M  V30 46 H -1.485514 1.100999 1.924532 0
M  V30 47 H -1.323642 2.718308 1.254809 0
M  V30 48 H -3.390180 1.550744 0.638957 0
M  V30 49 H -2.537493 0.146222 0.004977 0
M  V30 50 H -2.638702 2.887911 -1.399364 0
M  V30 51 H -3.473317 1.367810 -1.765228 0
M  V30 52 H 0.193491 -0.315569 -3.706112 0
M  V30 53 H -2.362497 -0.765707 -4.614337 0
M  V30 54 H -0.867886 -1.531123 -5.297030 0
M  V30 55 H -0.001286 -1.969836 -1.453940 0
M  V30 56 H 1.300477 -3.643954 -2.841307 0
M  V30 57 H 0.723658 -2.863682 -4.333258 0
M  V30 58 H 2.653762 -2.031911 -2.403268 0
M  V30 END ATOM
M  V30 BEGIN BOND
M  V30 1 1 1 2
M  V30 2 1 2 3
M  V30 3 1 3 4
M  V30 4 1 4 5
M  V30 5 1 5 6
M  V30 6 1 6 7
M  V30 7 1 7 8
M  V30 8 1 8 9
M  V30 9 1 9 10
M  V30 10 1 10 11
M  V30 11 1 11 12
M  V30 12 1 12 13
M  V30 13 1 13 14
M  V30 14 2 14 15
M  V30 15 1 14 16
M  V30 16 1 16 17
M  V30 17 1 17 18
M  V30 18 1 18 19
M  V30 19 2 19 20
M  V30 20 1 19 21
M  V30 21 1 21 22
M  V30 22 1 22 23
M  V30 23 1 23 24
M  V30 24 1 22 17
M  V30 25 1 1 25
M  V30 26 1 1 26
M  V30 27 1 1 27
M  V30 28 1 2 28
M  V30 29 1 2 29
M  V30 30 1 3 30
M  V30 31 1 3 31
M  V30 32 1 4 32
M  V30 33 1 4 33
M  V30 34 1 5 34
M  V30 35 1 5 35
M  V30 36 1 6 36
M  V30 37 1 6 37
M  V30 38 1 7 38
M  V30 39 1 7 39
M  V30 40 1 8 40
M  V30 41 1 8 41
M  V30 42 1 9 42
M  V30 43 1 9 43
M  V30 44 1 10 44
M  V30 45 1 10 45
M  V30 46 1 11 46
M  V30 47 1 11 47
M  V30 48 1 12 48
M  V30 49 1 12 49
M  V30 50 1 13 50
M  V30 51 1 13 51
M  V30 52 1 17 52 CFG=3
M  V30 53 1 18 53
M  V30 54 1 18 54
M  V30 55 1 22 55 CFG=1
M  V30 56 1 23 56
M  V30 57 1 23 57
M  V30 58 1 24 58
M  V30 END BOND
M  V30 END CTAB
M  END
>  <Dataset>  (161) 
ChEMBL_Kinases

>  <Ligand_Instance>  (161) 
nan

>  <PDB_ID>  (161) 
nan

>  <Standardized_SMILES>  (161) 
CCCCCCCCCCCCCC(=O)O[C@@H]1CC(=O)O[C@H]1CO

>  <Name>  (161) 
nan

>  <Pocket>  (161) 
nan

>  <ATP_Site>  (161) 
nan

>  <Peripheral>  (161) 
nan

>  <Num_H_Atoms_ProtBoundConf>  (161) 
nan

>  <Num_Resolved_Atoms>  (161) 
nan

>  <Num_Not_Resolved_Atoms>  (161) 
nan

$$$$
CHEMBL275938
     RDKit          3D

  0  0  0  0  0  0  0  0  0  0999 V3000
M  V30 BEGIN CTAB
M  V30 COUNTS 45 47 0 0 0
M  V30 BEGIN ATOM
M  V30 1 O 2.234885 -0.875243 5.555499 0
M  V30 2 C 1.121605 -1.433366 5.459878 0
M  V30 3 O 0.815902 -1.991972 6.671348 0
M  V30 4 C 0.251052 -1.513902 4.300783 0
M  V30 5 C 0.556163 -0.970486 3.137672 0
M  V30 6 C -0.291953 -1.033396 1.959062 0
M  V30 7 C -0.017471 -0.464194 0.803906 0
M  V30 8 C 1.137265 0.336101 0.434276 0
M  V30 9 C 1.853266 0.168575 -0.744639 0
M  V30 10 C 2.938581 0.889087 -1.173667 0
M  V30 11 C 3.371662 1.898660 -0.340385 0
M  V30 12 O 4.467306 2.637549 -0.759084 0
M  V30 13 C 2.714622 2.137600 0.859940 0
M  V30 14 C 3.199303 3.211957 1.718494 0
M  V30 15 O 2.644980 3.477698 2.815521 0
M  V30 16 O 4.292179 3.986425 1.362515 0
M  V30 17 C 1.638948 1.368196 1.208461 0
M  V30 18 C -0.855691 -0.603786 -0.379336 0
M  V30 19 C -1.257638 0.500849 -1.134922 0
M  V30 20 C -2.035742 0.283290 -2.274856 0
M  V30 21 C -2.427643 -0.964718 -2.693783 0
M  V30 22 O -3.201240 -1.175445 -3.827132 0
M  V30 23 C -2.027499 -2.047689 -1.944427 0
M  V30 24 C -2.403895 -3.417974 -2.327821 0
M  V30 25 O -3.098095 -3.656504 -3.347639 0
M  V30 26 O -2.014313 -4.511414 -1.588558 0
M  V30 27 C -1.247447 -1.879425 -0.794624 0
M  V30 28 C -1.528623 -1.743842 2.126782 0
M  V30 29 C -1.885708 -2.308377 3.267029 0
M  V30 30 C -1.010823 -2.229094 4.438613 0
M  V30 31 O -1.310596 -2.754732 5.554071 0
M  V30 32 H 1.480276 -2.444112 7.302209 0
M  V30 33 H 1.494675 -0.476255 3.112095 0
M  V30 34 H 1.515279 -0.634721 -1.418060 0
M  V30 35 H 3.413939 0.664831 -2.115280 0
M  V30 36 H 5.386659 2.228789 -0.847567 0
M  V30 37 H 4.975447 4.322178 2.055857 0
M  V30 38 H 1.184933 1.622021 2.134569 0
M  V30 39 H -0.947462 1.471654 -0.802452 0
M  V30 40 H -2.348019 1.137844 -2.860173 0
M  V30 41 H -4.133344 -1.616767 -3.767329 0
M  V30 42 H -1.754569 -5.418864 -1.999925 0
M  V30 43 H -0.961760 -2.800482 -0.267527 0
M  V30 44 H -2.292954 -1.891516 1.399613 0
M  V30 45 H -2.807607 -2.858028 3.451138 0
M  V30 END ATOM
M  V30 BEGIN BOND
M  V30 1 2 1 2
M  V30 2 1 2 3
M  V30 3 1 2 4
M  V30 4 2 4 5
M  V30 5 1 5 6
M  V30 6 2 6 7 CFG=2
M  V30 7 1 7 8
M  V30 8 2 8 9
M  V30 9 1 9 10
M  V30 10 2 10 11
M  V30 11 1 11 12
M  V30 12 1 11 13
M  V30 13 1 13 14
M  V30 14 2 14 15
M  V30 15 1 14 16
M  V30 16 2 13 17
M  V30 17 1 7 18
M  V30 18 2 18 19
M  V30 19 1 19 20
M  V30 20 2 20 21
M  V30 21 1 21 22
M  V30 22 1 21 23
M  V30 23 1 23 24
M  V30 24 2 24 25
M  V30 25 1 24 26
M  V30 26 2 23 27
M  V30 27 1 6 28
M  V30 28 2 28 29
M  V30 29 1 29 30
M  V30 30 2 30 31
M  V30 31 1 30 4
M  V30 32 1 17 8
M  V30 33 1 27 18
M  V30 34 1 3 32
M  V30 35 1 5 33
M  V30 36 1 9 34
M  V30 37 1 10 35
M  V30 38 1 12 36
M  V30 39 1 16 37
M  V30 40 1 17 38
M  V30 41 1 19 39
M  V30 42 1 20 40
M  V30 43 1 22 41
M  V30 44 1 26 42
M  V30 45 1 27 43
M  V30 46 1 28 44
M  V30 47 1 29 45
M  V30 END BOND
M  V30 END CTAB
M  END
>  <Dataset>  (162) 
ChEMBL_Kinases

>  <Ligand_Instance>  (162) 
nan

>  <PDB_ID>  (162) 
nan

>  <Standardized_SMILES>  (162) 
O=C(O)C1=CC(=C(c2ccc(O)c(C(=O)O)c2)c2ccc(O)c(C(=O)O)c2)C=CC1=O

>  <Name>  (162) 
AURINTRICARBOXYLIC ACID

>  <Pocket>  (162) 
nan

>  <ATP_Site>  (162) 
nan

>  <Peripheral>  (162) 
nan

>  <Num_H_Atoms_ProtBoundConf>  (162) 
nan

>  <Num_Resolved_Atoms>  (162) 
nan

>  <Num_Not_Resolved_Atoms>  (162) 
nan

$$$$
CHEMBL275645
     RDKit          3D

  0  0  0  0  0  0  0  0  0  0999 V3000
M  V30 BEGIN CTAB
M  V30 COUNTS 41 43 0 0 0
M  V30 BEGIN ATOM
M  V30 1 C 2.276510 -4.220703 4.328705 0
M  V30 2 C 1.742980 -3.399094 3.187619 0
M  V30 3 C 1.372875 -4.285039 2.008684 0
M  V30 4 S 2.849465 -2.087800 2.654815 0
M  V30 5 C 2.051768 -1.162219 1.239853 0
M  V30 6 S 2.151987 -1.464377 -0.462654 0
M  V30 7 C 1.154069 -0.179104 -0.954634 0
M  V30 8 C 0.781136 0.178224 -2.384848 0
M  V30 9 C 1.202602 -0.494176 -3.487183 0
M  V30 10 C 0.619865 0.180979 -4.539653 0
M  V30 11 N -0.112422 1.208905 -4.045133 0
M  V30 12 N -0.000516 1.190789 -2.713940 0
M  V30 13 C 0.792900 0.415902 0.181271 0
M  V30 14 C 1.254970 -0.088927 1.323454 0
M  V30 15 C 0.816269 0.618753 2.551554 0
M  V30 16 O 1.501476 0.620898 3.631677 0
M  V30 17 C -0.448010 1.414712 2.724214 0
M  V30 18 C -1.164871 1.295265 1.394659 0
M  V30 19 C -1.758710 -0.060937 1.184547 0
M  V30 20 C -2.243148 2.332752 1.378153 0
M  V30 21 C -0.096218 1.624210 0.367459 0
M  V30 22 H 2.972585 -4.981133 3.921391 0
M  V30 23 H 2.749917 -3.553443 5.066602 0
M  V30 24 H 1.398268 -4.754077 4.786206 0
M  V30 25 H 0.778851 -2.890997 3.481932 0
M  V30 26 H 0.266829 -4.478525 1.959117 0
M  V30 27 H 1.891488 -5.258002 2.153622 0
M  V30 28 H 1.638894 -3.828255 1.042819 0
M  V30 29 H 1.842450 -1.357212 -3.563428 0
M  V30 30 H 0.680561 -0.005455 -5.605095 0
M  V30 31 H -0.699186 1.951894 -4.466809 0
M  V30 32 H -1.058741 1.059399 3.551786 0
M  V30 33 H -0.131478 2.471735 2.829258 0
M  V30 34 H -1.747127 -0.616061 2.151926 0
M  V30 35 H -1.201784 -0.673768 0.446756 0
M  V30 36 H -2.776271 0.055927 0.762974 0
M  V30 37 H -1.862635 3.350638 1.581392 0
M  V30 38 H -2.939699 2.084718 2.211865 0
M  V30 39 H -2.842512 2.286341 0.443640 0
M  V30 40 H -0.626042 1.908584 -0.538392 0
M  V30 41 H 0.473491 2.492633 0.768899 0
M  V30 END ATOM
M  V30 BEGIN BOND
M  V30 1 1 1 2
M  V30 2 1 2 3
M  V30 3 1 2 4
M  V30 4 1 4 5
M  V30 5 1 5 6
M  V30 6 1 6 7
M  V30 7 1 7 8
M  V30 8 1 8 9
M  V30 9 2 9 10
M  V30 10 1 10 11
M  V30 11 1 11 12
M  V30 12 2 7 13
M  V30 13 1 13 14
M  V30 14 1 14 15
M  V30 15 2 15 16
M  V30 16 1 15 17
M  V30 17 1 17 18
M  V30 18 1 18 19
M  V30 19 1 18 20
M  V30 20 1 18 21
M  V30 21 2 14 5
M  V30 22 2 12 8
M  V30 23 1 21 13
M  V30 24 1 1 22
M  V30 25 1 1 23
M  V30 26 1 1 24
M  V30 27 1 2 25
M  V30 28 1 3 26
M  V30 29 1 3 27
M  V30 30 1 3 28
M  V30 31 1 9 29
M  V30 32 1 10 30
M  V30 33 1 11 31
M  V30 34 1 17 32
M  V30 35 1 17 33
M  V30 36 1 19 34
M  V30 37 1 19 35
M  V30 38 1 19 36
M  V30 39 1 20 37
M  V30 40 1 20 38
M  V30 41 1 20 39
M  V30 42 1 21 40
M  V30 43 1 21 41
M  V30 END BOND
M  V30 END CTAB
M  END
>  <Dataset>  (163) 
ChEMBL_Kinases

>  <Ligand_Instance>  (163) 
nan

>  <PDB_ID>  (163) 
nan

>  <Standardized_SMILES>  (163) 
CC(C)Sc1sc(-c2cc[nH]n2)c2c1C(=O)CC(C)(C)C2

>  <Name>  (163) 
nan

>  <Pocket>  (163) 
nan

>  <ATP_Site>  (163) 
nan

>  <Peripheral>  (163) 
nan

>  <Num_H_Atoms_ProtBoundConf>  (163) 
nan

>  <Num_Resolved_Atoms>  (163) 
nan

>  <Num_Not_Resolved_Atoms>  (163) 
nan

$$$$
CHEMBL275626
     RDKit          3D

  0  0  0  0  0  0  0  0  0  0999 V3000
M  V30 BEGIN CTAB
M  V30 COUNTS 10 9 0 0 0
M  V30 BEGIN ATOM
M  V30 1 C 2.483799 -0.977883 1.930452 0
M  V30 2 C 1.105485 -0.997227 1.311353 0
M  V30 3 C 0.960283 -2.078175 0.315500 0
M  V30 4 O 1.462854 -1.853513 -0.773322 0
M  V30 5 H 2.940472 0.028690 1.785145 0
M  V30 6 H 2.395527 -1.135936 3.031142 0
M  V30 7 H 3.108038 -1.762150 1.475774 0
M  V30 8 H 0.317933 -1.183504 2.095273 0
M  V30 9 H 0.905800 -0.017682 0.805446 0
M  V30 10 H 0.443091 -3.018776 0.521079 0
M  V30 END ATOM
M  V30 BEGIN BOND
M  V30 1 1 1 2
M  V30 2 1 2 3
M  V30 3 2 3 4
M  V30 4 1 1 5
M  V30 5 1 1 6
M  V30 6 1 1 7
M  V30 7 1 2 8
M  V30 8 1 2 9
M  V30 9 1 3 10
M  V30 END BOND
M  V30 END CTAB
M  END
>  <Dataset>  (164) 
ChEMBL_Kinases

>  <Ligand_Instance>  (164) 
nan

>  <PDB_ID>  (164) 
nan

>  <Standardized_SMILES>  (164) 
CCC=O

>  <Name>  (164) 
PROPIONALDEHYDE

>  <Pocket>  (164) 
nan

>  <ATP_Site>  (164) 
nan

>  <Peripheral>  (164) 
nan

>  <Num_H_Atoms_ProtBoundConf>  (164) 
nan

>  <Num_Resolved_Atoms>  (164) 
nan

>  <Num_Not_Resolved_Atoms>  (164) 
nan

$$$$
CHEMBL274506
     RDKit          3D

  0  0  0  0  0  0  0  0  0  0999 V3000
M  V30 BEGIN CTAB
M  V30 COUNTS 55 58 0 0 0
M  V30 BEGIN ATOM
M  V30 1 N 1.618235 -4.933772 2.136739 0
M  V30 2 C 0.806283 -3.769393 2.017958 0
M  V30 3 C 1.031247 -2.410483 1.992278 0
M  V30 4 C 2.387965 -1.906174 2.112590 0
M  V30 5 O 3.316098 -2.742921 2.277958 0
M  V30 6 C 2.892990 -0.547815 2.075786 0
M  V30 7 C 4.046204 -0.238201 2.766694 0
M  V30 8 C 4.589774 1.052375 2.763854 0
M  V30 9 C 3.984272 2.073206 2.061450 0
M  V30 10 C 2.829326 1.796587 1.359561 0
M  V30 11 O 2.204218 2.811738 0.645581 0
M  V30 12 C 1.004086 2.470017 -0.067426 0
M  V30 13 C 0.430596 3.643116 -0.789626 0
M  V30 14 N -0.760583 3.283071 -1.486310 0
M  V30 15 C -1.873197 2.951753 -0.638198 0
M  V30 16 C -3.156620 3.320940 -1.369254 0
M  V30 17 C -3.012677 3.010831 -2.847065 0
M  V30 18 C -2.000678 1.919222 -3.010721 0
M  V30 19 C -0.624345 2.325069 -2.530297 0
M  V30 20 C 2.337483 0.511767 1.395537 0
M  V30 21 C -0.190366 -1.805272 1.854746 0
M  V30 22 N -1.113627 -2.771059 1.799734 0
M  V30 23 N -0.536085 -3.960070 1.896109 0
M  V30 24 C -1.318883 -5.134075 1.861158 0
M  V30 25 C -1.797394 -5.902335 2.900706 0
M  V30 26 C -2.558148 -7.030085 2.630694 0
M  V30 27 C -2.835320 -7.381916 1.317871 0
M  V30 28 F -3.583202 -8.492363 1.097842 0
M  V30 29 C -2.367787 -6.629195 0.259187 0
M  V30 30 C -1.612562 -5.510503 0.545915 0
M  V30 31 H 1.648590 -5.586462 1.328428 0
M  V30 32 H 2.239998 -5.351525 2.860230 0
M  V30 33 H 4.568317 -0.993820 3.336603 0
M  V30 34 H 5.503704 1.216743 3.334356 0
M  V30 35 H 4.450943 3.041412 2.100216 0
M  V30 36 H 1.267560 1.627434 -0.748128 0
M  V30 37 H 0.219007 2.081859 0.614330 0
M  V30 38 H 1.171736 4.076657 -1.480309 0
M  V30 39 H 0.133121 4.392281 -0.015677 0
M  V30 40 H -1.780472 3.539611 0.297209 0
M  V30 41 H -1.882842 1.872341 -0.382950 0
M  V30 42 H -3.321338 4.422293 -1.281916 0
M  V30 43 H -4.019623 2.785130 -0.978648 0
M  V30 44 H -3.983273 2.667783 -3.227329 0
M  V30 45 H -2.655082 3.925526 -3.403328 0
M  V30 46 H -1.929454 1.609904 -4.077654 0
M  V30 47 H -2.391566 1.008483 -2.476012 0
M  V30 48 H -0.071198 2.775003 -3.382588 0
M  V30 49 H -0.109842 1.411399 -2.216006 0
M  V30 50 H 1.446322 0.352936 0.828590 0
M  V30 51 H -0.367899 -0.763209 1.805953 0
M  V30 52 H -1.522465 -5.536984 3.868439 0
M  V30 53 H -2.909669 -7.598272 3.485482 0
M  V30 54 H -2.609863 -6.943050 -0.752529 0
M  V30 55 H -1.286933 -4.978469 -0.360564 0
M  V30 END ATOM
M  V30 BEGIN BOND
M  V30 1 1 1 2
M  V30 2 2 2 3
M  V30 3 1 3 4
M  V30 4 2 4 5
M  V30 5 1 4 6
M  V30 6 2 6 7
M  V30 7 1 7 8
M  V30 8 2 8 9
M  V30 9 1 9 10
M  V30 10 1 10 11
M  V30 11 1 11 12
M  V30 12 1 12 13
M  V30 13 1 13 14
M  V30 14 1 14 15
M  V30 15 1 15 16
M  V30 16 1 16 17
M  V30 17 1 17 18
M  V30 18 1 18 19
M  V30 19 2 10 20
M  V30 20 1 3 21
M  V30 21 2 21 22
M  V30 22 1 22 23
M  V30 23 1 23 24
M  V30 24 2 24 25
M  V30 25 1 25 26
M  V30 26 2 26 27
M  V30 27 1 27 28
M  V30 28 1 27 29
M  V30 29 2 29 30
M  V30 30 1 23 2
M  V30 31 1 30 24
M  V30 32 1 20 6
M  V30 33 1 19 14
M  V30 34 1 1 31
M  V30 35 1 1 32
M  V30 36 1 7 33
M  V30 37 1 8 34
M  V30 38 1 9 35
M  V30 39 1 12 36
M  V30 40 1 12 37
M  V30 41 1 13 38
M  V30 42 1 13 39
M  V30 43 1 15 40
M  V30 44 1 15 41
M  V30 45 1 16 42
M  V30 46 1 16 43
M  V30 47 1 17 44
M  V30 48 1 17 45
M  V30 49 1 18 46
M  V30 50 1 18 47
M  V30 51 1 19 48
M  V30 52 1 19 49
M  V30 53 1 20 50
M  V30 54 1 21 51
M  V30 55 1 25 52
M  V30 56 1 26 53
M  V30 57 1 29 54
M  V30 58 1 30 55
M  V30 END BOND
M  V30 END CTAB
M  END
>  <Dataset>  (165) 
ChEMBL_Kinases

>  <Ligand_Instance>  (165) 
nan

>  <PDB_ID>  (165) 
nan

>  <Standardized_SMILES>  (165) 
Nc1c(C(=O)c2cccc(OCCN3CCCCC3)c2)cnn1-c1ccc(F)cc1

>  <Name>  (165) 
nan

>  <Pocket>  (165) 
nan

>  <ATP_Site>  (165) 
nan

>  <Peripheral>  (165) 
nan

>  <Num_H_Atoms_ProtBoundConf>  (165) 
nan

>  <Num_Resolved_Atoms>  (165) 
nan

>  <Num_Not_Resolved_Atoms>  (165) 
nan

$$$$
CHEMBL274281
     RDKit          3D

  0  0  0  0  0  0  0  0  0  0999 V3000
M  V30 BEGIN CTAB
M  V30 COUNTS 38 40 0 0 0
M  V30 BEGIN ATOM
M  V30 1 C -0.723872 -1.390116 5.233125 0
M  V30 2 C 0.761992 -1.446130 5.338708 0
M  V30 3 S 1.494000 -0.111215 4.364378 0
M  V30 4 C 1.168565 -0.449730 2.645622 0
M  V30 5 S 2.332320 -1.498720 1.864978 0
M  V30 6 C 1.510953 -1.465728 0.207710 0
M  V30 7 C 2.076877 -2.217315 -0.902599 0
M  V30 8 C 1.756994 -2.421410 -2.215302 0
M  V30 9 C 2.637578 -3.242265 -2.867740 0
M  V30 10 N 3.525603 -3.549137 -1.918550 0
M  V30 11 N 3.213233 -2.967978 -0.793558 0
M  V30 12 C 0.459070 -0.671639 0.428070 0
M  V30 13 C 0.296052 -0.154775 1.687293 0
M  V30 14 C -0.827180 0.760063 1.966648 0
M  V30 15 O -1.367257 0.877398 3.092284 0
M  V30 16 C -1.425966 1.640201 0.918451 0
M  V30 17 C -1.003079 1.185105 -0.439708 0
M  V30 18 C -2.261072 1.294837 -1.323249 0
M  V30 19 C 0.001485 2.119073 -1.062767 0
M  V30 20 C -0.604730 -0.269059 -0.517295 0
M  V30 21 H -1.111422 -0.380321 5.519973 0
M  V30 22 H -1.134039 -2.179106 5.907495 0
M  V30 23 H -1.082590 -1.609938 4.210160 0
M  V30 24 H 1.068378 -2.415330 4.833334 0
M  V30 25 H 1.127964 -1.475700 6.385482 0
M  V30 26 H 0.901471 -1.976588 -2.662384 0
M  V30 27 H 2.614840 -3.557670 -3.891184 0
M  V30 28 H 4.370541 -4.156652 -1.986400 0
M  V30 29 H -2.520510 1.700167 1.071173 0
M  V30 30 H -1.032070 2.685210 1.080551 0
M  V30 31 H -3.000270 0.611449 -0.819089 0
M  V30 32 H -2.632952 2.319927 -1.388653 0
M  V30 33 H -2.010499 0.843091 -2.284405 0
M  V30 34 H 1.020268 1.685800 -0.979714 0
M  V30 35 H 0.013910 3.122678 -0.603665 0
M  V30 36 H -0.197311 2.248650 -2.153933 0
M  V30 37 H -0.382334 -0.464760 -1.558853 0
M  V30 38 H -1.560222 -0.843500 -0.304206 0
M  V30 END ATOM
M  V30 BEGIN BOND
M  V30 1 1 1 2
M  V30 2 1 2 3
M  V30 3 1 3 4
M  V30 4 1 4 5
M  V30 5 1 5 6
M  V30 6 1 6 7
M  V30 7 1 7 8
M  V30 8 2 8 9
M  V30 9 1 9 10
M  V30 10 1 10 11
M  V30 11 2 6 12
M  V30 12 1 12 13
M  V30 13 1 13 14
M  V30 14 2 14 15
M  V30 15 1 14 16
M  V30 16 1 16 17
M  V30 17 1 17 18
M  V30 18 1 17 19
M  V30 19 1 17 20
M  V30 20 2 13 4
M  V30 21 2 11 7
M  V30 22 1 20 12
M  V30 23 1 1 21
M  V30 24 1 1 22
M  V30 25 1 1 23
M  V30 26 1 2 24
M  V30 27 1 2 25
M  V30 28 1 8 26
M  V30 29 1 9 27
M  V30 30 1 10 28
M  V30 31 1 16 29
M  V30 32 1 16 30
M  V30 33 1 18 31
M  V30 34 1 18 32
M  V30 35 1 18 33
M  V30 36 1 19 34
M  V30 37 1 19 35
M  V30 38 1 19 36
M  V30 39 1 20 37
M  V30 40 1 20 38
M  V30 END BOND
M  V30 END CTAB
M  END
>  <Dataset>  (166) 
ChEMBL_Kinases

>  <Ligand_Instance>  (166) 
nan

>  <PDB_ID>  (166) 
nan

>  <Standardized_SMILES>  (166) 
CCSc1sc(-c2cc[nH]n2)c2c1C(=O)CC(C)(C)C2

>  <Name>  (166) 
nan

>  <Pocket>  (166) 
nan

>  <ATP_Site>  (166) 
nan

>  <Peripheral>  (166) 
nan

>  <Num_H_Atoms_ProtBoundConf>  (166) 
nan

>  <Num_Resolved_Atoms>  (166) 
nan

>  <Num_Not_Resolved_Atoms>  (166) 
nan

$$$$
CHEMBL274189
     RDKit          3D

  0  0  0  0  0  0  0  0  0  0999 V3000
M  V30 BEGIN CTAB
M  V30 COUNTS 48 51 0 0 0
M  V30 BEGIN ATOM
M  V30 1 C 4.801179 -5.090775 -1.537608 0
M  V30 2 O 4.670681 -3.845483 -0.946670 0
M  V30 3 C 3.541072 -3.146954 -0.636304 0
M  V30 4 C 2.241063 -3.600868 -0.879349 0
M  V30 5 C 1.146563 -2.835559 -0.536293 0
M  V30 6 C 1.392088 -1.612975 0.052258 0
M  V30 7 C 2.651593 -1.118843 0.313700 0
M  V30 8 C 3.737326 -1.928202 -0.050619 0
M  V30 9 O 5.012708 -1.434855 0.210757 0
M  V30 10 C 5.255318 -0.196435 0.807098 0
M  V30 11 C 0.216771 -0.827497 0.402612 0
M  V30 12 C 0.340666 0.409971 0.995187 0
M  V30 13 C -0.762854 1.185496 1.341675 0
M  V30 14 C -0.636139 2.437681 1.941421 0
M  V30 15 C -1.760848 3.187233 2.275145 0
M  V30 16 C -3.012937 2.670796 2.002521 0
M  V30 17 O -4.211366 3.347474 2.299796 0
M  V30 18 C -4.285537 4.602716 2.896954 0
M  V30 19 C -3.158302 1.431580 1.408620 0
M  V30 20 O -4.429509 0.893043 1.125192 0
M  V30 21 C -4.967271 0.110058 2.197115 0
M  V30 22 C -2.042386 0.682353 1.074837 0
M  V30 23 C -2.127536 -0.563563 0.479118 0
M  V30 24 N -1.029468 -1.275790 0.162669 0 CHG=1 VAL=4
M  V30 25 C -1.333087 -2.533982 -0.443090 0
M  V30 26 C -0.177458 -3.382257 -0.824160 0
M  V30 27 H 3.831369 -5.624181 -1.476428 0
M  V30 28 H 5.097890 -5.082598 -2.605086 0
M  V30 29 H 5.502296 -5.700039 -0.916965 0
M  V30 30 H 2.105891 -4.561440 -1.340914 0
M  V30 31 H 2.860856 -0.167037 0.772530 0
M  V30 32 H 5.019344 0.661072 0.147626 0
M  V30 33 H 4.729339 -0.097290 1.780883 0
M  V30 34 H 6.353582 -0.135439 1.020174 0
M  V30 35 H 1.260543 0.870162 1.233962 0
M  V30 36 H 0.361830 2.806029 2.138113 0
M  V30 37 H -1.682667 4.142801 2.732416 0
M  V30 38 H -3.436489 4.691026 3.620138 0
M  V30 39 H -5.208182 4.639185 3.535159 0
M  V30 40 H -4.246268 5.444339 2.187888 0
M  V30 41 H -4.374579 -0.814114 2.379208 0
M  V30 42 H -6.002582 -0.185106 2.010441 0
M  V30 43 H -4.897731 0.676848 3.158346 0
M  V30 44 H -3.148539 -0.878959 0.307400 0
M  V30 45 H -2.087601 -3.074939 0.196727 0
M  V30 46 H -1.919994 -2.292184 -1.377535 0
M  V30 47 H -0.178025 -3.698046 -1.891286 0
M  V30 48 H -0.268587 -4.351666 -0.250659 0
M  V30 END ATOM
M  V30 BEGIN BOND
M  V30 1 1 1 2
M  V30 2 1 2 3
M  V30 3 2 3 4
M  V30 4 1 4 5
M  V30 5 2 5 6
M  V30 6 1 6 7
M  V30 7 2 7 8
M  V30 8 1 8 9
M  V30 9 1 9 10
M  V30 10 1 6 11
M  V30 11 2 11 12
M  V30 12 1 12 13
M  V30 13 2 13 14
M  V30 14 1 14 15
M  V30 15 2 15 16
M  V30 16 1 16 17
M  V30 17 1 17 18
M  V30 18 1 16 19
M  V30 19 1 19 20
M  V30 20 1 20 21
M  V30 21 2 19 22
M  V30 22 1 22 23
M  V30 23 2 23 24
M  V30 24 1 24 25
M  V30 25 1 25 26
M  V30 26 1 8 3
M  V30 27 1 24 11
M  V30 28 1 26 5
M  V30 29 1 22 13
M  V30 30 1 1 27
M  V30 31 1 1 28
M  V30 32 1 1 29
M  V30 33 1 4 30
M  V30 34 1 7 31
M  V30 35 1 10 32
M  V30 36 1 10 33
M  V30 37 1 10 34
M  V30 38 1 12 35
M  V30 39 1 14 36
M  V30 40 1 15 37
M  V30 41 1 18 38
M  V30 42 1 18 39
M  V30 43 1 18 40
M  V30 44 1 21 41
M  V30 45 1 21 42
M  V30 46 1 21 43
M  V30 47 1 23 44
M  V30 48 1 25 45
M  V30 49 1 25 46
M  V30 50 1 26 47
M  V30 51 1 26 48
M  V30 END BOND
M  V30 END CTAB
M  END
>  <Dataset>  (167) 
ChEMBL_Kinases

>  <Ligand_Instance>  (167) 
nan

>  <PDB_ID>  (167) 
nan

>  <Standardized_SMILES>  (167) 
COc1cc2c(cc1OC)-c1cc3ccc(OC)c(OC)c3c[n+]1CC2

>  <Name>  (167) 
PALMATINE CHLORIDE

>  <Pocket>  (167) 
nan

>  <ATP_Site>  (167) 
nan

>  <Peripheral>  (167) 
nan

>  <Num_H_Atoms_ProtBoundConf>  (167) 
nan

>  <Num_Resolved_Atoms>  (167) 
nan

>  <Num_Not_Resolved_Atoms>  (167) 
nan

$$$$
CHEMBL274064
     RDKit          3D

  0  0  0  0  0  0  0  0  0  0999 V3000
M  V30 BEGIN CTAB
M  V30 COUNTS 44 47 0 0 0
M  V30 BEGIN ATOM
M  V30 1 N -2.562544 -3.625287 -1.137023 0
M  V30 2 C -1.223655 -3.318247 -0.743177 0
M  V30 3 N -0.233084 -4.222977 -0.804426 0
M  V30 4 C 1.011914 -3.873450 -0.418537 0
M  V30 5 C 1.235166 -2.581476 0.033358 0
M  V30 6 C 0.200292 -1.645211 0.094541 0
M  V30 7 C 0.678406 -0.372635 0.596503 0
M  V30 8 C 1.136336 0.624197 -0.240101 0
M  V30 9 C 1.275789 0.740001 -1.688021 0
M  V30 10 C 2.077896 -0.069693 -2.480045 0
M  V30 11 C 2.163543 0.101909 -3.846537 0
M  V30 12 C 1.435880 1.109961 -4.486408 0
M  V30 13 F 1.520046 1.278070 -5.827843 0
M  V30 14 C 0.612345 1.952969 -3.732706 0
M  V30 15 C 0.565720 1.735267 -2.371649 0
M  V30 16 N 1.506070 1.663785 0.550272 0
M  V30 17 C 1.275506 1.302256 1.846736 0
M  V30 18 N 0.768162 0.051356 1.856561 0
M  V30 19 C 0.404479 -0.663115 3.053232 0
M  V30 20 C 1.270029 -0.257944 4.196030 0
M  V30 21 C 0.706379 0.759156 5.111965 0
M  V30 22 N -0.714014 0.876372 5.145962 0
M  V30 23 C -1.364746 0.849290 3.865436 0
M  V30 24 C -1.056137 -0.532823 3.291228 0
M  V30 25 N -1.037125 -2.052113 -0.307395 0
M  V30 26 H -3.386870 -3.211441 -0.629494 0
M  V30 27 H -2.613585 -4.276306 -1.947207 0
M  V30 28 H 1.779184 -4.632188 -0.483778 0
M  V30 29 H 2.266436 -2.421341 0.312978 0
M  V30 30 H 2.615007 -0.831453 -1.921418 0
M  V30 31 H 2.805439 -0.563102 -4.396238 0
M  V30 32 H 0.028105 2.748526 -4.174996 0
M  V30 33 H -0.080523 2.398189 -1.785247 0
M  V30 34 H 1.506663 1.999368 2.631100 0
M  V30 35 H 0.592362 -1.758475 2.845662 0
M  V30 36 H 1.568982 -1.169139 4.780877 0
M  V30 37 H 2.209233 0.178148 3.759524 0
M  V30 38 H 1.131225 1.798503 4.985387 0
M  V30 39 H 1.013981 0.509446 6.171240 0
M  V30 40 H -1.168542 0.121610 5.718141 0
M  V30 41 H -0.992796 1.587663 3.138443 0
M  V30 42 H -2.450810 0.950695 4.062307 0
M  V30 43 H -1.596215 -0.596704 2.324680 0
M  V30 44 H -1.482042 -1.332434 3.927669 0
M  V30 END ATOM
M  V30 BEGIN BOND
M  V30 1 1 1 2
M  V30 2 2 2 3
M  V30 3 1 3 4
M  V30 4 2 4 5
M  V30 5 1 5 6
M  V30 6 1 6 7
M  V30 7 2 7 8
M  V30 8 1 8 9
M  V30 9 2 9 10
M  V30 10 1 10 11
M  V30 11 2 11 12
M  V30 12 1 12 13
M  V30 13 1 12 14
M  V30 14 2 14 15
M  V30 15 1 8 16
M  V30 16 2 16 17
M  V30 17 1 17 18
M  V30 18 1 18 19
M  V30 19 1 19 20
M  V30 20 1 20 21
M  V30 21 1 21 22
M  V30 22 1 22 23
M  V30 23 1 23 24
M  V30 24 2 6 25
M  V30 25 1 25 2
M  V30 26 1 18 7
M  V30 27 1 24 19
M  V30 28 1 15 9
M  V30 29 1 1 26
M  V30 30 1 1 27
M  V30 31 1 4 28
M  V30 32 1 5 29
M  V30 33 1 10 30
M  V30 34 1 11 31
M  V30 35 1 14 32
M  V30 36 1 15 33
M  V30 37 1 17 34
M  V30 38 1 19 35
M  V30 39 1 20 36
M  V30 40 1 20 37
M  V30 41 1 21 38
M  V30 42 1 21 39
M  V30 43 1 22 40
M  V30 44 1 23 41
M  V30 45 1 23 42
M  V30 46 1 24 43
M  V30 47 1 24 44
M  V30 END BOND
M  V30 END CTAB
M  END
>  <Dataset>  (168) 
ChEMBL_Kinases

>  <Ligand_Instance>  (168) 
nan

>  <PDB_ID>  (168) 
nan

>  <Standardized_SMILES>  (168) 
Nc1nccc(-c2c(-c3ccc(F)cc3)ncn2C2CCNCC2)n1

>  <Name>  (168) 
SB-220025

>  <Pocket>  (168) 
nan

>  <ATP_Site>  (168) 
nan

>  <Peripheral>  (168) 
nan

>  <Num_H_Atoms_ProtBoundConf>  (168) 
nan

>  <Num_Resolved_Atoms>  (168) 
nan

>  <Num_Not_Resolved_Atoms>  (168) 
nan

$$$$
CHEMBL273158
     RDKit          3D

  0  0  0  0  0  0  0  0  0  0999 V3000
M  V30 BEGIN CTAB
M  V30 COUNTS 47 50 0 0 0
M  V30 BEGIN ATOM
M  V30 1 C 1.359932 -7.395003 0.982055 0
M  V30 2 C 1.165811 -6.825896 -0.382727 0
M  V30 3 N 1.097470 -7.226906 -1.668201 0
M  V30 4 N 0.897827 -6.162787 -2.430899 0
M  V30 5 C 0.838725 -5.081155 -1.630490 0
M  V30 6 C 0.629873 -3.690541 -2.057023 0
M  V30 7 C 0.473737 -3.416267 -3.400380 0
M  V30 8 C 0.281313 -2.093817 -3.737823 0
M  V30 9 C 0.244412 -1.087215 -2.794307 0
M  V30 10 C 0.035053 0.341678 -3.144070 0
M  V30 11 C 0.401774 -1.373270 -1.454346 0
M  V30 12 C 0.390702 -0.427882 -0.342214 0
M  V30 13 C 1.074496 0.769266 -0.326257 0
M  V30 14 C 1.025046 1.639839 0.770569 0
M  V30 15 C 0.268221 1.279491 1.859685 0
M  V30 16 C 0.277349 2.243213 2.947029 0
M  V30 17 O 0.935226 3.281330 2.831599 0
M  V30 18 N -0.394030 2.135519 4.156506 0
M  V30 19 C -0.683186 2.749209 5.420394 0
M  V30 20 C -1.408896 4.059251 5.385557 0
M  V30 21 C -0.829777 5.291473 4.725541 0
M  V30 22 C -1.978687 4.531856 4.090251 0
M  V30 23 C -0.396121 0.094541 1.819292 0
M  V30 24 C -0.366852 -0.782448 0.755089 0
M  V30 25 C 0.596600 -2.702149 -1.098646 0
M  V30 26 O 1.005042 -5.527773 -0.406300 0
M  V30 27 H 2.296884 -6.948299 1.389443 0
M  V30 28 H 1.521919 -8.484374 0.928576 0
M  V30 29 H 0.539917 -7.101256 1.646476 0
M  V30 30 H 0.494325 -4.163798 -4.175746 0
M  V30 31 H 0.151022 -1.810732 -4.786185 0
M  V30 32 H -0.588969 0.384419 -4.077916 0
M  V30 33 H 0.991117 0.847815 -3.469309 0
M  V30 34 H -0.443186 0.872492 -2.308252 0
M  V30 35 H 1.662116 1.039141 -1.179173 0
M  V30 36 H 1.598897 2.551155 0.676722 0
M  V30 37 H -0.915398 1.209703 4.132555 0
M  V30 38 H -1.131586 2.042031 6.146404 0
M  V30 39 H 0.322842 2.994929 5.926679 0
M  V30 40 H -2.047499 4.280929 6.274510 0
M  V30 41 H 0.178478 5.277466 4.314707 0
M  V30 42 H -1.117092 6.290006 5.178021 0
M  V30 43 H -2.983355 4.981798 4.081697 0
M  V30 44 H -1.706312 4.046283 3.138949 0
M  V30 45 H -0.984273 -0.182155 2.669591 0
M  V30 46 H -0.918677 -1.694800 0.804038 0
M  V30 47 H 0.727854 -3.000579 -0.060074 0
M  V30 END ATOM
M  V30 BEGIN BOND
M  V30 1 1 1 2
M  V30 2 2 2 3
M  V30 3 1 3 4
M  V30 4 2 4 5
M  V30 5 1 5 6
M  V30 6 2 6 7
M  V30 7 1 7 8
M  V30 8 2 8 9
M  V30 9 1 9 10
M  V30 10 1 9 11
M  V30 11 1 11 12
M  V30 12 2 12 13
M  V30 13 1 13 14
M  V30 14 2 14 15
M  V30 15 1 15 16
M  V30 16 2 16 17
M  V30 17 1 16 18
M  V30 18 1 18 19
M  V30 19 1 19 20
M  V30 20 1 20 21
M  V30 21 1 21 22
M  V30 22 1 15 23
M  V30 23 2 23 24
M  V30 24 2 11 25
M  V30 25 1 5 26
M  V30 26 1 26 2
M  V30 27 1 25 6
M  V30 28 1 24 12
M  V30 29 1 22 20
M  V30 30 1 1 27
M  V30 31 1 1 28
M  V30 32 1 1 29
M  V30 33 1 7 30
M  V30 34 1 8 31
M  V30 35 1 10 32
M  V30 36 1 10 33
M  V30 37 1 10 34
M  V30 38 1 13 35
M  V30 39 1 14 36
M  V30 40 1 18 37
M  V30 41 1 19 38
M  V30 42 1 19 39
M  V30 43 1 20 40
M  V30 44 1 21 41
M  V30 45 1 21 42
M  V30 46 1 22 43
M  V30 47 1 22 44
M  V30 48 1 23 45
M  V30 49 1 24 46
M  V30 50 1 25 47
M  V30 END BOND
M  V30 END CTAB
M  END
>  <Dataset>  (169) 
ChEMBL_Kinases

>  <Ligand_Instance>  (169) 
nan

>  <PDB_ID>  (169) 
nan

>  <Standardized_SMILES>  (169) 
Cc1nnc(-c2ccc(C)c(-c3ccc(C(=O)NCC4CC4)cc3)c2)o1

>  <Name>  (169) 
nan

>  <Pocket>  (169) 
nan

>  <ATP_Site>  (169) 
nan

>  <Peripheral>  (169) 
nan

>  <Num_H_Atoms_ProtBoundConf>  (169) 
nan

>  <Num_Resolved_Atoms>  (169) 
nan

>  <Num_Not_Resolved_Atoms>  (169) 
nan

$$$$
CHEMBL273101
     RDKit          3D

  0  0  0  0  0  0  0  0  0  0999 V3000
M  V30 BEGIN CTAB
M  V30 COUNTS 21 22 0 0 0
M  V30 BEGIN ATOM
M  V30 1 C 0.159811 -1.060030 3.187845 0
M  V30 2 C 0.989056 -0.609123 2.078608 0
M  V30 3 C 2.375931 -0.795169 2.074622 0
M  V30 4 Br 3.167093 -1.666333 3.578697 0
M  V30 5 C 3.214347 -0.382940 1.039059 0
M  V30 6 O 4.454083 -0.599755 1.134938 0
M  V30 7 O 2.659186 0.223973 -0.007736 0
M  V30 8 C 1.355452 0.416554 -0.038814 0
M  V30 9 C 0.854376 1.052091 -1.156412 0
M  V30 10 Br 1.982223 1.624130 -2.583941 0
M  V30 11 C -0.494144 1.304217 -1.292779 0
M  V30 12 O -1.110908 1.933921 -2.368007 0
M  V30 13 C -1.358144 0.901179 -0.268473 0
M  V30 14 C -0.838435 0.266158 0.843133 0
M  V30 15 C 0.497122 0.027603 0.956233 0
M  V30 16 H 0.719812 -1.922961 3.657379 0
M  V30 17 H 0.011413 -0.363212 4.009798 0
M  V30 18 H -0.755892 -1.536673 2.783880 0
M  V30 19 H -1.929814 1.436710 -2.751153 0
M  V30 20 H -2.405868 1.072135 -0.325336 0
M  V30 21 H -1.498859 -0.037312 1.617016 0
M  V30 END ATOM
M  V30 BEGIN BOND
M  V30 1 1 1 2
M  V30 2 2 2 3
M  V30 3 1 3 4
M  V30 4 1 3 5
M  V30 5 2 5 6
M  V30 6 1 5 7
M  V30 7 1 7 8
M  V30 8 2 8 9
M  V30 9 1 9 10
M  V30 10 1 9 11
M  V30 11 1 11 12
M  V30 12 2 11 13
M  V30 13 1 13 14
M  V30 14 2 14 15
M  V30 15 1 15 2
M  V30 16 1 15 8
M  V30 17 1 1 16
M  V30 18 1 1 17
M  V30 19 1 1 18
M  V30 20 1 12 19
M  V30 21 1 13 20
M  V30 22 1 14 21
M  V30 END BOND
M  V30 END CTAB
M  END
>  <Dataset>  (170) 
ChEMBL_Kinases

>  <Ligand_Instance>  (170) 
nan

>  <PDB_ID>  (170) 
nan

>  <Standardized_SMILES>  (170) 
Cc1c(Br)c(=O)oc2c(Br)c(O)ccc12

>  <Name>  (170) 
nan

>  <Pocket>  (170) 
nan

>  <ATP_Site>  (170) 
nan

>  <Peripheral>  (170) 
nan

>  <Num_H_Atoms_ProtBoundConf>  (170) 
nan

>  <Num_Resolved_Atoms>  (170) 
nan

>  <Num_Not_Resolved_Atoms>  (170) 
nan

$$$$
CHEMBL272978
     RDKit          3D

  0  0  0  0  0  0  0  0  0  0999 V3000
M  V30 BEGIN CTAB
M  V30 COUNTS 42 44 0 0 0
M  V30 BEGIN ATOM
M  V30 1 N 1.067097 -7.195103 0.411555 0
M  V30 2 C 0.560270 -6.752590 -0.886450 0
M  V30 3 C 0.020391 -5.346690 -0.815729 0
M  V30 4 N 1.032243 -4.389965 -0.400450 0
M  V30 5 C 0.637439 -3.016691 -0.277679 0
M  V30 6 C -0.678250 -2.720581 -0.569203 0
M  V30 7 C -1.138724 -1.401985 -0.467833 0
M  V30 8 C -0.233895 -0.435069 -0.071472 0
M  V30 9 C 1.078625 -0.751541 0.215620 0
M  V30 10 C 1.956013 0.368282 0.628315 0
M  V30 11 C 3.287643 0.228292 0.930464 0
M  V30 12 C 3.975887 1.384094 1.288092 0
M  V30 13 N 3.383602 2.599661 1.342755 0
M  V30 14 C 2.085684 2.715650 1.045688 0
M  V30 15 N 1.274052 3.896840 1.021385 0
M  V30 16 C 0.000396 3.881886 1.652708 0
M  V30 17 C -0.950366 4.872046 1.524311 0
M  V30 18 C -2.171192 4.851767 2.160351 0
M  V30 19 C -2.502980 3.792324 2.986700 0
M  V30 20 C -1.571524 2.768320 3.145472 0
M  V30 21 Cl -2.028764 1.454048 4.201334 0
M  V30 22 C -0.362220 2.836806 2.485227 0
M  V30 23 N 1.457522 1.602162 0.709780 0
M  V30 24 C 1.530164 -2.043931 0.116464 0
M  V30 25 H 1.968706 -6.759644 0.645850 0
M  V30 26 H 0.348916 -7.074909 1.152165 0
M  V30 27 H -0.255069 -7.453319 -1.137768 0
M  V30 28 H 1.389858 -6.790957 -1.590361 0
M  V30 29 H -0.306261 -5.092963 -1.846521 0
M  V30 30 H -0.879564 -5.261482 -0.171835 0
M  V30 31 H 1.996003 -4.745687 -0.213398 0
M  V30 32 H -1.439247 -3.424831 -0.883552 0
M  V30 33 H -2.183144 -1.137468 -0.696103 0
M  V30 34 H -0.600239 0.572121 0.002123 0
M  V30 35 H 3.738324 -0.747124 0.881790 0
M  V30 36 H 5.028558 1.312140 1.535539 0
M  V30 37 H 1.532322 4.785263 0.579918 0
M  V30 38 H -0.677506 5.695164 0.873066 0
M  V30 39 H -2.869351 5.677334 2.002411 0
M  V30 40 H -3.445825 3.756780 3.489931 0
M  V30 41 H 0.259538 1.996560 2.692734 0
M  V30 42 H 2.549760 -2.297557 0.338320 0
M  V30 END ATOM
M  V30 BEGIN BOND
M  V30 1 1 1 2
M  V30 2 1 2 3
M  V30 3 1 3 4
M  V30 4 1 4 5
M  V30 5 2 5 6
M  V30 6 1 6 7
M  V30 7 2 7 8
M  V30 8 1 8 9
M  V30 9 1 9 10
M  V30 10 2 10 11
M  V30 11 1 11 12
M  V30 12 2 12 13
M  V30 13 1 13 14
M  V30 14 1 14 15
M  V30 15 1 15 16
M  V30 16 2 16 17
M  V30 17 1 17 18
M  V30 18 2 18 19
M  V30 19 1 19 20
M  V30 20 1 20 21
M  V30 21 2 20 22
M  V30 22 2 14 23
M  V30 23 2 9 24
M  V30 24 1 24 5
M  V30 25 1 23 10
M  V30 26 1 22 16
M  V30 27 1 1 25
M  V30 28 1 1 26
M  V30 29 1 2 27
M  V30 30 1 2 28
M  V30 31 1 3 29
M  V30 32 1 3 30
M  V30 33 1 4 31
M  V30 34 1 6 32
M  V30 35 1 7 33
M  V30 36 1 8 34
M  V30 37 1 11 35
M  V30 38 1 12 36
M  V30 39 1 15 37
M  V30 40 1 17 38
M  V30 41 1 18 39
M  V30 42 1 19 40
M  V30 43 1 22 41
M  V30 44 1 24 42
M  V30 END BOND
M  V30 END CTAB
M  END
>  <Dataset>  (171) 
ChEMBL_Kinases

>  <Ligand_Instance>  (171) 
nan

>  <PDB_ID>  (171) 
nan

>  <Standardized_SMILES>  (171) 
NCCNc1cccc(-c2ccnc(Nc3cccc(Cl)c3)n2)c1

>  <Name>  (171) 
nan

>  <Pocket>  (171) 
nan

>  <ATP_Site>  (171) 
nan

>  <Peripheral>  (171) 
nan

>  <Num_H_Atoms_ProtBoundConf>  (171) 
nan

>  <Num_Resolved_Atoms>  (171) 
nan

>  <Num_Not_Resolved_Atoms>  (171) 
nan

$$$$
CHEMBL272735
     RDKit          3D

  0  0  0  0  0  0  0  0  0  0999 V3000
M  V30 BEGIN CTAB
M  V30 COUNTS 44 48 0 0 0
M  V30 BEGIN ATOM
M  V30 1 N 0.030822 -7.037266 2.753845 0
M  V30 2 C 0.242161 -5.655253 2.520496 0
M  V30 3 N 0.798222 -4.913846 3.509324 0
M  V30 4 C 0.896730 -3.651890 3.057528 0
M  V30 5 C 1.382122 -2.516440 3.647196 0
M  V30 6 C 1.361896 -1.329922 2.935512 0
M  V30 7 C 0.852618 -1.327837 1.651513 0
M  V30 8 C 0.809424 -0.098262 0.848787 0
M  V30 9 N 1.872481 0.608876 0.436436 0
M  V30 10 C 1.519141 1.686322 -0.284493 0
M  V30 11 C 2.319660 2.722852 -0.924370 0
M  V30 12 C 1.715462 3.747057 -1.623199 0
M  V30 13 F 0.349004 3.749084 -1.692028 0
M  V30 14 C 2.378441 4.765370 -2.255883 0
M  V30 15 C 3.773499 4.778272 -2.195964 0
M  V30 16 C 4.382458 3.758463 -1.499719 0
M  V30 17 C 3.696410 2.727652 -0.859798 0
M  V30 18 F 4.378612 1.765665 -0.197686 0
M  V30 19 N 0.174775 1.630382 -0.310912 0
M  V30 20 C -0.295331 0.568108 0.361380 0
M  V30 21 C -1.687120 0.175946 0.552362 0
M  V30 22 C -2.208627 0.128885 1.842975 0
M  V30 23 C -3.527694 -0.239629 2.051262 0
M  V30 24 C -4.298594 -0.555505 0.940594 0
M  V30 25 C -3.812471 -0.518204 -0.345762 0
M  V30 26 C -2.480985 -0.144429 -0.533806 0
M  V30 27 C 0.357726 -2.466879 1.040415 0
M  V30 28 C 0.388867 -3.639124 1.771785 0
M  V30 29 N -0.013898 -4.874620 1.442550 0
M  V30 30 H -0.720068 -7.599315 3.226238 0
M  V30 31 H 0.601563 -7.883011 2.500028 0
M  V30 32 H 1.793014 -2.462258 4.650215 0
M  V30 33 H 1.733369 -0.383633 3.344478 0
M  V30 34 H 2.835742 0.333335 0.662064 0
M  V30 35 H 1.868812 5.535450 -2.784698 0
M  V30 36 H 4.382042 5.545008 -2.666969 0
M  V30 37 H 5.466816 3.730709 -1.426728 0
M  V30 38 H -1.576067 0.383225 2.695633 0
M  V30 39 H -3.945218 -0.280168 3.044659 0
M  V30 40 H -5.337708 -0.845679 1.101056 0
M  V30 41 H -4.478749 -0.779979 -1.178230 0
M  V30 42 H -2.109178 -0.118217 -1.551676 0
M  V30 43 H -0.033184 -2.456827 0.050209 0
M  V30 44 H -0.439111 -5.233289 0.570969 0
M  V30 END ATOM
M  V30 BEGIN BOND
M  V30 1 1 1 2
M  V30 2 2 2 3
M  V30 3 1 3 4
M  V30 4 2 4 5
M  V30 5 1 5 6
M  V30 6 2 6 7
M  V30 7 1 7 8
M  V30 8 1 8 9
M  V30 9 1 9 10
M  V30 10 1 10 11
M  V30 11 2 11 12
M  V30 12 1 12 13
M  V30 13 1 12 14
M  V30 14 2 14 15
M  V30 15 1 15 16
M  V30 16 2 16 17
M  V30 17 1 17 18
M  V30 18 2 10 19
M  V30 19 1 19 20
M  V30 20 1 20 21
M  V30 21 2 21 22
M  V30 22 1 22 23
M  V30 23 2 23 24
M  V30 24 1 24 25
M  V30 25 2 25 26
M  V30 26 1 7 27
M  V30 27 2 27 28
M  V30 28 1 28 29
M  V30 29 1 29 2
M  V30 30 1 28 4
M  V30 31 2 20 8
M  V30 32 1 26 21
M  V30 33 1 17 11
M  V30 34 1 1 30
M  V30 35 1 1 31
M  V30 36 1 5 32
M  V30 37 1 6 33
M  V30 38 1 9 34
M  V30 39 1 14 35
M  V30 40 1 15 36
M  V30 41 1 16 37
M  V30 42 1 22 38
M  V30 43 1 23 39
M  V30 44 1 24 40
M  V30 45 1 25 41
M  V30 46 1 26 42
M  V30 47 1 27 43
M  V30 48 1 29 44
M  V30 END BOND
M  V30 END CTAB
M  END
>  <Dataset>  (172) 
ChEMBL_Kinases

>  <Ligand_Instance>  (172) 
nan

>  <PDB_ID>  (172) 
nan

>  <Standardized_SMILES>  (172) 
Nc1nc2ccc(-c3[nH]c(-c4c(F)cccc4F)nc3-c3ccccc3)cc2[nH]1

>  <Name>  (172) 
nan

>  <Pocket>  (172) 
nan

>  <ATP_Site>  (172) 
nan

>  <Peripheral>  (172) 
nan

>  <Num_H_Atoms_ProtBoundConf>  (172) 
nan

>  <Num_Resolved_Atoms>  (172) 
nan

>  <Num_Not_Resolved_Atoms>  (172) 
nan

$$$$
CHEMBL272711
     RDKit          3D

  0  0  0  0  0  0  0  0  0  0999 V3000
M  V30 BEGIN CTAB
M  V30 COUNTS 62 65 0 0 0
M  V30 BEGIN ATOM
M  V30 1 C 3.069116 4.581007 1.907613 0
M  V30 2 O 2.477116 3.434557 2.480367 0
M  V30 3 C 2.144435 2.363844 1.665617 0
M  V30 4 C 2.332368 2.283927 0.299273 0
M  V30 5 C 1.966051 1.171482 -0.420738 0
M  V30 6 C 1.390732 0.080413 0.198927 0
M  V30 7 C 1.185685 0.120936 1.564900 0
M  V30 8 C 1.568458 1.264353 2.266387 0
M  V30 9 C 1.327060 1.256918 3.722573 0
M  V30 10 C 0.130820 2.098761 4.130096 0
M  V30 11 C -0.083139 2.068394 5.600499 0
M  V30 12 O 0.640206 1.419792 6.410181 0
M  V30 13 N -1.177509 2.821998 6.126775 0
M  V30 14 C -2.097314 3.616226 5.342001 0
M  V30 15 C -1.465341 2.852515 7.538821 0
M  V30 16 N 0.953419 -1.142515 -0.375707 0
M  V30 17 C 0.636426 -1.446297 -1.739899 0
M  V30 18 C -0.214080 -2.504992 -1.850795 0
M  V30 19 C -0.586256 -2.881708 -3.141203 0
M  V30 20 C -1.503760 -4.026277 -3.244210 0
M  V30 21 C -2.423816 -4.134982 -4.269722 0
M  V30 22 C -3.294167 -5.225266 -4.364385 0
M  V30 23 C -3.179121 -6.184193 -3.373874 0
M  V30 24 N -4.046652 -7.318004 -3.425971 0 CHG=1 VAL=4
M  V30 25 O -5.193478 -7.320973 -3.957774 0
M  V30 26 O -3.928601 -8.604467 -2.972982 0 CHG=-1 VAL=1
M  V30 27 C -2.279832 -6.134428 -2.321379 0
M  V30 28 O -2.238423 -7.150607 -1.370022 0
M  V30 29 C -1.282133 -7.009071 -0.329493 0
M  V30 30 C -1.453368 -5.023987 -2.298080 0
M  V30 31 C -0.097853 -2.193221 -4.232614 0
M  V30 32 C 0.763521 -1.122138 -4.104274 0
M  V30 33 C 1.139854 -0.739983 -2.818059 0
M  V30 34 C 2.056361 0.412741 -2.887099 0
M  V30 35 O 2.682522 0.580755 -3.957559 0
M  V30 36 N 2.263391 1.339056 -1.802894 0
M  V30 37 H 3.815939 4.259706 1.162465 0
M  V30 38 H 3.630341 5.069998 2.756198 0
M  V30 39 H 2.320236 5.309635 1.518261 0
M  V30 40 H 2.778337 3.131386 -0.178246 0
M  V30 41 H 0.733664 -0.727081 2.076211 0
M  V30 42 H 1.149236 0.236413 4.119319 0
M  V30 43 H 2.228332 1.621998 4.296593 0
M  V30 44 H 0.183759 3.125231 3.751640 0
M  V30 45 H -0.765497 1.607800 3.685116 0
M  V30 46 H -2.327455 4.585384 5.871207 0
M  V30 47 H -1.582960 3.914545 4.397330 0
M  V30 48 H -3.029601 3.114554 5.083899 0
M  V30 49 H -2.223224 2.082025 7.832033 0
M  V30 50 H -1.834252 3.858985 7.875932 0
M  V30 51 H -0.581859 2.623345 8.173356 0
M  V30 52 H 0.845236 -1.949169 0.301680 0
M  V30 53 H -0.547902 -2.987197 -0.939540 0
M  V30 54 H -2.449787 -3.332990 -5.012292 0
M  V30 55 H -4.008529 -5.304174 -5.165710 0
M  V30 56 H -1.319986 -5.994996 0.147180 0
M  V30 57 H -1.441781 -7.762263 0.479408 0
M  V30 58 H -0.232888 -7.101878 -0.727739 0
M  V30 59 H -0.745781 -4.942991 -1.507042 0
M  V30 60 H -0.418479 -2.525924 -5.229341 0
M  V30 61 H 1.147016 -0.582671 -4.947077 0
M  V30 62 H 2.694006 2.243527 -2.132436 0
M  V30 END ATOM
M  V30 BEGIN BOND
M  V30 1 1 1 2
M  V30 2 1 2 3
M  V30 3 2 3 4
M  V30 4 1 4 5
M  V30 5 2 5 6
M  V30 6 1 6 7
M  V30 7 2 7 8
M  V30 8 1 8 9
M  V30 9 1 9 10
M  V30 10 1 10 11
M  V30 11 2 11 12
M  V30 12 1 11 13
M  V30 13 1 13 14
M  V30 14 1 13 15
M  V30 15 1 6 16
M  V30 16 1 16 17
M  V30 17 2 17 18
M  V30 18 1 18 19
M  V30 19 1 19 20
M  V30 20 2 20 21
M  V30 21 1 21 22
M  V30 22 2 22 23
M  V30 23 1 23 24
M  V30 24 2 24 25
M  V30 25 1 24 26
M  V30 26 1 23 27
M  V30 27 1 27 28
M  V30 28 1 28 29
M  V30 29 2 27 30
M  V30 30 2 19 31
M  V30 31 1 31 32
M  V30 32 2 32 33
M  V30 33 1 33 34
M  V30 34 2 34 35
M  V30 35 1 34 36
M  V30 36 1 8 3
M  V30 37 1 33 17
M  V30 38 1 36 5
M  V30 39 1 30 20
M  V30 40 1 1 37
M  V30 41 1 1 38
M  V30 42 1 1 39
M  V30 43 1 4 40
M  V30 44 1 7 41
M  V30 45 1 9 42
M  V30 46 1 9 43
M  V30 47 1 10 44
M  V30 48 1 10 45
M  V30 49 1 14 46
M  V30 50 1 14 47
M  V30 51 1 14 48
M  V30 52 1 15 49
M  V30 53 1 15 50
M  V30 54 1 15 51
M  V30 55 1 16 52
M  V30 56 1 18 53
M  V30 57 1 21 54
M  V30 58 1 22 55
M  V30 59 1 29 56
M  V30 60 1 29 57
M  V30 61 1 29 58
M  V30 62 1 30 59
M  V30 63 1 31 60
M  V30 64 1 32 61
M  V30 65 1 36 62
M  V30 END BOND
M  V30 END CTAB
M  END
>  <Dataset>  (173) 
ChEMBL_Kinases

>  <Ligand_Instance>  (173) 
nan

>  <PDB_ID>  (173) 
nan

>  <Standardized_SMILES>  (173) 
COc1cc2c(cc1CCC(=O)N(C)C)Nc1cc(-c3ccc([N+](=O)[O-])c(OC)c3)ccc1C(=O)N2

>  <Name>  (173) 
nan

>  <Pocket>  (173) 
nan

>  <ATP_Site>  (173) 
nan

>  <Peripheral>  (173) 
nan

>  <Num_H_Atoms_ProtBoundConf>  (173) 
nan

>  <Num_Resolved_Atoms>  (173) 
nan

>  <Num_Not_Resolved_Atoms>  (173) 
nan

$$$$
CHEMBL271195
     RDKit          3D

  0  0  0  0  0  0  0  0  0  0999 V3000
M  V30 BEGIN CTAB
M  V30 COUNTS 25 27 0 0 0
M  V30 BEGIN ATOM
M  V30 1 N -1.556775 -4.091040 2.716333 0
M  V30 2 C -0.460424 -3.188719 2.522446 0
M  V30 3 N 0.707677 -3.398311 3.148690 0
M  V30 4 C 1.721413 -2.517016 2.935934 0
M  V30 5 C 1.453072 -1.474509 2.084842 0
M  V30 6 C 0.285368 -1.224223 1.430204 0
M  V30 7 C -0.067259 -0.165005 0.521440 0
M  V30 8 C -1.316620 -0.159378 -0.109292 0
M  V30 9 N -1.424683 0.916750 -0.900080 0
M  V30 10 C -0.310321 1.662453 -0.850932 0
M  V30 11 N 0.083072 2.806533 -1.432568 0
M  V30 12 C 1.291898 3.316502 -1.170050 0
M  V30 13 Br 1.825407 4.947672 -2.013338 0
M  V30 14 C 2.145205 2.668495 -0.297158 0
M  V30 15 C 1.731419 1.498863 0.291456 0
M  V30 16 C 0.496555 0.976693 0.023561 0
M  V30 17 N -0.647688 -2.146466 1.704772 0
M  V30 18 H -1.662366 -4.668926 3.579931 0
M  V30 19 H -2.299562 -4.208565 1.997916 0
M  V30 20 H 2.674344 -2.641729 3.413779 0
M  V30 21 H 2.271954 -0.825795 1.949086 0
M  V30 22 H -2.171437 -0.840205 -0.072371 0
M  V30 23 H -2.228443 1.213833 -1.507204 0
M  V30 24 H 3.129338 3.090733 -0.088023 0
M  V30 25 H 2.414304 1.046725 0.950589 0
M  V30 END ATOM
M  V30 BEGIN BOND
M  V30 1 1 1 2
M  V30 2 2 2 3
M  V30 3 1 3 4
M  V30 4 2 4 5
M  V30 5 1 5 6
M  V30 6 1 6 7
M  V30 7 2 7 8
M  V30 8 1 8 9
M  V30 9 1 9 10
M  V30 10 2 10 11
M  V30 11 1 11 12
M  V30 12 1 12 13
M  V30 13 2 12 14
M  V30 14 1 14 15
M  V30 15 2 15 16
M  V30 16 2 6 17
M  V30 17 1 17 2
M  V30 18 1 16 7
M  V30 19 1 16 10
M  V30 20 1 1 18
M  V30 21 1 1 19
M  V30 22 1 4 20
M  V30 23 1 5 21
M  V30 24 1 8 22
M  V30 25 1 9 23
M  V30 26 1 14 24
M  V30 27 1 15 25
M  V30 END BOND
M  V30 END CTAB
M  END
>  <Dataset>  (174) 
ChEMBL_Kinases

>  <Ligand_Instance>  (174) 
nan

>  <PDB_ID>  (174) 
nan

>  <Standardized_SMILES>  (174) 
Nc1nccc(-c2c[nH]c3nc(Br)ccc23)n1

>  <Name>  (174) 
nan

>  <Pocket>  (174) 
nan

>  <ATP_Site>  (174) 
nan

>  <Peripheral>  (174) 
nan

>  <Num_H_Atoms_ProtBoundConf>  (174) 
nan

>  <Num_Resolved_Atoms>  (174) 
nan

>  <Num_Not_Resolved_Atoms>  (174) 
nan

$$$$
CHEMBL27130
     RDKit          3D

  0  0  0  0  0  0  0  0  0  0999 V3000
M  V30 BEGIN CTAB
M  V30 COUNTS 32 32 0 0 0
M  V30 BEGIN ATOM
M  V30 1 C -1.864536 -1.764120 0.829558 0
M  V30 2 C -0.599059 -2.249116 1.465452 0
M  V30 3 C -0.617306 -1.933883 2.976531 0
M  V30 4 C -0.649181 -3.769299 1.408917 0
M  V30 5 C 0.663574 -1.805876 0.883637 0
M  V30 6 O 1.588074 -2.628672 0.371987 0
M  V30 7 N 2.602848 -1.953619 -0.058837 0
M  V30 8 C 2.366511 -0.653178 0.162104 0
M  V30 9 O 3.372015 0.238429 -0.240926 0
M  V30 10 C 1.152809 -0.499539 0.753842 0
M  V30 11 C 0.548774 0.780306 1.071553 0
M  V30 12 C -0.145540 1.539461 0.007241 0 CFG=2
M  V30 13 N -1.212591 0.921657 -0.673944 0
M  V30 14 C 0.790747 2.195501 -0.960767 0
M  V30 15 O 0.886502 2.284039 -2.222760 0
M  V30 16 O 1.777210 2.855678 -0.198505 0
M  V30 17 H -2.247602 -0.831914 1.266689 0
M  V30 18 H -1.723304 -1.786107 -0.248484 0
M  V30 19 H -2.702544 -2.511464 1.011321 0
M  V30 20 H -1.367982 -1.133677 3.107511 0
M  V30 21 H 0.378066 -1.650097 3.323559 0
M  V30 22 H -0.942632 -2.802583 3.578392 0
M  V30 23 H -0.188941 -4.082019 0.452241 0
M  V30 24 H -0.016030 -4.222191 2.199838 0
M  V30 25 H -1.701018 -4.130778 1.445257 0
M  V30 26 H 3.297589 0.606842 -1.174983 0
M  V30 27 H 1.286155 1.504664 1.541026 0
M  V30 28 H -0.210559 0.658657 1.907584 0
M  V30 29 H -0.593480 2.452549 0.564973 0
M  V30 30 H -1.978239 1.553052 -0.977717 0
M  V30 31 H -0.866100 0.308196 -1.450095 0
M  V30 32 H 2.613654 3.164803 -0.714823 0
M  V30 END ATOM
M  V30 BEGIN BOND
M  V30 1 1 1 2
M  V30 2 1 2 3
M  V30 3 1 2 4
M  V30 4 1 2 5
M  V30 5 1 5 6
M  V30 6 1 6 7
M  V30 7 2 7 8
M  V30 8 1 8 9
M  V30 9 1 8 10
M  V30 10 1 10 11
M  V30 11 1 11 12
M  V30 12 1 12 13
M  V30 13 1 12 14
M  V30 14 2 14 15
M  V30 15 1 14 16
M  V30 16 2 10 5
M  V30 17 1 1 17
M  V30 18 1 1 18
M  V30 19 1 1 19
M  V30 20 1 3 20
M  V30 21 1 3 21
M  V30 22 1 3 22
M  V30 23 1 4 23
M  V30 24 1 4 24
M  V30 25 1 4 25
M  V30 26 1 9 26
M  V30 27 1 11 27
M  V30 28 1 11 28
M  V30 29 1 12 29 CFG=1
M  V30 30 1 13 30
M  V30 31 1 13 31
M  V30 32 1 16 32
M  V30 END BOND
M  V30 END CTAB
M  END
>  <Dataset>  (175) 
ChEMBL_Kinases

>  <Ligand_Instance>  (175) 
nan

>  <PDB_ID>  (175) 
nan

>  <Standardized_SMILES>  (175) 
CC(C)(C)c1onc(O)c1C[C@H](N)C(=O)O

>  <Name>  (175) 
nan

>  <Pocket>  (175) 
nan

>  <ATP_Site>  (175) 
nan

>  <Peripheral>  (175) 
nan

>  <Num_H_Atoms_ProtBoundConf>  (175) 
nan

>  <Num_Resolved_Atoms>  (175) 
nan

>  <Num_Not_Resolved_Atoms>  (175) 
nan

$$$$
CHEMBL271597
     RDKit          3D

  0  0  0  0  0  0  0  0  0  0999 V3000
M  V30 BEGIN CTAB
M  V30 COUNTS 25 27 0 0 0
M  V30 BEGIN ATOM
M  V30 1 N 0.377144 -3.322295 4.195300 0
M  V30 2 C -0.366570 -2.576664 3.208322 0
M  V30 3 N -1.702599 -2.610412 3.152722 0
M  V30 4 C -2.363082 -1.899337 2.213195 0
M  V30 5 C -1.579880 -1.168234 1.354668 0
M  V30 6 C -0.217225 -1.076447 1.343387 0
M  V30 7 C 0.702204 -0.411694 0.460683 0
M  V30 8 C 1.902865 -1.059609 0.109742 0
M  V30 9 N 2.644692 -0.288632 -0.696266 0
M  V30 10 C 2.009916 0.874299 -0.920287 0
M  V30 11 N 2.282331 1.996526 -1.610158 0
M  V30 12 C 1.463088 3.066668 -1.650203 0
M  V30 13 C 0.272253 2.969682 -0.920505 0
M  V30 14 C -0.015824 1.829245 -0.213899 0
M  V30 15 Cl -1.491138 1.930928 0.696536 0
M  V30 16 C 0.841590 0.761196 -0.202266 0
M  V30 17 N 0.319409 -1.835284 2.331328 0
M  V30 18 H 1.061869 -4.098478 3.968360 0
M  V30 19 H 0.227013 -3.076657 5.200580 0
M  V30 20 H -3.440037 -1.910318 2.147488 0
M  V30 21 H -2.154338 -0.669848 0.594401 0
M  V30 22 H 2.265150 -2.046848 0.402103 0
M  V30 23 H 3.578740 -0.505460 -1.115781 0
M  V30 24 H 1.819384 3.892009 -2.248213 0
M  V30 25 H -0.351508 3.831030 -0.971274 0
M  V30 END ATOM
M  V30 BEGIN BOND
M  V30 1 1 1 2
M  V30 2 2 2 3
M  V30 3 1 3 4
M  V30 4 2 4 5
M  V30 5 1 5 6
M  V30 6 1 6 7
M  V30 7 2 7 8
M  V30 8 1 8 9
M  V30 9 1 9 10
M  V30 10 2 10 11
M  V30 11 1 11 12
M  V30 12 2 12 13
M  V30 13 1 13 14
M  V30 14 1 14 15
M  V30 15 2 14 16
M  V30 16 2 6 17
M  V30 17 1 17 2
M  V30 18 1 16 7
M  V30 19 1 16 10
M  V30 20 1 1 18
M  V30 21 1 1 19
M  V30 22 1 4 20
M  V30 23 1 5 21
M  V30 24 1 8 22
M  V30 25 1 9 23
M  V30 26 1 12 24
M  V30 27 1 13 25
M  V30 END BOND
M  V30 END CTAB
M  END
>  <Dataset>  (176) 
ChEMBL_Kinases

>  <Ligand_Instance>  (176) 
nan

>  <PDB_ID>  (176) 
nan

>  <Standardized_SMILES>  (176) 
Nc1nccc(-c2c[nH]c3nccc(Cl)c23)n1

>  <Name>  (176) 
nan

>  <Pocket>  (176) 
nan

>  <ATP_Site>  (176) 
nan

>  <Peripheral>  (176) 
nan

>  <Num_H_Atoms_ProtBoundConf>  (176) 
nan

>  <Num_Resolved_Atoms>  (176) 
nan

>  <Num_Not_Resolved_Atoms>  (176) 
nan

$$$$
CHEMBL271638
     RDKit          3D

  0  0  0  0  0  0  0  0  0  0999 V3000
M  V30 BEGIN CTAB
M  V30 COUNTS 63 67 0 0 0
M  V30 BEGIN ATOM
M  V30 1 C 4.486445 3.540798 1.926091 0
M  V30 2 N 4.731837 2.200039 1.509468 0
M  V30 3 C 5.492313 1.430754 2.459624 0
M  V30 4 C 4.535041 0.534531 3.181283 0 CFG=2
M  V30 5 O 5.107446 -0.712339 3.495815 0
M  V30 6 C 3.411530 0.364312 2.205358 0
M  V30 7 C 3.594104 1.432763 1.120426 0 CFG=1
M  V30 8 C 2.347089 2.273088 1.072412 0
M  V30 9 N 1.156702 1.665964 0.706649 0
M  V30 10 C 0.895353 1.187674 -0.573634 0
M  V30 11 C -0.413358 1.731292 -1.094725 0
M  V30 12 C -1.554467 1.406007 -0.185088 0
M  V30 13 C -1.921386 -0.021360 -0.292802 0
M  V30 14 C -3.041625 -0.361128 -1.059894 0
M  V30 15 C -3.230475 -1.747413 -1.034793 0
M  V30 16 C -4.272270 -2.526392 -1.695772 0
M  V30 17 C -5.073006 -3.202042 -0.797222 0
M  V30 18 C -6.116941 -3.992578 -1.249890 0
M  V30 19 N -6.327074 -4.083671 -2.569951 0
M  V30 20 C -5.567329 -3.441117 -3.453506 0
M  V30 21 C -4.518243 -2.643388 -3.055185 0
M  V30 22 C -2.205219 -2.216936 -0.242018 0
M  V30 23 C -2.045608 -3.635470 0.035707 0
M  V30 24 C -1.793512 -4.405799 -1.105864 0
M  V30 25 C -1.613968 -5.773878 -1.050880 0
M  V30 26 C -1.679825 -6.421623 0.147332 0
M  V30 27 F -1.500610 -7.760732 0.183043 0
M  V30 28 C -1.930937 -5.660173 1.289950 0
M  V30 29 C -2.110756 -4.291321 1.235957 0
M  V30 30 N -1.472765 -1.195062 0.167033 0
M  V30 31 C -1.236202 1.874433 1.190775 0
M  V30 32 C 0.149887 1.544779 1.670115 0
M  V30 33 H 4.170841 4.174381 1.081172 0
M  V30 34 H 5.495939 3.960244 2.215941 0
M  V30 35 H 3.879725 3.653885 2.842378 0
M  V30 36 H 6.065232 2.056898 3.161107 0
M  V30 37 H 6.201132 0.787078 1.906758 0
M  V30 38 H 4.177376 1.026337 4.114792 0
M  V30 39 H 4.511608 -1.110221 4.203001 0
M  V30 40 H 3.469831 -0.656009 1.790658 0
M  V30 41 H 2.460837 0.513123 2.749881 0
M  V30 42 H 3.836208 0.898509 0.197392 0
M  V30 43 H 2.230586 2.716706 2.092927 0
M  V30 44 H 2.490533 3.181321 0.420327 0
M  V30 45 H 1.642393 1.518834 -1.336601 0
M  V30 46 H 0.808255 0.073568 -0.568314 0
M  V30 47 H -0.597032 1.420611 -2.141552 0
M  V30 48 H -0.311474 2.854164 -1.069484 0
M  V30 49 H -2.422072 2.045648 -0.544326 0
M  V30 50 H -3.751004 0.247619 -1.641792 0
M  V30 51 H -4.975116 -3.185617 0.276542 0
M  V30 52 H -6.771682 -4.541661 -0.571376 0
M  V30 53 H -5.712913 -3.495953 -4.520611 0
M  V30 54 H -3.823615 -2.067154 -3.661667 0
M  V30 55 H -1.723620 -3.980854 -2.099400 0
M  V30 56 H -1.420482 -6.353273 -1.938601 0
M  V30 57 H -1.985862 -6.152503 2.235953 0
M  V30 58 H -2.303800 -3.665106 2.074357 0
M  V30 59 H -0.632252 -1.219067 0.781785 0
M  V30 60 H -1.438929 2.981509 1.244579 0
M  V30 61 H -1.973694 1.428301 1.898789 0
M  V30 62 H 0.094421 0.574400 2.199549 0
M  V30 63 H 0.370997 2.287700 2.490318 0
M  V30 END ATOM
M  V30 BEGIN BOND
M  V30 1 1 1 2
M  V30 2 1 2 3
M  V30 3 1 3 4
M  V30 4 1 4 5
M  V30 5 1 4 6
M  V30 6 1 6 7
M  V30 7 1 7 8
M  V30 8 1 8 9
M  V30 9 1 9 10
M  V30 10 1 10 11
M  V30 11 1 11 12
M  V30 12 1 12 13
M  V30 13 2 13 14
M  V30 14 1 14 15
M  V30 15 1 15 16
M  V30 16 2 16 17
M  V30 17 1 17 18
M  V30 18 2 18 19
M  V30 19 1 19 20
M  V30 20 2 20 21
M  V30 21 2 15 22
M  V30 22 1 22 23
M  V30 23 2 23 24
M  V30 24 1 24 25
M  V30 25 2 25 26
M  V30 26 1 26 27
M  V30 27 1 26 28
M  V30 28 2 28 29
M  V30 29 1 22 30
M  V30 30 1 12 31
M  V30 31 1 31 32
M  V30 32 1 7 2
M  V30 33 1 32 9
M  V30 34 1 30 13
M  V30 35 1 21 16
M  V30 36 1 29 23
M  V30 37 1 1 33
M  V30 38 1 1 34
M  V30 39 1 1 35
M  V30 40 1 3 36
M  V30 41 1 3 37
M  V30 42 1 4 38 CFG=1
M  V30 43 1 5 39
M  V30 44 1 6 40
M  V30 45 1 6 41
M  V30 46 1 7 42 CFG=3
M  V30 47 1 8 43
M  V30 48 1 8 44
M  V30 49 1 10 45
M  V30 50 1 10 46
M  V30 51 1 11 47
M  V30 52 1 11 48
M  V30 53 1 12 49
M  V30 54 1 14 50
M  V30 55 1 17 51
M  V30 56 1 18 52
M  V30 57 1 20 53
M  V30 58 1 21 54
M  V30 59 1 24 55
M  V30 60 1 25 56
M  V30 61 1 28 57
M  V30 62 1 29 58
M  V30 63 1 30 59
M  V30 64 1 31 60
M  V30 65 1 31 61
M  V30 66 1 32 62
M  V30 67 1 32 63
M  V30 END BOND
M  V30 END CTAB
M  END
>  <Dataset>  (177) 
ChEMBL_Kinases

>  <Ligand_Instance>  (177) 
nan

>  <PDB_ID>  (177) 
nan

>  <Standardized_SMILES>  (177) 
CN1C[C@H](O)C[C@H]1CN1CCC(c2cc(-c3ccncc3)c(-c3ccc(F)cc3)[nH]2)CC1

>  <Name>  (177) 
nan

>  <Pocket>  (177) 
nan

>  <ATP_Site>  (177) 
nan

>  <Peripheral>  (177) 
nan

>  <Num_H_Atoms_ProtBoundConf>  (177) 
nan

>  <Num_Resolved_Atoms>  (177) 
nan

>  <Num_Not_Resolved_Atoms>  (177) 
nan

$$$$
CHEMBL271645
     RDKit          3D

  0  0  0  0  0  0  0  0  0  0999 V3000
M  V30 BEGIN CTAB
M  V30 COUNTS 76 81 0 0 0
M  V30 BEGIN ATOM
M  V30 1 C -5.181427 2.552514 -1.170418 0
M  V30 2 N -4.967328 1.189903 -1.568825 0
M  V30 3 C -5.018897 1.103196 -2.996678 0
M  V30 4 C -3.855835 0.435662 -3.644014 0
M  V30 5 C -2.512230 0.775182 -3.050789 0
M  V30 6 N -1.832496 1.847951 -3.744116 0
M  V30 7 C -2.243269 3.231725 -3.791790 0
M  V30 8 C -0.658819 1.446053 -4.415888 0
M  V30 9 O 0.041099 2.290510 -5.068512 0
M  V30 10 C 0.027380 0.191747 -4.569893 0
M  V30 11 C 0.116008 -0.366019 -5.844814 0
M  V30 12 C 0.751310 -1.592566 -6.078475 0
M  V30 13 C 1.288470 -2.227169 -4.981082 0
M  V30 14 C 1.254144 -1.758060 -3.680058 0
M  V30 15 N 1.806952 -2.486732 -2.617432 0
M  V30 16 C 2.107832 -2.020467 -1.285549 0
M  V30 17 N 2.020831 -0.707667 -0.920306 0
M  V30 18 C 2.312710 -0.401265 0.355690 0
M  V30 19 N 2.676180 -1.322857 1.253828 0
M  V30 20 C 2.758141 -2.614803 0.883315 0
M  V30 21 C 3.091759 -3.720431 1.587716 0
M  V30 22 C 2.997284 -4.759990 0.683634 0
M  V30 23 N 2.626080 -4.297089 -0.500055 0
M  V30 24 N 2.477294 -2.991035 -0.389136 0
M  V30 25 C 3.439742 -3.533997 3.015941 0
M  V30 26 C 2.198970 -3.034558 3.795710 0
M  V30 27 C 2.555338 -2.704040 5.173071 0
M  V30 28 C 1.538771 -2.142013 6.101787 0
M  V30 29 C 0.912739 -0.899673 5.666837 0
M  V30 30 O 1.013909 -0.563509 4.485019 0
M  V30 31 N 0.322331 0.325743 5.131453 0
M  V30 32 C 0.437337 0.705953 3.737315 0
M  V30 33 C -0.785062 1.176396 3.316542 0
M  V30 34 C -1.045874 1.607476 2.006850 0
M  V30 35 C -0.017160 1.563202 1.057618 0
M  V30 36 C 1.182465 1.081711 1.538613 0
M  V30 37 C 1.472550 0.658757 2.799993 0
M  V30 38 N 2.153369 0.983258 0.507068 0
M  V30 39 C 0.610213 -0.558429 -3.584453 0
M  V30 40 C -2.536693 1.099589 -1.596298 0
M  V30 41 C -3.807053 0.621036 -0.969928 0
M  V30 42 H -4.669391 3.205557 -1.936423 0
M  V30 43 H -6.277198 2.775485 -1.303892 0
M  V30 44 H -4.822501 2.798296 -0.158632 0
M  V30 45 H -5.234586 2.073114 -3.511076 0
M  V30 46 H -5.932507 0.478218 -3.233088 0
M  V30 47 H -4.038348 -0.659901 -3.666463 0
M  V30 48 H -3.832959 0.759503 -4.722723 0
M  V30 49 H -1.870703 -0.135780 -3.244106 0
M  V30 50 H -2.271823 3.699421 -2.779690 0
M  V30 51 H -1.492367 3.812760 -4.360473 0
M  V30 52 H -3.277960 3.341186 -4.178044 0
M  V30 53 H -0.297875 0.113832 -6.741842 0
M  V30 54 H 0.819086 -2.019236 -7.057301 0
M  V30 55 H 1.778473 -3.183573 -5.204245 0
M  V30 56 H 2.010336 -3.466767 -2.852248 0
M  V30 57 H 3.229863 -5.775915 1.043782 0
M  V30 58 H 3.788022 -4.495954 3.482813 0
M  V30 59 H 4.213922 -2.790777 3.152402 0
M  V30 60 H 1.765184 -2.174816 3.261251 0
M  V30 61 H 1.472343 -3.860203 3.666957 0
M  V30 62 H 2.956575 -3.632337 5.673707 0
M  V30 63 H 3.458436 -2.014904 5.210957 0
M  V30 64 H 0.704139 -2.866596 6.291174 0
M  V30 65 H 1.991637 -1.954189 7.102748 0
M  V30 66 H -0.203739 0.945498 5.823566 0
M  V30 67 H -1.705922 1.281052 3.898401 0
M  V30 68 H -2.009950 1.982988 1.655338 0
M  V30 69 H -0.077015 1.873894 0.024451 0
M  V30 70 H 2.473829 0.326607 2.993153 0
M  V30 71 H 2.545525 1.812111 0.052414 0
M  V30 72 H 0.514808 -0.085197 -2.612975 0
M  V30 73 H -2.444620 2.192081 -1.410127 0
M  V30 74 H -1.699142 0.571704 -1.074371 0
M  V30 75 H -3.849281 -0.489042 -0.855055 0
M  V30 76 H -3.787879 0.991840 0.100257 0
M  V30 END ATOM
M  V30 BEGIN BOND
M  V30 1 1 1 2
M  V30 2 1 2 3
M  V30 3 1 3 4
M  V30 4 1 4 5
M  V30 5 1 5 6
M  V30 6 1 6 7
M  V30 7 1 6 8
M  V30 8 2 8 9
M  V30 9 1 8 10
M  V30 10 2 10 11
M  V30 11 1 11 12
M  V30 12 2 12 13
M  V30 13 1 13 14
M  V30 14 1 14 15
M  V30 15 1 15 16
M  V30 16 2 16 17
M  V30 17 1 17 18
M  V30 18 2 18 19
M  V30 19 1 19 20
M  V30 20 2 20 21
M  V30 21 1 21 22
M  V30 22 2 22 23
M  V30 23 1 23 24
M  V30 24 1 21 25
M  V30 25 1 25 26
M  V30 26 1 26 27
M  V30 27 1 27 28
M  V30 28 1 28 29
M  V30 29 2 29 30
M  V30 30 1 29 31
M  V30 31 1 31 32
M  V30 32 2 32 33
M  V30 33 1 33 34
M  V30 34 2 34 35
M  V30 35 1 35 36
M  V30 36 2 36 37
M  V30 37 1 36 38
M  V30 38 2 14 39
M  V30 39 1 5 40
M  V30 40 1 40 41
M  V30 41 1 41 2
M  V30 42 1 39 10
M  V30 43 1 24 16
M  V30 44 1 37 32
M  V30 45 1 38 18
M  V30 46 1 24 20
M  V30 47 1 1 42
M  V30 48 1 1 43
M  V30 49 1 1 44
M  V30 50 1 3 45
M  V30 51 1 3 46
M  V30 52 1 4 47
M  V30 53 1 4 48
M  V30 54 1 5 49
M  V30 55 1 7 50
M  V30 56 1 7 51
M  V30 57 1 7 52
M  V30 58 1 11 53
M  V30 59 1 12 54
M  V30 60 1 13 55
M  V30 61 1 15 56
M  V30 62 1 22 57
M  V30 63 1 25 58
M  V30 64 1 25 59
M  V30 65 1 26 60
M  V30 66 1 26 61
M  V30 67 1 27 62
M  V30 68 1 27 63
M  V30 69 1 28 64
M  V30 70 1 28 65
M  V30 71 1 31 66
M  V30 72 1 33 67
M  V30 73 1 34 68
M  V30 74 1 35 69
M  V30 75 1 37 70
M  V30 76 1 38 71
M  V30 77 1 39 72
M  V30 78 1 40 73
M  V30 79 1 40 74
M  V30 80 1 41 75
M  V30 81 1 41 76
M  V30 END BOND
M  V30 END CTAB
M  END
>  <Dataset>  (178) 
ChEMBL_Kinases

>  <Ligand_Instance>  (178) 
nan

>  <PDB_ID>  (178) 
nan

>  <Standardized_SMILES>  (178) 
CN1CCC(N(C)C(=O)c2cccc(Nc3nc4nc5c(cnn35)CCCCC(=O)Nc3cccc(c3)N4)c2)CC1

>  <Name>  (178) 
nan

>  <Pocket>  (178) 
nan

>  <ATP_Site>  (178) 
nan

>  <Peripheral>  (178) 
nan

>  <Num_H_Atoms_ProtBoundConf>  (178) 
nan

>  <Num_Resolved_Atoms>  (178) 
nan

>  <Num_Not_Resolved_Atoms>  (178) 
nan

$$$$
CHEMBL271848
     RDKit          3D

  0  0  0  0  0  0  0  0  0  0999 V3000
M  V30 BEGIN CTAB
M  V30 COUNTS 67 72 0 0 0
M  V30 BEGIN ATOM
M  V30 1 C -0.234041 3.760305 1.597736 0
M  V30 2 N 1.121234 3.940594 2.090729 0
M  V30 3 C 1.979432 2.788280 2.003824 0
M  V30 4 C 2.878491 3.414392 0.973847 0
M  V30 5 N 2.741623 2.907769 -0.378755 0
M  V30 6 C 3.763739 2.806157 -1.359479 0
M  V30 7 O 4.894767 3.187547 -1.029837 0
M  V30 8 C 3.506805 2.283815 -2.693492 0
M  V30 9 C 4.491759 2.411505 -3.651902 0
M  V30 10 C 4.269036 1.938776 -4.944421 0
M  V30 11 C 3.074202 1.340743 -5.286218 0
M  V30 12 C 2.044101 1.186671 -4.347538 0
M  V30 13 N 0.780549 0.615297 -4.655806 0
M  V30 14 C 0.074713 -0.190418 -3.727584 0
M  V30 15 N 0.768095 -0.593801 -2.620997 0
M  V30 16 C 0.113271 -1.364052 -1.736320 0
M  V30 17 N -1.163732 -1.768337 -1.848408 0
M  V30 18 C -1.816937 -1.351801 -2.949372 0
M  V30 19 C -3.089360 -1.568423 -3.365831 0
M  V30 20 C -3.206562 -0.894502 -4.562539 0
M  V30 21 N -2.031160 -0.288098 -4.857175 0
M  V30 22 N -1.199714 -0.580920 -3.860516 0
M  V30 23 C -4.031867 -2.398986 -2.559618 0
M  V30 24 C -4.261086 -1.773239 -1.189669 0
M  V30 25 C -5.160500 -2.691275 -0.411575 0
M  V30 26 C -5.382429 -2.228728 1.034164 0
M  V30 27 C -4.055865 -2.313295 1.685345 0
M  V30 28 O -3.036501 -2.762208 1.123663 0
M  V30 29 N -2.841330 -2.321431 2.472993 0
M  V30 30 C -1.558181 -2.785081 1.990913 0
M  V30 31 C -0.999223 -3.912157 2.553018 0
M  V30 32 C 0.213786 -4.325774 2.047148 0
M  V30 33 C 0.865335 -3.668096 1.029103 0
M  V30 34 C 0.321037 -2.536551 0.453438 0
M  V30 35 C -0.884443 -2.123536 0.956425 0
M  V30 36 N 0.878712 -1.780417 -0.611455 0
M  V30 37 C 2.339490 1.679513 -3.089694 0
M  V30 38 C 1.975131 4.645578 1.188540 0
M  V30 39 H -0.273102 3.770959 0.492356 0
M  V30 40 H -0.807905 4.673944 1.913984 0
M  V30 41 H -0.726758 2.862783 2.013605 0
M  V30 42 H 2.447278 2.629101 3.018950 0
M  V30 43 H 1.431319 1.882535 1.650161 0
M  V30 44 H 3.899016 3.658080 1.311128 0
M  V30 45 H 1.764949 2.609142 -0.571617 0
M  V30 46 H 5.460931 2.864885 -3.485312 0
M  V30 47 H 4.996585 2.009906 -5.727971 0
M  V30 48 H 2.891704 0.976839 -6.267515 0
M  V30 49 H 0.295648 0.750935 -5.574361 0
M  V30 50 H -4.102681 -0.840546 -5.199918 0
M  V30 51 H -3.576752 -3.403090 -2.459277 0
M  V30 52 H -5.008307 -2.513335 -3.034500 0
M  V30 53 H -3.354420 -1.537077 -0.670492 0
M  V30 54 H -4.879825 -0.825846 -1.334949 0
M  V30 55 H -4.660022 -3.699300 -0.406676 0
M  V30 56 H -6.138793 -2.852990 -0.906409 0
M  V30 57 H -5.702419 -1.172969 1.046611 0
M  V30 58 H -6.117508 -2.871689 1.534406 0
M  V30 59 H -2.748283 -2.016464 3.459379 0
M  V30 60 H -1.587776 -4.339860 3.337002 0
M  V30 61 H 0.642465 -5.209708 2.493390 0
M  V30 62 H 1.811196 -3.961783 0.613858 0
M  V30 63 H -1.376773 -1.233988 0.571177 0
M  V30 64 H 1.878544 -1.622834 -0.396647 0
M  V30 65 H 1.595829 1.597426 -2.326943 0
M  V30 66 H 1.473678 4.964941 0.263616 0
M  V30 67 H 2.496684 5.497708 1.682986 0
M  V30 END ATOM
M  V30 BEGIN BOND
M  V30 1 1 1 2
M  V30 2 1 2 3
M  V30 3 1 3 4
M  V30 4 1 4 5
M  V30 5 1 5 6
M  V30 6 2 6 7
M  V30 7 1 6 8
M  V30 8 2 8 9
M  V30 9 1 9 10
M  V30 10 2 10 11
M  V30 11 1 11 12
M  V30 12 1 12 13
M  V30 13 1 13 14
M  V30 14 2 14 15
M  V30 15 1 15 16
M  V30 16 2 16 17
M  V30 17 1 17 18
M  V30 18 2 18 19
M  V30 19 1 19 20
M  V30 20 2 20 21
M  V30 21 1 21 22
M  V30 22 1 19 23
M  V30 23 1 23 24
M  V30 24 1 24 25
M  V30 25 1 25 26
M  V30 26 1 26 27
M  V30 27 2 27 28
M  V30 28 1 27 29
M  V30 29 1 29 30
M  V30 30 2 30 31
M  V30 31 1 31 32
M  V30 32 2 32 33
M  V30 33 1 33 34
M  V30 34 2 34 35
M  V30 35 1 34 36
M  V30 36 2 12 37
M  V30 37 1 4 38
M  V30 38 1 38 2
M  V30 39 1 37 8
M  V30 40 1 22 14
M  V30 41 1 35 30
M  V30 42 1 36 16
M  V30 43 1 22 18
M  V30 44 1 1 39
M  V30 45 1 1 40
M  V30 46 1 1 41
M  V30 47 1 3 42
M  V30 48 1 3 43
M  V30 49 1 4 44
M  V30 50 1 5 45
M  V30 51 1 9 46
M  V30 52 1 10 47
M  V30 53 1 11 48
M  V30 54 1 13 49
M  V30 55 1 20 50
M  V30 56 1 23 51
M  V30 57 1 23 52
M  V30 58 1 24 53
M  V30 59 1 24 54
M  V30 60 1 25 55
M  V30 61 1 25 56
M  V30 62 1 26 57
M  V30 63 1 26 58
M  V30 64 1 29 59
M  V30 65 1 31 60
M  V30 66 1 32 61
M  V30 67 1 33 62
M  V30 68 1 35 63
M  V30 69 1 36 64
M  V30 70 1 37 65
M  V30 71 1 38 66
M  V30 72 1 38 67
M  V30 END BOND
M  V30 END CTAB
M  END
>  <Dataset>  (179) 
ChEMBL_Kinases

>  <Ligand_Instance>  (179) 
nan

>  <PDB_ID>  (179) 
nan

>  <Standardized_SMILES>  (179) 
CN1CC(NC(=O)c2cccc(Nc3nc4nc5c(cnn35)CCCCC(=O)Nc3cccc(c3)N4)c2)C1

>  <Name>  (179) 
nan

>  <Pocket>  (179) 
nan

>  <ATP_Site>  (179) 
nan

>  <Peripheral>  (179) 
nan

>  <Num_H_Atoms_ProtBoundConf>  (179) 
nan

>  <Num_Resolved_Atoms>  (179) 
nan

>  <Num_Not_Resolved_Atoms>  (179) 
nan

$$$$
CHEMBL271922
     RDKit          3D

  0  0  0  0  0  0  0  0  0  0999 V3000
M  V30 BEGIN CTAB
M  V30 COUNTS 59 63 0 0 0
M  V30 BEGIN ATOM
M  V30 1 C 2.046504 0.873729 4.713363 0
M  V30 2 N 2.294565 -0.402181 4.089337 0
M  V30 3 C 3.295304 -1.239421 4.676798 0
M  V30 4 C 3.680825 -1.698853 3.279131 0
M  V30 5 C 3.077134 -0.350456 2.864889 0 CFG=1
M  V30 6 C 2.098464 -0.519945 1.705365 0
M  V30 7 N 2.660726 -0.496816 0.439396 0
M  V30 8 C 3.201446 0.665946 -0.125821 0
M  V30 9 C 2.363217 1.279038 -1.264271 0
M  V30 10 C 1.683502 0.214657 -2.028468 0
M  V30 11 C 0.298136 -0.073839 -1.574237 0
M  V30 12 C -0.470522 0.390943 -0.510852 0
M  V30 13 C -1.678056 -0.315941 -0.595918 0
M  V30 14 C -2.582475 0.087803 0.505586 0
M  V30 15 C -3.235247 1.272631 0.696390 0
M  V30 16 C -4.015762 1.406329 1.823674 0
M  V30 17 N -4.170055 0.444979 2.740122 0
M  V30 18 C -3.522902 -0.723965 2.546599 0
M  V30 19 C -2.717768 -0.944249 1.439979 0
M  V30 20 C -1.588890 -1.156872 -1.683680 0
M  V30 21 C -2.787481 -1.970457 -1.887391 0
M  V30 22 C -4.049269 -1.526091 -2.215113 0
M  V30 23 C -5.095538 -2.405390 -2.372163 0
M  V30 24 C -4.917596 -3.784732 -2.206076 0
M  V30 25 F -6.000026 -4.578416 -2.377128 0
M  V30 26 C -3.644160 -4.196292 -1.879551 0
M  V30 27 C -2.576281 -3.341150 -1.714577 0
M  V30 28 N -0.390200 -0.999370 -2.265473 0
M  V30 29 C 2.507940 -1.098185 -1.913748 0
M  V30 30 C 2.463075 -1.559266 -0.461605 0
M  V30 31 H 1.513924 1.515599 3.982665 0
M  V30 32 H 2.945538 1.425434 5.024422 0
M  V30 33 H 1.316595 0.707296 5.541152 0
M  V30 34 H 2.814104 -2.067108 5.252282 0
M  V30 35 H 4.114020 -0.711866 5.193466 0
M  V30 36 H 4.748371 -1.822048 3.087921 0
M  V30 37 H 3.024177 -2.509447 2.890278 0
M  V30 38 H 3.819218 0.439856 2.768676 0
M  V30 39 H 1.661149 -1.551282 1.876728 0
M  V30 40 H 1.316479 0.254353 1.891424 0
M  V30 41 H 4.186105 0.394996 -0.599242 0
M  V30 42 H 3.476870 1.463288 0.604203 0
M  V30 43 H 1.679249 2.026111 -0.798303 0
M  V30 44 H 3.081526 1.881232 -1.862342 0
M  V30 45 H 1.666921 0.412593 -3.103836 0
M  V30 46 H 0.007596 1.137179 0.084406 0
M  V30 47 H -3.055194 1.981751 -0.082840 0
M  V30 48 H -4.513470 2.375574 1.925833 0
M  V30 49 H -3.656447 -1.504541 3.305062 0
M  V30 50 H -2.244355 -1.926238 1.386996 0
M  V30 51 H -4.072285 -0.456804 -2.315998 0
M  V30 52 H -6.027748 -1.929657 -2.625497 0
M  V30 53 H -3.566249 -5.277721 -1.763104 0
M  V30 54 H -1.638221 -3.827422 -1.457980 0
M  V30 55 H -0.187884 -1.579877 -3.105543 0
M  V30 56 H 1.982207 -1.845341 -2.535847 0
M  V30 57 H 3.511762 -0.952832 -2.314357 0
M  V30 58 H 3.138671 -2.404410 -0.354067 0
M  V30 59 H 1.397628 -1.917773 -0.331568 0
M  V30 END ATOM
M  V30 BEGIN BOND
M  V30 1 1 1 2
M  V30 2 1 2 3
M  V30 3 1 3 4
M  V30 4 1 4 5
M  V30 5 1 5 6
M  V30 6 1 6 7
M  V30 7 1 7 8
M  V30 8 1 8 9
M  V30 9 1 9 10
M  V30 10 1 10 11
M  V30 11 2 11 12
M  V30 12 1 12 13
M  V30 13 1 13 14
M  V30 14 2 14 15
M  V30 15 1 15 16
M  V30 16 2 16 17
M  V30 17 1 17 18
M  V30 18 2 18 19
M  V30 19 2 13 20
M  V30 20 1 20 21
M  V30 21 2 21 22
M  V30 22 1 22 23
M  V30 23 2 23 24
M  V30 24 1 24 25
M  V30 25 1 24 26
M  V30 26 2 26 27
M  V30 27 1 20 28
M  V30 28 1 10 29
M  V30 29 1 29 30
M  V30 30 1 5 2
M  V30 31 1 30 7
M  V30 32 1 28 11
M  V30 33 1 19 14
M  V30 34 1 27 21
M  V30 35 1 1 31
M  V30 36 1 1 32
M  V30 37 1 1 33
M  V30 38 1 3 34
M  V30 39 1 3 35
M  V30 40 1 4 36
M  V30 41 1 4 37
M  V30 42 1 5 38 CFG=3
M  V30 43 1 6 39
M  V30 44 1 6 40
M  V30 45 1 8 41
M  V30 46 1 8 42
M  V30 47 1 9 43
M  V30 48 1 9 44
M  V30 49 1 10 45
M  V30 50 1 12 46
M  V30 51 1 15 47
M  V30 52 1 16 48
M  V30 53 1 18 49
M  V30 54 1 19 50
M  V30 55 1 22 51
M  V30 56 1 23 52
M  V30 57 1 26 53
M  V30 58 1 27 54
M  V30 59 1 28 55
M  V30 60 1 29 56
M  V30 61 1 29 57
M  V30 62 1 30 58
M  V30 63 1 30 59
M  V30 END BOND
M  V30 END CTAB
M  END
>  <Dataset>  (180) 
ChEMBL_Kinases

>  <Ligand_Instance>  (180) 
nan

>  <PDB_ID>  (180) 
nan

>  <Standardized_SMILES>  (180) 
CN1CC[C@H]1CN1CCC(c2cc(-c3ccncc3)c(-c3ccc(F)cc3)[nH]2)CC1

>  <Name>  (180) 
nan

>  <Pocket>  (180) 
nan

>  <ATP_Site>  (180) 
nan

>  <Peripheral>  (180) 
nan

>  <Num_H_Atoms_ProtBoundConf>  (180) 
nan

>  <Num_Resolved_Atoms>  (180) 
nan

>  <Num_Not_Resolved_Atoms>  (180) 
nan

$$$$
CHEMBL272125
     RDKit          3D

  0  0  0  0  0  0  0  0  0  0999 V3000
M  V30 BEGIN CTAB
M  V30 COUNTS 40 44 0 0 0
M  V30 BEGIN ATOM
M  V30 1 O -2.090844 0.396660 2.617069 0
M  V30 2 C -1.689825 -0.233819 1.584362 0
M  V30 3 C -0.560086 0.169004 0.755422 0
M  V30 4 N 0.265691 1.238285 0.889273 0
M  V30 5 C 1.250766 1.401215 -0.013315 0
M  V30 6 C 2.207593 2.393146 -0.094073 0
M  V30 7 C 2.967256 2.085612 -1.203689 0
M  V30 8 C 4.118502 2.757516 -1.798815 0
M  V30 9 C 4.625658 3.928777 -1.225356 0
M  V30 10 C 5.704585 4.371008 -1.962071 0
M  V30 11 C 5.800917 3.419591 -2.973876 0
M  V30 12 O 4.864945 2.511202 -2.835760 0
M  V30 13 N 2.484157 0.958563 -1.760797 0
M  V30 14 N 1.433961 0.528477 -1.043331 0
M  V30 15 C 0.614163 -0.542248 -1.184982 0
M  V30 16 O 0.800373 -1.335392 -2.142247 0
M  V30 17 C -0.403690 -0.735274 -0.275922 0
M  V30 18 C -1.443580 -1.792411 -0.168177 0
M  V30 19 N -2.209815 -1.431584 0.999367 0
M  V30 20 C -3.346381 -2.173662 1.511695 0
M  V30 21 C -2.767143 -3.167610 2.480554 0
M  V30 22 C -2.344237 -4.437242 2.186540 0
M  V30 23 C -1.833797 -5.229423 3.194554 0
M  V30 24 C -1.726132 -4.798685 4.507846 0
M  V30 25 C -2.151755 -3.513889 4.816648 0
M  V30 26 C -2.658467 -2.739749 3.793429 0
M  V30 27 H 0.162849 1.941741 1.671375 0
M  V30 28 H 2.393031 3.255561 0.530124 0
M  V30 29 H 4.263064 4.446796 -0.341325 0
M  V30 30 H 6.352656 5.222429 -1.845331 0
M  V30 31 H 6.507749 3.351878 -3.797762 0
M  V30 32 H -2.149510 -1.762206 -1.034130 0
M  V30 33 H -1.016293 -2.816381 -0.123231 0
M  V30 34 H -4.065097 -1.520230 2.023424 0
M  V30 35 H -3.839893 -2.679945 0.652810 0
M  V30 36 H -2.444640 -4.733749 1.155481 0
M  V30 37 H -1.500901 -6.239798 2.942938 0
M  V30 38 H -1.326334 -5.421779 5.292524 0
M  V30 39 H -2.075444 -3.161828 5.833613 0
M  V30 40 H -2.970575 -1.759001 4.090971 0
M  V30 END ATOM
M  V30 BEGIN BOND
M  V30 1 2 1 2
M  V30 2 1 2 3
M  V30 3 1 3 4
M  V30 4 1 4 5
M  V30 5 2 5 6
M  V30 6 1 6 7
M  V30 7 1 7 8
M  V30 8 2 8 9
M  V30 9 1 9 10
M  V30 10 2 10 11
M  V30 11 1 11 12
M  V30 12 2 7 13
M  V30 13 1 13 14
M  V30 14 1 14 15
M  V30 15 2 15 16
M  V30 16 1 15 17
M  V30 17 1 17 18
M  V30 18 1 18 19
M  V30 19 1 19 20
M  V30 20 1 20 21
M  V30 21 2 21 22
M  V30 22 1 22 23
M  V30 23 2 23 24
M  V30 24 1 24 25
M  V30 25 2 25 26
M  V30 26 1 19 2
M  V30 27 1 26 21
M  V30 28 2 17 3
M  V30 29 1 14 5
M  V30 30 1 12 8
M  V30 31 1 4 27
M  V30 32 1 6 28
M  V30 33 1 9 29
M  V30 34 1 10 30
M  V30 35 1 11 31
M  V30 36 1 18 32
M  V30 37 1 18 33
M  V30 38 1 20 34
M  V30 39 1 20 35
M  V30 40 1 22 36
M  V30 41 1 23 37
M  V30 42 1 24 38
M  V30 43 1 25 39
M  V30 44 1 26 40
M  V30 END BOND
M  V30 END CTAB
M  END
>  <Dataset>  (181) 
ChEMBL_Kinases

>  <Ligand_Instance>  (181) 
nan

>  <PDB_ID>  (181) 
nan

>  <Standardized_SMILES>  (181) 
O=C1c2[nH]c3cc(-c4ccco4)nn3c(=O)c2CN1Cc1ccccc1

>  <Name>  (181) 
nan

>  <Pocket>  (181) 
nan

>  <ATP_Site>  (181) 
nan

>  <Peripheral>  (181) 
nan

>  <Num_H_Atoms_ProtBoundConf>  (181) 
nan

>  <Num_Resolved_Atoms>  (181) 
nan

>  <Num_Not_Resolved_Atoms>  (181) 
nan

$$$$
CHEMBL272682
     RDKit          3D

  0  0  0  0  0  0  0  0  0  0999 V3000
M  V30 BEGIN CTAB
M  V30 COUNTS 29 31 0 0 0
M  V30 BEGIN ATOM
M  V30 1 O -1.229960 -3.148368 3.134788 0
M  V30 2 C -0.485405 -2.327580 2.553566 0
M  V30 3 C -0.871739 -1.703892 1.389294 0
M  V30 4 O -2.120820 -2.041587 0.912889 0
M  V30 5 C -0.128837 -0.794294 0.682790 0
M  V30 6 C -0.474675 -0.105499 -0.541679 0
M  V30 7 C 0.455192 0.771035 -1.060003 0
M  V30 8 C 0.251978 1.490574 -2.219169 0
M  V30 9 C -0.921995 1.357726 -2.924780 0
M  V30 10 O -1.151350 2.070591 -4.094469 0
M  V30 11 C -1.880003 0.491496 -2.442208 0
M  V30 12 C -1.623476 -0.198726 -1.283516 0
M  V30 13 O 1.039194 -0.548243 1.225675 0
M  V30 14 C 1.457098 -1.108220 2.324926 0
M  V30 15 C 2.724241 -0.737842 2.769387 0
M  V30 16 C 3.252120 -1.278019 3.924449 0
M  V30 17 C 2.496152 -2.192813 4.628289 0
M  V30 18 C 1.235779 -2.595570 4.234186 0
M  V30 19 C 0.754912 -2.027731 3.076175 0
M  V30 20 H -2.960539 -1.690177 1.308254 0
M  V30 21 H 1.428694 0.959301 -0.583971 0
M  V30 22 H 0.991729 2.168917 -2.605006 0
M  V30 23 H -0.409216 2.525341 -4.580829 0
M  V30 24 H -2.812464 0.364402 -2.972524 0
M  V30 25 H -2.390385 -0.852462 -0.952669 0
M  V30 26 H 3.319559 -0.013913 2.210182 0
M  V30 27 H 4.239317 -0.965080 4.236668 0
M  V30 28 H 2.916419 -2.615859 5.538078 0
M  V30 29 H 0.621375 -3.305905 4.759924 0
M  V30 END ATOM
M  V30 BEGIN BOND
M  V30 1 2 1 2
M  V30 2 1 2 3
M  V30 3 1 3 4
M  V30 4 2 3 5
M  V30 5 1 5 6
M  V30 6 2 6 7
M  V30 7 1 7 8
M  V30 8 2 8 9
M  V30 9 1 9 10
M  V30 10 1 9 11
M  V30 11 2 11 12
M  V30 12 1 5 13
M  V30 13 1 13 14
M  V30 14 2 14 15
M  V30 15 1 15 16
M  V30 16 2 16 17
M  V30 17 1 17 18
M  V30 18 2 18 19
M  V30 19 1 19 2
M  V30 20 1 12 6
M  V30 21 1 19 14
M  V30 22 1 4 20
M  V30 23 1 7 21
M  V30 24 1 8 22
M  V30 25 1 10 23
M  V30 26 1 11 24
M  V30 27 1 12 25
M  V30 28 1 15 26
M  V30 29 1 16 27
M  V30 30 1 17 28
M  V30 31 1 18 29
M  V30 END BOND
M  V30 END CTAB
M  END
>  <Dataset>  (182) 
ChEMBL_Kinases

>  <Ligand_Instance>  (182) 
nan

>  <PDB_ID>  (182) 
nan

>  <Standardized_SMILES>  (182) 
O=c1c(O)c(-c2ccc(O)cc2)oc2ccccc12

>  <Name>  (182) 
nan

>  <Pocket>  (182) 
nan

>  <ATP_Site>  (182) 
nan

>  <Peripheral>  (182) 
nan

>  <Num_H_Atoms_ProtBoundConf>  (182) 
nan

>  <Num_Resolved_Atoms>  (182) 
nan

>  <Num_Not_Resolved_Atoms>  (182) 
nan

$$$$
CHEMBL272347
     RDKit          3D

  0  0  0  0  0  0  0  0  0  0999 V3000
M  V30 BEGIN CTAB
M  V30 COUNTS 64 68 0 0 0
M  V30 BEGIN ATOM
M  V30 1 C 6.515313 -0.509799 -0.176759 0
M  V30 2 O 5.365895 -0.425053 0.651818 0
M  V30 3 C 4.082216 -0.358599 0.130281 0
M  V30 4 C 3.890518 -0.373528 -1.236939 0
M  V30 5 C 2.585563 -0.305057 -1.719129 0
M  V30 6 C 1.540267 -0.225407 -0.819630 0
M  V30 7 C 1.703394 -0.208713 0.551300 0
M  V30 8 C 3.022205 -0.278469 1.009569 0
M  V30 9 O 3.219501 -0.263681 2.388579 0
M  V30 10 C 2.117163 -0.181697 3.256005 0
M  V30 11 C 2.571769 -0.180734 4.705494 0
M  V30 12 C 1.384598 -0.148911 5.628995 0
M  V30 13 C 1.862193 -0.419996 7.029484 0
M  V30 14 C 3.301535 -0.024073 7.135686 0
M  V30 15 C 3.664489 1.150204 6.245039 0
M  V30 16 O 3.408198 0.932131 4.909792 0
M  V30 17 N 0.123075 -0.145766 -1.071546 0
M  V30 18 C -0.585145 -0.588871 -2.249472 0
M  V30 19 C -1.936084 -0.875638 -2.017980 0
M  V30 20 C -2.738661 -1.310337 -3.053435 0
M  V30 21 C -4.149163 -1.602056 -2.778355 0
M  V30 22 C -4.703680 -2.596303 -3.554474 0
M  V30 23 C -6.044857 -2.912420 -3.331944 0
M  V30 24 C -6.748354 -2.226363 -2.358848 0
M  V30 25 N -8.119963 -2.532904 -2.114582 0 CHG=1 VAL=4
M  V30 26 O -8.985046 -2.999059 -2.880286 0
M  V30 27 O -8.757101 -2.346884 -0.893545 0 CHG=-1 VAL=1
M  V30 28 C -6.196594 -1.228201 -1.577690 0
M  V30 29 O -6.948690 -0.571021 -0.614047 0
M  V30 30 C -6.425275 0.453849 0.205254 0
M  V30 31 C -4.870382 -0.929370 -1.811564 0
M  V30 32 C -2.178082 -1.452651 -4.308879 0
M  V30 33 C -0.843187 -1.170186 -4.541524 0
M  V30 34 C -0.037684 -0.735449 -3.509297 0
M  V30 35 C 1.334518 -0.494018 -3.966458 0
M  V30 36 O 1.518542 -0.424932 -5.202852 0
M  V30 37 N 2.497291 -0.327153 -3.145804 0
M  V30 38 H 6.549496 -1.424746 -0.792305 0
M  V30 39 H 7.437661 -0.407098 0.397182 0
M  V30 40 H 6.521480 0.333605 -0.918671 0
M  V30 41 H 4.706888 -0.435789 -1.941477 0
M  V30 42 H 0.871680 -0.145868 1.236988 0
M  V30 43 H 1.553516 0.735528 3.071988 0
M  V30 44 H 1.427205 -1.049179 3.165180 0
M  V30 45 H 3.180693 -1.077103 4.940440 0
M  V30 46 H 0.671576 -0.929194 5.283778 0
M  V30 47 H 0.903394 0.852196 5.535967 0
M  V30 48 H 1.227953 0.125013 7.775039 0
M  V30 49 H 1.713166 -1.494667 7.259498 0
M  V30 50 H 3.459515 0.354346 8.186124 0
M  V30 51 H 4.011931 -0.852165 7.014038 0
M  V30 52 H 4.779064 1.260053 6.352959 0
M  V30 53 H 3.235580 2.093961 6.639130 0
M  V30 54 H -0.522725 0.270957 -0.357055 0
M  V30 55 H -2.271898 -0.730105 -0.999647 0
M  V30 56 H -4.186483 -3.149608 -4.319123 0
M  V30 57 H -6.558407 -3.692859 -3.909511 0
M  V30 58 H -5.777868 1.077211 -0.472502 0
M  V30 59 H -5.715943 -0.039688 0.910330 0
M  V30 60 H -7.209875 1.042337 0.679707 0
M  V30 61 H -4.367478 -0.171167 -1.251825 0
M  V30 62 H -2.859105 -1.798704 -5.086601 0
M  V30 63 H -0.434975 -1.293285 -5.542865 0
M  V30 64 H 3.424129 -0.202248 -3.635310 0
M  V30 END ATOM
M  V30 BEGIN BOND
M  V30 1 1 1 2
M  V30 2 1 2 3
M  V30 3 2 3 4
M  V30 4 1 4 5
M  V30 5 2 5 6
M  V30 6 1 6 7
M  V30 7 2 7 8
M  V30 8 1 8 9
M  V30 9 1 9 10
M  V30 10 1 10 11
M  V30 11 1 11 12
M  V30 12 1 12 13
M  V30 13 1 13 14
M  V30 14 1 14 15
M  V30 15 1 15 16
M  V30 16 1 6 17
M  V30 17 1 17 18
M  V30 18 2 18 19
M  V30 19 1 19 20
M  V30 20 1 20 21
M  V30 21 2 21 22
M  V30 22 1 22 23
M  V30 23 2 23 24
M  V30 24 1 24 25
M  V30 25 2 25 26
M  V30 26 1 25 27
M  V30 27 1 24 28
M  V30 28 1 28 29
M  V30 29 1 29 30
M  V30 30 2 28 31
M  V30 31 2 20 32
M  V30 32 1 32 33
M  V30 33 2 33 34
M  V30 34 1 34 35
M  V30 35 2 35 36
M  V30 36 1 35 37
M  V30 37 1 8 3
M  V30 38 1 16 11
M  V30 39 1 34 18
M  V30 40 1 37 5
M  V30 41 1 31 21
M  V30 42 1 1 38
M  V30 43 1 1 39
M  V30 44 1 1 40
M  V30 45 1 4 41
M  V30 46 1 7 42
M  V30 47 1 10 43
M  V30 48 1 10 44
M  V30 49 1 11 45
M  V30 50 1 12 46
M  V30 51 1 12 47
M  V30 52 1 13 48
M  V30 53 1 13 49
M  V30 54 1 14 50
M  V30 55 1 14 51
M  V30 56 1 15 52
M  V30 57 1 15 53
M  V30 58 1 17 54
M  V30 59 1 19 55
M  V30 60 1 22 56
M  V30 61 1 23 57
M  V30 62 1 30 58
M  V30 63 1 30 59
M  V30 64 1 30 60
M  V30 65 1 31 61
M  V30 66 1 32 62
M  V30 67 1 33 63
M  V30 68 1 37 64
M  V30 END BOND
M  V30 END CTAB
M  END
>  <Dataset>  (183) 
ChEMBL_Kinases

>  <Ligand_Instance>  (183) 
nan

>  <PDB_ID>  (183) 
nan

>  <Standardized_SMILES>  (183) 
COc1cc2c(cc1OCC1CCCCO1)Nc1cc(-c3ccc([N+](=O)[O-])c(OC)c3)ccc1C(=O)N2

>  <Name>  (183) 
nan

>  <Pocket>  (183) 
nan

>  <ATP_Site>  (183) 
nan

>  <Peripheral>  (183) 
nan

>  <Num_H_Atoms_ProtBoundConf>  (183) 
nan

>  <Num_Resolved_Atoms>  (183) 
nan

>  <Num_Not_Resolved_Atoms>  (183) 
nan

$$$$
CHEMBL272351
     RDKit          3D

  0  0  0  0  0  0  0  0  0  0999 V3000
M  V30 BEGIN CTAB
M  V30 COUNTS 63 68 0 0 0
M  V30 BEGIN ATOM
M  V30 1 C 0.778312 -1.568492 3.534919 0
M  V30 2 N -0.089035 -1.575574 2.373893 0
M  V30 3 C 0.150402 -1.135079 1.102911 0
M  V30 4 C 1.328323 -0.561933 0.632253 0
M  V30 5 C 1.453281 -0.155297 -0.679825 0
M  V30 6 O 2.587080 0.421589 -1.223922 0
M  V30 7 C 3.702891 0.610008 -0.372903 0
M  V30 8 C 4.878062 1.236651 -1.062190 0
M  V30 9 C 4.579404 2.586053 -1.629859 0
M  V30 10 N 3.523322 2.557510 -2.612811 0
M  V30 11 C 3.902399 1.873887 -3.817319 0
M  V30 12 C 3.026976 2.123968 -4.990488 0
M  V30 13 O 2.383710 3.342231 -5.001283 0
M  V30 14 C 1.867047 3.757521 -3.798436 0
M  V30 15 C 3.043358 3.899923 -2.850782 0
M  V30 16 C 0.346603 -0.346053 -1.505933 0
M  V30 17 O 0.442571 0.057264 -2.845322 0
M  V30 18 C -0.793825 -0.917295 -0.991625 0
M  V30 19 C -0.947537 -1.328498 0.297029 0
M  V30 20 C -1.879269 -1.903899 1.107924 0
M  V30 21 C -3.144135 -2.309523 0.843932 0
M  V30 22 C -3.914559 -2.873191 1.831792 0
M  V30 23 C -3.402266 -3.034051 3.117355 0
M  V30 24 C -4.185548 -3.628426 4.195690 0
M  V30 25 C -4.148544 -4.999562 4.415753 0
M  V30 26 C -4.911952 -5.506628 5.453733 0
M  V30 27 C -5.707796 -4.723117 6.281851 0
M  V30 28 C -5.729394 -3.363305 6.045061 0
M  V30 29 C -4.972223 -2.811008 5.005526 0
M  V30 30 Cl -5.058694 -1.075741 4.776585 0
M  V30 31 C -2.108076 -2.617647 3.382954 0
M  V30 32 C -1.355852 -2.054012 2.371533 0
M  V30 33 C -5.260680 -3.254396 1.370750 0
M  V30 34 O -6.173967 -3.786341 2.047644 0
M  V30 35 N -5.244978 -2.867401 -0.009916 0
M  V30 36 C -3.980235 -2.306156 -0.312124 0
M  V30 37 O -3.849620 -1.932947 -1.483759 0
M  V30 38 H 1.848826 -1.700403 3.209791 0
M  V30 39 H 0.565275 -2.506360 4.119202 0
M  V30 40 H 0.625644 -0.694584 4.184684 0
M  V30 41 H 2.169767 -0.425543 1.295505 0
M  V30 42 H 3.379394 1.283035 0.474868 0
M  V30 43 H 3.929224 -0.353993 0.090594 0
M  V30 44 H 5.677319 1.370482 -0.306114 0
M  V30 45 H 5.271875 0.523907 -1.820167 0
M  V30 46 H 4.205801 3.214984 -0.770374 0
M  V30 47 H 5.484145 3.116980 -1.982390 0
M  V30 48 H 4.960400 2.146684 -4.013078 0
M  V30 49 H 3.916112 0.787176 -3.595875 0
M  V30 50 H 3.642999 2.067835 -5.916080 0
M  V30 51 H 2.248731 1.335711 -5.109070 0
M  V30 52 H 1.361462 4.727126 -3.988366 0
M  V30 53 H 1.162252 3.034698 -3.319725 0
M  V30 54 H 3.800559 4.501651 -3.435085 0
M  V30 55 H 2.748668 4.366334 -1.912464 0
M  V30 56 H 0.700012 -0.598065 -3.561776 0
M  V30 57 H -1.580757 -1.021819 -1.687991 0
M  V30 58 H -3.548365 -5.669952 3.805756 0
M  V30 59 H -4.921995 -6.573570 5.673079 0
M  V30 60 H -6.287629 -5.191566 7.086756 0
M  V30 61 H -6.353125 -2.731313 6.690353 0
M  V30 62 H -1.672759 -2.729351 4.384271 0
M  V30 63 H -6.124855 -3.043682 -0.576603 0
M  V30 END ATOM
M  V30 BEGIN BOND
M  V30 1 1 1 2
M  V30 2 1 2 3
M  V30 3 2 3 4
M  V30 4 1 4 5
M  V30 5 1 5 6
M  V30 6 1 6 7
M  V30 7 1 7 8
M  V30 8 1 8 9
M  V30 9 1 9 10
M  V30 10 1 10 11
M  V30 11 1 11 12
M  V30 12 1 12 13
M  V30 13 1 13 14
M  V30 14 1 14 15
M  V30 15 2 5 16
M  V30 16 1 16 17
M  V30 17 1 16 18
M  V30 18 2 18 19
M  V30 19 1 19 20
M  V30 20 2 20 21
M  V30 21 1 21 22
M  V30 22 2 22 23
M  V30 23 1 23 24
M  V30 24 2 24 25
M  V30 25 1 25 26
M  V30 26 2 26 27
M  V30 27 1 27 28
M  V30 28 2 28 29
M  V30 29 1 29 30
M  V30 30 1 23 31
M  V30 31 2 31 32
M  V30 32 1 22 33
M  V30 33 2 33 34
M  V30 34 1 33 35
M  V30 35 1 35 36
M  V30 36 2 36 37
M  V30 37 1 32 2
M  V30 38 1 19 3
M  V30 39 1 32 20
M  V30 40 1 15 10
M  V30 41 1 36 21
M  V30 42 1 29 24
M  V30 43 1 1 38
M  V30 44 1 1 39
M  V30 45 1 1 40
M  V30 46 1 4 41
M  V30 47 1 7 42
M  V30 48 1 7 43
M  V30 49 1 8 44
M  V30 50 1 8 45
M  V30 51 1 9 46
M  V30 52 1 9 47
M  V30 53 1 11 48
M  V30 54 1 11 49
M  V30 55 1 12 50
M  V30 56 1 12 51
M  V30 57 1 14 52
M  V30 58 1 14 53
M  V30 59 1 15 54
M  V30 60 1 15 55
M  V30 61 1 17 56
M  V30 62 1 18 57
M  V30 63 1 25 58
M  V30 64 1 26 59
M  V30 65 1 27 60
M  V30 66 1 28 61
M  V30 67 1 31 62
M  V30 68 1 35 63
M  V30 END BOND
M  V30 END CTAB
M  END
>  <Dataset>  (184) 
ChEMBL_Kinases

>  <Ligand_Instance>  (184) 
nan

>  <PDB_ID>  (184) 
nan

>  <Standardized_SMILES>  (184) 
Cn1c2cc(OCCCN3CCOCC3)c(O)cc2c2c3c(c(-c4ccccc4Cl)cc21)C(=O)NC3=O

>  <Name>  (184) 
nan

>  <Pocket>  (184) 
nan

>  <ATP_Site>  (184) 
nan

>  <Peripheral>  (184) 
nan

>  <Num_H_Atoms_ProtBoundConf>  (184) 
nan

>  <Num_Resolved_Atoms>  (184) 
nan

>  <Num_Not_Resolved_Atoms>  (184) 
nan

$$$$
CHEMBL272361
     RDKit          3D

  0  0  0  0  0  0  0  0  0  0999 V3000
M  V30 BEGIN CTAB
M  V30 COUNTS 71 75 0 0 0
M  V30 BEGIN ATOM
M  V30 1 C 5.132911 -3.188597 4.539824 0
M  V30 2 C 4.833460 -3.160711 3.094170 0
M  V30 3 O 4.460011 -4.301887 2.683010 0
M  V30 4 N 4.945406 -2.020800 2.273408 0
M  V30 5 C 5.361406 -0.655538 2.620496 0
M  V30 6 C 4.321734 0.275810 2.010549 0
M  V30 7 N 3.098241 -0.454038 1.656548 0
M  V30 8 C 1.962103 -0.157626 2.453497 0
M  V30 9 C 0.608093 -0.714410 2.359676 0
M  V30 10 O 2.326200 0.716970 3.310877 0
M  V30 11 C 3.340666 -1.328828 0.553701 0
M  V30 12 C 3.508347 -0.693135 -0.774137 0
M  V30 13 N 2.494628 0.063219 -1.327650 0
M  V30 14 C 2.086534 1.292781 -0.815261 0
M  V30 15 C 0.557124 1.409585 -0.816315 0
M  V30 16 C 0.012099 0.075779 -1.257648 0
M  V30 17 C -1.428509 -0.099460 -1.067461 0
M  V30 18 C -2.002656 -1.124648 -0.341336 0
M  V30 19 C -3.378194 -0.884005 -0.434577 0
M  V30 20 C -4.330158 -1.780169 0.225380 0
M  V30 21 C -4.421055 -2.070054 1.573955 0
M  V30 22 C -5.394906 -2.947074 2.012341 0
M  V30 23 N -6.258439 -3.529564 1.173766 0
M  V30 24 C -6.188665 -3.261047 -0.151470 0
M  V30 25 C -5.227276 -2.383977 -0.655205 0
M  V30 26 C -3.570168 0.267483 -1.207276 0
M  V30 27 C -4.949804 0.688425 -1.423140 0
M  V30 28 C -5.636953 1.020678 -0.270029 0
M  V30 29 C -6.953994 1.442803 -0.273661 0
M  V30 30 C -7.612137 1.535031 -1.500415 0
M  V30 31 F -8.901680 1.947319 -1.510493 0
M  V30 32 C -6.925820 1.203752 -2.646992 0
M  V30 33 C -5.618553 0.786550 -2.624509 0
M  V30 34 N -2.360306 0.724332 -1.579671 0
M  V30 35 C 0.493263 -0.124279 -2.682270 0
M  V30 36 C 1.997812 -0.292925 -2.616417 0
M  V30 37 C 4.621377 -2.120493 0.863546 0
M  V30 38 H 4.238729 -3.470734 5.150048 0
M  V30 39 H 5.863438 -4.030892 4.716670 0
M  V30 40 H 5.539589 -2.226617 4.855488 0
M  V30 41 H 6.343716 -0.503420 2.114160 0
M  V30 42 H 5.421811 -0.550518 3.704216 0
M  V30 43 H 4.762907 0.768891 1.110957 0
M  V30 44 H 4.144444 1.085692 2.736176 0
M  V30 45 H 0.103349 -0.560693 3.348520 0
M  V30 46 H 0.689765 -1.822190 2.264462 0
M  V30 47 H -0.051224 -0.262469 1.619686 0
M  V30 48 H 2.544216 -2.103430 0.590971 0
M  V30 49 H 3.771501 -1.514172 -1.494799 0
M  V30 50 H 4.455157 -0.084320 -0.730796 0
M  V30 51 H 2.444791 2.103826 -1.517902 0
M  V30 52 H 2.514839 1.516596 0.152910 0
M  V30 53 H 0.198736 2.146986 -1.568300 0
M  V30 54 H 0.247085 1.643464 0.200701 0
M  V30 55 H 0.602658 -0.703552 -0.688582 0
M  V30 56 H -1.479830 -1.903379 0.161118 0
M  V30 57 H -3.689990 -1.562320 2.190039 0
M  V30 58 H -5.418119 -3.136353 3.082706 0
M  V30 59 H -6.901978 -3.745257 -0.825018 0
M  V30 60 H -5.246797 -2.232661 -1.707246 0
M  V30 61 H -5.199521 0.975332 0.712246 0
M  V30 62 H -7.489203 1.702221 0.629471 0
M  V30 63 H -7.440117 1.278248 -3.583946 0
M  V30 64 H -5.046017 0.519042 -3.489230 0
M  V30 65 H -2.296694 1.584082 -2.167273 0
M  V30 66 H 0.169500 0.697864 -3.333815 0
M  V30 67 H 0.065426 -1.088307 -3.070336 0
M  V30 68 H 2.314824 -1.327920 -2.841728 0
M  V30 69 H 2.431033 0.412934 -3.367875 0
M  V30 70 H 5.490852 -1.720441 0.303755 0
M  V30 71 H 4.536261 -3.172214 0.583335 0
M  V30 END ATOM
M  V30 BEGIN BOND
M  V30 1 1 1 2
M  V30 2 2 2 3
M  V30 3 1 2 4
M  V30 4 1 4 5
M  V30 5 1 5 6
M  V30 6 1 6 7
M  V30 7 1 7 8
M  V30 8 1 8 9
M  V30 9 2 8 10
M  V30 10 1 7 11
M  V30 11 1 11 12
M  V30 12 1 12 13
M  V30 13 1 13 14
M  V30 14 1 14 15
M  V30 15 1 15 16
M  V30 16 1 16 17
M  V30 17 2 17 18
M  V30 18 1 18 19
M  V30 19 1 19 20
M  V30 20 2 20 21
M  V30 21 1 21 22
M  V30 22 2 22 23
M  V30 23 1 23 24
M  V30 24 2 24 25
M  V30 25 2 19 26
M  V30 26 1 26 27
M  V30 27 2 27 28
M  V30 28 1 28 29
M  V30 29 2 29 30
M  V30 30 1 30 31
M  V30 31 1 30 32
M  V30 32 2 32 33
M  V30 33 1 26 34
M  V30 34 1 16 35
M  V30 35 1 35 36
M  V30 36 1 11 37
M  V30 37 1 37 4
M  V30 38 1 36 13
M  V30 39 1 34 17
M  V30 40 1 25 20
M  V30 41 1 33 27
M  V30 42 1 1 38
M  V30 43 1 1 39
M  V30 44 1 1 40
M  V30 45 1 5 41
M  V30 46 1 5 42
M  V30 47 1 6 43
M  V30 48 1 6 44
M  V30 49 1 9 45
M  V30 50 1 9 46
M  V30 51 1 9 47
M  V30 52 1 11 48
M  V30 53 1 12 49
M  V30 54 1 12 50
M  V30 55 1 14 51
M  V30 56 1 14 52
M  V30 57 1 15 53
M  V30 58 1 15 54
M  V30 59 1 16 55
M  V30 60 1 18 56
M  V30 61 1 21 57
M  V30 62 1 22 58
M  V30 63 1 24 59
M  V30 64 1 25 60
M  V30 65 1 28 61
M  V30 66 1 29 62
M  V30 67 1 32 63
M  V30 68 1 33 64
M  V30 69 1 34 65
M  V30 70 1 35 66
M  V30 71 1 35 67
M  V30 72 1 36 68
M  V30 73 1 36 69
M  V30 74 1 37 70
M  V30 75 1 37 71
M  V30 END BOND
M  V30 END CTAB
M  END
>  <Dataset>  (185) 
ChEMBL_Kinases

>  <Ligand_Instance>  (185) 
nan

>  <PDB_ID>  (185) 
nan

>  <Standardized_SMILES>  (185) 
CC(=O)N1CCN(C(C)=O)C(CN2CCC(c3cc(-c4ccncc4)c(-c4ccc(F)cc4)[nH]3)CC2)C1

>  <Name>  (185) 
nan

>  <Pocket>  (185) 
nan

>  <ATP_Site>  (185) 
nan

>  <Peripheral>  (185) 
nan

>  <Num_H_Atoms_ProtBoundConf>  (185) 
nan

>  <Num_Resolved_Atoms>  (185) 
nan

>  <Num_Not_Resolved_Atoms>  (185) 
nan

$$$$
CHEMBL272479
     RDKit          3D

  0  0  0  0  0  0  0  0  0  0999 V3000
M  V30 BEGIN CTAB
M  V30 COUNTS 55 59 0 0 0
M  V30 BEGIN ATOM
M  V30 1 C 6.396658 -3.909382 1.827155 0
M  V30 2 N 4.973920 -4.005808 1.610587 0
M  V30 3 C 4.321778 -3.046803 2.469206 0
M  V30 4 C 4.564150 -3.824410 0.246930 0
M  V30 5 C 4.771313 -2.409114 -0.244219 0
M  V30 6 C 4.336533 -2.234898 -1.666943 0
M  V30 7 O 3.004470 -2.503274 -1.944831 0
M  V30 8 C 1.887279 -1.892908 -1.477154 0
M  V30 9 C 1.650923 -0.841001 -0.626447 0
M  V30 10 C 0.389664 -0.400320 -0.297448 0
M  V30 11 N 0.090027 0.628561 0.533184 0
M  V30 12 C -1.250648 0.723832 0.578480 0
M  V30 13 C -2.050762 1.604947 1.275925 0
M  V30 14 C -3.418619 1.483713 1.143252 0
M  V30 15 C -4.244315 2.424298 1.886788 0
M  V30 16 C -4.769359 2.325675 3.160496 0
M  V30 17 C -5.531754 3.351620 3.665869 0
M  V30 18 C -5.777204 4.479193 2.911918 0
M  V30 19 C -5.265809 4.611086 1.630042 0
M  V30 20 C -4.493201 3.553520 1.138444 0
M  V30 21 Cl -3.908831 3.858375 -0.503823 0
M  V30 22 C -3.941363 0.492101 0.323241 0
M  V30 23 C -3.098335 -0.359752 -0.349300 0
M  V30 24 C -1.745161 -0.266161 -0.239623 0
M  V30 25 C -0.741669 -0.995570 -0.809373 0
M  V30 26 C -0.550756 -2.043302 -1.658370 0
M  V30 27 C 0.714904 -2.482539 -1.985795 0
M  V30 28 O 0.742148 -3.576703 -2.876585 0
M  V30 29 C -3.950452 -1.246862 -1.092576 0
M  V30 30 O -3.812287 -2.201551 -1.866284 0
M  V30 31 N -5.301540 -0.902064 -0.845426 0
M  V30 32 C -5.343803 0.217244 0.064679 0
M  V30 33 O -6.346467 0.826564 0.535784 0
M  V30 34 H 6.556005 -3.551915 2.880904 0
M  V30 35 H 6.783028 -4.950034 1.802857 0
M  V30 36 H 6.928578 -3.226962 1.170260 0
M  V30 37 H 4.530315 -3.403297 3.518375 0
M  V30 38 H 3.233260 -2.949718 2.285018 0
M  V30 39 H 4.874711 -2.083550 2.365186 0
M  V30 40 H 5.089233 -4.554677 -0.421201 0
M  V30 41 H 3.466914 -4.005088 0.223512 0
M  V30 42 H 4.272476 -1.725077 0.450266 0
M  V30 43 H 5.878662 -2.175189 -0.206887 0
M  V30 44 H 4.490631 -1.139983 -1.924658 0
M  V30 45 H 4.985915 -2.827144 -2.351992 0
M  V30 46 H 2.536939 -0.377345 -0.242938 0
M  V30 47 H 0.749941 1.247331 1.052957 0
M  V30 48 H -1.607765 2.366668 1.906882 0
M  V30 49 H -4.494416 1.383529 3.636087 0
M  V30 50 H -5.887562 3.167208 4.663929 0
M  V30 51 H -6.392735 5.217635 3.423136 0
M  V30 52 H -5.492324 5.518540 1.087587 0
M  V30 53 H -1.409381 -2.518197 -2.065991 0
M  V30 54 H 0.787258 -4.506542 -2.483072 0
M  V30 55 H -6.236033 -1.285440 -1.180753 0
M  V30 END ATOM
M  V30 BEGIN BOND
M  V30 1 1 1 2
M  V30 2 1 2 3
M  V30 3 1 2 4
M  V30 4 1 4 5
M  V30 5 1 5 6
M  V30 6 1 6 7
M  V30 7 1 7 8
M  V30 8 2 8 9
M  V30 9 1 9 10
M  V30 10 1 10 11
M  V30 11 1 11 12
M  V30 12 2 12 13
M  V30 13 1 13 14
M  V30 14 1 14 15
M  V30 15 2 15 16
M  V30 16 1 16 17
M  V30 17 2 17 18
M  V30 18 1 18 19
M  V30 19 2 19 20
M  V30 20 1 20 21
M  V30 21 2 14 22
M  V30 22 1 22 23
M  V30 23 2 23 24
M  V30 24 1 24 25
M  V30 25 1 25 26
M  V30 26 2 26 27
M  V30 27 1 27 28
M  V30 28 1 23 29
M  V30 29 2 29 30
M  V30 30 1 29 31
M  V30 31 1 31 32
M  V30 32 2 32 33
M  V30 33 1 27 8
M  V30 34 2 25 10
M  V30 35 1 24 12
M  V30 36 1 20 15
M  V30 37 1 32 22
M  V30 38 1 1 34
M  V30 39 1 1 35
M  V30 40 1 1 36
M  V30 41 1 3 37
M  V30 42 1 3 38
M  V30 43 1 3 39
M  V30 44 1 4 40
M  V30 45 1 4 41
M  V30 46 1 5 42
M  V30 47 1 5 43
M  V30 48 1 6 44
M  V30 49 1 6 45
M  V30 50 1 9 46
M  V30 51 1 11 47
M  V30 52 1 13 48
M  V30 53 1 16 49
M  V30 54 1 17 50
M  V30 55 1 18 51
M  V30 56 1 19 52
M  V30 57 1 26 53
M  V30 58 1 28 54
M  V30 59 1 31 55
M  V30 END BOND
M  V30 END CTAB
M  END
>  <Dataset>  (186) 
ChEMBL_Kinases

>  <Ligand_Instance>  (186) 
nan

>  <PDB_ID>  (186) 
nan

>  <Standardized_SMILES>  (186) 
CN(C)CCCOc1cc2[nH]c3cc(-c4ccccc4Cl)c4c(c3c2cc1O)C(=O)NC4=O

>  <Name>  (186) 
nan

>  <Pocket>  (186) 
nan

>  <ATP_Site>  (186) 
nan

>  <Peripheral>  (186) 
nan

>  <Num_H_Atoms_ProtBoundConf>  (186) 
nan

>  <Num_Resolved_Atoms>  (186) 
nan

>  <Num_Not_Resolved_Atoms>  (186) 
nan

$$$$
CHEMBL272537
     RDKit          3D

  0  0  0  0  0  0  0  0  0  0999 V3000
M  V30 BEGIN CTAB
M  V30 COUNTS 72 77 0 0 0
M  V30 BEGIN ATOM
M  V30 1 C -4.161483 -3.141403 3.000557 0
M  V30 2 C -2.745529 -3.412790 2.600684 0
M  V30 3 C -2.493711 -4.946451 2.631315 0
M  V30 4 S -2.440893 -2.803778 0.976226 0
M  V30 5 O -1.258863 -3.477104 0.339987 0
M  V30 6 O -3.702375 -3.170119 0.172241 0
M  V30 7 N -2.308272 -1.114622 0.968529 0
M  V30 8 C -3.101909 -0.097905 1.255087 0
M  V30 9 N -4.446253 -0.014080 1.661298 0
M  V30 10 C -5.129483 0.074927 2.935726 0
M  V30 11 C -5.336433 0.006993 0.516671 0
M  V30 12 C -4.951614 1.225508 -0.287586 0
M  V30 13 C -3.979516 1.098078 -1.286504 0
M  V30 14 C -3.533231 2.123912 -2.095288 0
M  V30 15 C -4.097621 3.367354 -1.893006 0
M  V30 16 C -5.070534 3.511059 -0.898429 0
M  V30 17 C -5.494820 2.476859 -0.110507 0
M  V30 18 N -2.522052 1.120995 1.117870 0
M  V30 19 C -1.234016 0.921031 0.705516 0
M  V30 20 C -0.247892 1.837140 0.429788 0
M  V30 21 C 0.965752 1.331312 0.029926 0
M  V30 22 C 1.158655 -0.027726 -0.081039 0
M  V30 23 C 2.468196 -0.556798 -0.511880 0
M  V30 24 N 2.605185 -1.247600 -1.681024 0
M  V30 25 C 3.867080 -1.631010 -1.871027 0
M  V30 26 C 4.532593 -2.374499 -2.931484 0
M  V30 27 C 5.878420 -2.672037 -2.920168 0
M  V30 28 F 6.643197 -2.264003 -1.879146 0
M  V30 29 C 6.514069 -3.373958 -3.920984 0
M  V30 30 C 5.781198 -3.817585 -5.012626 0
M  V30 31 C 4.436253 -3.528526 -5.038690 0
M  V30 32 C 3.800191 -2.813986 -4.015271 0
M  V30 33 F 2.476519 -2.609669 -4.185348 0
M  V30 34 N 4.528457 -1.171297 -0.802038 0
M  V30 35 C 3.723702 -0.513845 0.049566 0
M  V30 36 C 3.915901 0.165679 1.323811 0
M  V30 37 C 3.334657 -0.154577 2.538639 0
M  V30 38 C 3.628196 0.598252 3.661111 0
M  V30 39 C 4.493092 1.678863 3.627392 0
M  V30 40 C 5.069669 1.988695 2.399158 0
M  V30 41 C 4.794365 1.252055 1.256766 0
M  V30 42 C 0.110747 -0.869824 0.217044 0
M  V30 43 C -1.150137 -0.471404 0.627785 0
M  V30 44 H -4.683383 -4.082445 3.331535 0
M  V30 45 H -4.122687 -2.410431 3.831685 0
M  V30 46 H -4.690959 -2.676952 2.152793 0
M  V30 47 H -1.985646 -3.017309 3.297294 0
M  V30 48 H -1.452290 -5.118339 2.317060 0
M  V30 49 H -2.577373 -5.229909 3.699547 0
M  V30 50 H -3.244150 -5.493589 2.064348 0
M  V30 51 H -4.438349 -0.034582 3.792473 0
M  V30 52 H -5.974899 -0.637783 2.931478 0
M  V30 53 H -5.595750 1.085468 2.975152 0
M  V30 54 H -5.088354 -0.868736 -0.112233 0
M  V30 55 H -6.410490 0.049190 0.779493 0
M  V30 56 H -3.561322 0.107457 -1.414051 0
M  V30 57 H -2.779565 1.924429 -2.837113 0
M  V30 58 H -3.786777 4.209161 -2.497524 0
M  V30 59 H -5.534305 4.472837 -0.712630 0
M  V30 60 H -6.242417 2.569705 0.659121 0
M  V30 61 H -0.469775 2.881903 0.538253 0
M  V30 62 H 1.754760 2.020389 -0.192113 0
M  V30 63 H 1.830384 -1.454820 -2.347109 0
M  V30 64 H 7.559743 -3.581817 -3.870417 0
M  V30 65 H 6.242686 -4.376041 -5.826752 0
M  V30 66 H 3.873266 -3.888335 -5.911490 0
M  V30 67 H 2.669954 -1.001359 2.516532 0
M  V30 68 H 3.161629 0.328288 4.598412 0
M  V30 69 H 4.687489 2.234772 4.539298 0
M  V30 70 H 5.732715 2.840785 2.442548 0
M  V30 71 H 5.331217 1.638614 0.401930 0
M  V30 72 H 0.357463 -1.910799 0.102465 0
M  V30 END ATOM
M  V30 BEGIN BOND
M  V30 1 1 1 2
M  V30 2 1 2 3
M  V30 3 1 2 4
M  V30 4 2 4 5
M  V30 5 2 4 6
M  V30 6 1 4 7
M  V30 7 1 7 8
M  V30 8 1 8 9
M  V30 9 1 9 10
M  V30 10 1 9 11
M  V30 11 1 11 12
M  V30 12 2 12 13
M  V30 13 1 13 14
M  V30 14 2 14 15
M  V30 15 1 15 16
M  V30 16 2 16 17
M  V30 17 2 8 18
M  V30 18 1 18 19
M  V30 19 2 19 20
M  V30 20 1 20 21
M  V30 21 2 21 22
M  V30 22 1 22 23
M  V30 23 1 23 24
M  V30 24 1 24 25
M  V30 25 1 25 26
M  V30 26 2 26 27
M  V30 27 1 27 28
M  V30 28 1 27 29
M  V30 29 2 29 30
M  V30 30 1 30 31
M  V30 31 2 31 32
M  V30 32 1 32 33
M  V30 33 2 25 34
M  V30 34 1 34 35
M  V30 35 1 35 36
M  V30 36 2 36 37
M  V30 37 1 37 38
M  V30 38 2 38 39
M  V30 39 1 39 40
M  V30 40 2 40 41
M  V30 41 1 22 42
M  V30 42 2 42 43
M  V30 43 1 43 7
M  V30 44 1 17 12
M  V30 45 1 43 19
M  V30 46 2 35 23
M  V30 47 1 41 36
M  V30 48 1 32 26
M  V30 49 1 1 44
M  V30 50 1 1 45
M  V30 51 1 1 46
M  V30 52 1 2 47
M  V30 53 1 3 48
M  V30 54 1 3 49
M  V30 55 1 3 50
M  V30 56 1 10 51
M  V30 57 1 10 52
M  V30 58 1 10 53
M  V30 59 1 11 54
M  V30 60 1 11 55
M  V30 61 1 13 56
M  V30 62 1 14 57
M  V30 63 1 15 58
M  V30 64 1 16 59
M  V30 65 1 17 60
M  V30 66 1 20 61
M  V30 67 1 21 62
M  V30 68 1 24 63
M  V30 69 1 29 64
M  V30 70 1 30 65
M  V30 71 1 31 66
M  V30 72 1 37 67
M  V30 73 1 38 68
M  V30 74 1 39 69
M  V30 75 1 40 70
M  V30 76 1 41 71
M  V30 77 1 42 72
M  V30 END BOND
M  V30 END CTAB
M  END
>  <Dataset>  (187) 
ChEMBL_Kinases

>  <Ligand_Instance>  (187) 
nan

>  <PDB_ID>  (187) 
nan

>  <Standardized_SMILES>  (187) 
CC(C)S(=O)(=O)n1c(N(C)Cc2ccccc2)nc2ccc(-c3[nH]c(-c4c(F)cccc4F)nc3-c3ccccc3)cc21

>  <Name>  (187) 
nan

>  <Pocket>  (187) 
nan

>  <ATP_Site>  (187) 
nan

>  <Peripheral>  (187) 
nan

>  <Num_H_Atoms_ProtBoundConf>  (187) 
nan

>  <Num_Resolved_Atoms>  (187) 
nan

>  <Num_Not_Resolved_Atoms>  (187) 
nan

$$$$
CHEMBL272573
     RDKit          3D

  0  0  0  0  0  0  0  0  0  0999 V3000
M  V30 BEGIN CTAB
M  V30 COUNTS 60 64 0 0 0
M  V30 BEGIN ATOM
M  V30 1 F -2.348954 -5.102288 4.357399 0
M  V30 2 C -1.560883 -4.472080 3.454814 0
M  V30 3 C -1.740049 -4.762984 2.120524 0
M  V30 4 C -0.978281 -4.162174 1.156900 0
M  V30 5 C -0.014705 -3.249722 1.525637 0
M  V30 6 C 0.903099 -2.495492 0.672670 0
M  V30 7 N 0.930937 -1.161450 0.566593 0
M  V30 8 C 1.868142 -0.720177 -0.282833 0
M  V30 9 C 2.316947 0.610154 -0.767154 0
M  V30 10 C 2.543802 1.548743 0.363257 0
M  V30 11 C 1.492108 2.612634 0.540087 0
M  V30 12 N 0.156821 2.111591 0.290796 0
M  V30 13 C -0.758493 3.228348 0.340039 0
M  V30 14 C -2.156918 2.741481 0.188303 0
M  V30 15 C -2.467961 1.774788 1.297667 0
M  V30 16 N -3.853189 1.688346 1.629067 0
M  V30 17 C -4.761437 2.166166 0.641854 0
M  V30 18 C -4.282169 3.226194 -0.272792 0
M  V30 19 O -3.100000 3.769718 0.226353 0
M  V30 20 C 0.044469 1.492882 -1.005005 0
M  V30 21 C 1.318547 1.229847 -1.712809 0
M  V30 22 C 2.445966 -1.920180 -0.716351 0
M  V30 23 C 1.873550 -3.023875 -0.146700 0
M  V30 24 C 2.205004 -4.424051 -0.353953 0
M  V30 25 C 2.045335 -4.860383 -1.665955 0
M  V30 26 C 2.350209 -6.195812 -1.911604 0
M  V30 27 N 2.777746 -7.055571 -0.971127 0
M  V30 28 C 2.925930 -6.613694 0.293492 0
M  V30 29 C 2.642488 -5.302463 0.609987 0
M  V30 30 C 0.160453 -2.961716 2.864691 0
M  V30 31 C -0.597392 -3.556100 3.860893 0
M  V30 32 H -2.475133 -5.464432 1.789830 0
M  V30 33 H -1.029188 -4.311453 0.085350 0
M  V30 34 H 0.298625 -0.523368 1.087209 0
M  V30 35 H 3.285899 0.490297 -1.343627 0
M  V30 36 H 2.704566 0.952710 1.284560 0
M  V30 37 H 3.498983 2.088830 0.199240 0
M  V30 38 H 1.675842 3.524983 -0.060417 0
M  V30 39 H 1.523598 2.921873 1.605523 0
M  V30 40 H -0.617442 3.848454 1.251061 0
M  V30 41 H -0.509072 3.940044 -0.502670 0
M  V30 42 H -2.335549 2.207407 -0.757586 0
M  V30 43 H -2.037081 0.795876 0.998538 0
M  V30 44 H -1.913567 2.102395 2.202359 0
M  V30 45 H -4.068177 0.709137 1.899649 0
M  V30 46 H -5.093306 1.282589 0.045616 0
M  V30 47 H -5.679542 2.525421 1.160017 0
M  V30 48 H -5.059848 3.990817 -0.436832 0
M  V30 49 H -3.992456 2.758165 -1.258065 0
M  V30 50 H -0.510010 0.543528 -0.886634 0
M  V30 51 H -0.598495 2.121198 -1.698138 0
M  V30 52 H 1.072870 0.505283 -2.544443 0
M  V30 53 H 1.760507 2.160847 -2.129326 0
M  V30 54 H 3.273929 -2.005393 -1.437291 0
M  V30 55 H 1.717815 -4.295839 -2.506611 0
M  V30 56 H 2.264714 -6.654676 -2.899035 0
M  V30 57 H 3.258986 -7.205207 1.126568 0
M  V30 58 H 2.747947 -4.909029 1.609982 0
M  V30 59 H 0.890950 -2.257097 3.270040 0
M  V30 60 H -0.480814 -3.349003 4.915266 0
M  V30 END ATOM
M  V30 BEGIN BOND
M  V30 1 1 1 2
M  V30 2 2 2 3
M  V30 3 1 3 4
M  V30 4 2 4 5
M  V30 5 1 5 6
M  V30 6 1 6 7
M  V30 7 1 7 8
M  V30 8 1 8 9
M  V30 9 1 9 10
M  V30 10 1 10 11
M  V30 11 1 11 12
M  V30 12 1 12 13
M  V30 13 1 13 14
M  V30 14 1 14 15
M  V30 15 1 15 16
M  V30 16 1 16 17
M  V30 17 1 17 18
M  V30 18 1 18 19
M  V30 19 1 12 20
M  V30 20 1 20 21
M  V30 21 2 8 22
M  V30 22 1 22 23
M  V30 23 1 23 24
M  V30 24 2 24 25
M  V30 25 1 25 26
M  V30 26 2 26 27
M  V30 27 1 27 28
M  V30 28 2 28 29
M  V30 29 1 5 30
M  V30 30 2 30 31
M  V30 31 1 31 2
M  V30 32 2 23 6
M  V30 33 1 29 24
M  V30 34 1 21 9
M  V30 35 1 19 14
M  V30 36 1 3 32
M  V30 37 1 4 33
M  V30 38 1 7 34
M  V30 39 1 9 35
M  V30 40 1 10 36
M  V30 41 1 10 37
M  V30 42 1 11 38
M  V30 43 1 11 39
M  V30 44 1 13 40
M  V30 45 1 13 41
M  V30 46 1 14 42
M  V30 47 1 15 43
M  V30 48 1 15 44
M  V30 49 1 16 45
M  V30 50 1 17 46
M  V30 51 1 17 47
M  V30 52 1 18 48
M  V30 53 1 18 49
M  V30 54 1 20 50
M  V30 55 1 20 51
M  V30 56 1 21 52
M  V30 57 1 21 53
M  V30 58 1 22 54
M  V30 59 1 25 55
M  V30 60 1 26 56
M  V30 61 1 28 57
M  V30 62 1 29 58
M  V30 63 1 30 59
M  V30 64 1 31 60
M  V30 END BOND
M  V30 END CTAB
M  END
>  <Dataset>  (188) 
ChEMBL_Kinases

>  <Ligand_Instance>  (188) 
nan

>  <PDB_ID>  (188) 
nan

>  <Standardized_SMILES>  (188) 
Fc1ccc(-c2[nH]c(C3CCN(CC4CNCCO4)CC3)cc2-c2ccncc2)cc1

>  <Name>  (188) 
nan

>  <Pocket>  (188) 
nan

>  <ATP_Site>  (188) 
nan

>  <Peripheral>  (188) 
nan

>  <Num_H_Atoms_ProtBoundConf>  (188) 
nan

>  <Num_Resolved_Atoms>  (188) 
nan

>  <Num_Not_Resolved_Atoms>  (188) 
nan

$$$$
CHEMBL272629
     RDKit          3D

  0  0  0  0  0  0  0  0  0  0999 V3000
M  V30 BEGIN CTAB
M  V30 COUNTS 41 44 0 0 0
M  V30 BEGIN ATOM
M  V30 1 O 0.596586 -5.012229 3.685361 0
M  V30 2 C 1.176238 -3.895666 3.513712 0
M  V30 3 N 2.296661 -3.262200 4.141444 0
M  V30 4 C 2.434374 -2.013520 3.476663 0
M  V30 5 O 3.338197 -1.204856 3.793246 0
M  V30 6 C 1.386557 -1.920838 2.456160 0
M  V30 7 C 1.355703 -0.737590 1.575269 0
M  V30 8 C 1.467705 -0.791247 0.193440 0
M  V30 9 N 1.379014 0.428591 -0.374274 0
M  V30 10 C 1.455840 0.761863 -1.774516 0
M  V30 11 C 0.168976 0.711423 -2.513758 0
M  V30 12 C -0.904711 1.613653 -2.009050 0
M  V30 13 O -0.570556 2.948326 -2.030971 0
M  V30 14 C 1.205175 1.282152 0.652079 0
M  V30 15 N 1.039447 2.630589 0.761444 0
M  V30 16 C 0.871711 3.209948 1.981949 0
M  V30 17 C 0.855124 2.507603 3.168930 0
M  V30 18 C 1.020352 1.122520 3.120246 0
M  V30 19 C 1.185653 0.609041 1.857498 0
M  V30 20 C 0.645800 -3.021676 2.475252 0
M  V30 21 C -0.518305 -3.198448 1.588759 0
M  V30 22 C -1.303794 -2.034620 1.538153 0
M  V30 23 N -2.453792 -1.911816 0.795076 0
M  V30 24 C -2.822886 -3.009716 0.073304 0
M  V30 25 C -2.035042 -4.144675 0.140603 0
M  V30 26 N -0.888799 -4.271272 0.878963 0
M  V30 27 H 2.820257 -3.730861 4.915960 0
M  V30 28 H 1.609470 -1.672632 -0.423131 0
M  V30 29 H 2.136958 0.010195 -2.265725 0
M  V30 30 H 1.914827 1.778850 -1.877187 0
M  V30 31 H 0.372949 0.968088 -3.579377 0
M  V30 32 H -0.213203 -0.339853 -2.475287 0
M  V30 33 H -1.793504 1.489835 -2.662624 0
M  V30 34 H -1.239378 1.253611 -1.011437 0
M  V30 35 H 0.237597 3.104240 -2.582633 0
M  V30 36 H 0.737117 4.287148 2.078205 0
M  V30 37 H 0.720020 2.959831 4.144860 0
M  V30 38 H 1.014005 0.511607 4.010769 0
M  V30 39 H -1.137156 -1.091212 2.066885 0
M  V30 40 H -3.716871 -2.982127 -0.533107 0
M  V30 41 H -2.291484 -5.038112 -0.416071 0
M  V30 END ATOM
M  V30 BEGIN BOND
M  V30 1 2 1 2
M  V30 2 1 2 3
M  V30 3 1 3 4
M  V30 4 2 4 5
M  V30 5 1 4 6
M  V30 6 1 6 7
M  V30 7 2 7 8
M  V30 8 1 8 9
M  V30 9 1 9 10
M  V30 10 1 10 11
M  V30 11 1 11 12
M  V30 12 1 12 13
M  V30 13 1 9 14
M  V30 14 2 14 15
M  V30 15 1 15 16
M  V30 16 2 16 17
M  V30 17 1 17 18
M  V30 18 2 18 19
M  V30 19 2 6 20
M  V30 20 1 20 21
M  V30 21 2 21 22
M  V30 22 1 22 23
M  V30 23 2 23 24
M  V30 24 1 24 25
M  V30 25 2 25 26
M  V30 26 1 20 2
M  V30 27 1 26 21
M  V30 28 1 19 7
M  V30 29 1 19 14
M  V30 30 1 3 27
M  V30 31 1 8 28
M  V30 32 1 10 29
M  V30 33 1 10 30
M  V30 34 1 11 31
M  V30 35 1 11 32
M  V30 36 1 12 33
M  V30 37 1 12 34
M  V30 38 1 13 35
M  V30 39 1 16 36
M  V30 40 1 17 37
M  V30 41 1 18 38
M  V30 42 1 22 39
M  V30 43 1 24 40
M  V30 44 1 25 41
M  V30 END BOND
M  V30 END CTAB
M  END
>  <Dataset>  (189) 
ChEMBL_Kinases

>  <Ligand_Instance>  (189) 
nan

>  <PDB_ID>  (189) 
nan

>  <Standardized_SMILES>  (189) 
O=C1NC(=O)C(c2cn(CCCO)c3ncccc23)=C1c1cnccn1

>  <Name>  (189) 
nan

>  <Pocket>  (189) 
nan

>  <ATP_Site>  (189) 
nan

>  <Peripheral>  (189) 
nan

>  <Num_H_Atoms_ProtBoundConf>  (189) 
nan

>  <Num_Resolved_Atoms>  (189) 
nan

>  <Num_Not_Resolved_Atoms>  (189) 
nan

$$$$
CHEMBL27266
     RDKit          3D

  0  0  0  0  0  0  0  0  0  0999 V3000
M  V30 BEGIN CTAB
M  V30 COUNTS 45 47 0 0 0
M  V30 BEGIN ATOM
M  V30 1 C -1.090856 1.010357 2.932081 0
M  V30 2 C 0.185741 1.463197 2.284271 0
M  V30 3 C 1.306732 1.086094 3.232722 0
M  V30 4 C 0.480689 0.863587 0.976051 0 CFG=1
M  V30 5 C 0.636809 -0.546098 0.808127 0
M  V30 6 O -0.434501 -0.067834 0.359018 0
M  V30 7 N 0.219801 -1.806361 0.384448 0
M  V30 8 C -0.838463 -2.615164 -0.197918 0 CFG=2
M  V30 9 C -0.370645 -3.956765 -0.497555 0
M  V30 10 O 0.054137 -4.544654 0.717067 0
M  V30 11 C -1.454531 -1.832611 -1.380084 0
M  V30 12 C -0.431581 -1.321686 -2.301209 0
M  V30 13 C -0.004760 -1.979637 -3.437681 0
M  V30 14 N 0.879381 -1.170168 -4.042256 0
M  V30 15 C 1.034505 -0.032151 -3.344703 0
M  V30 16 C 1.858500 1.014635 -3.697411 0
M  V30 17 C 1.876530 2.110154 -2.863689 0
M  V30 18 C 1.052165 2.052083 -1.731185 0
M  V30 19 C 0.249432 0.967906 -1.433414 0
M  V30 20 C 0.210411 -0.130560 -2.248704 0
M  V30 21 N -0.357978 1.324553 -0.145873 0
M  V30 22 C -1.547592 1.968608 -0.626500 0
M  V30 23 H -1.814633 1.874301 3.001768 0
M  V30 24 H -1.573714 0.157493 2.421998 0
M  V30 25 H -0.960588 0.673091 3.984208 0
M  V30 26 H 0.200429 2.560501 2.212216 0
M  V30 27 H 1.662024 0.056220 2.973989 0
M  V30 28 H 0.920664 0.966976 4.285662 0
M  V30 29 H 2.175402 1.742938 3.176554 0
M  V30 30 H 1.484121 1.400894 0.675315 0
M  V30 31 H 1.186631 -2.046001 0.714655 0
M  V30 32 H -1.719090 -2.649385 0.530871 0
M  V30 33 H -1.116993 -4.607464 -0.995954 0
M  V30 34 H 0.532133 -4.020055 -1.146417 0
M  V30 35 H 0.347904 -3.828192 1.336701 0
M  V30 36 H -2.209144 -2.487218 -1.874309 0
M  V30 37 H -2.027073 -0.987625 -0.961014 0
M  V30 38 H -0.295526 -2.966676 -3.819209 0
M  V30 39 H 1.356282 -1.440606 -4.938546 0
M  V30 40 H 2.473403 1.023232 -4.566662 0
M  V30 41 H 2.515419 2.937143 -3.128214 0
M  V30 42 H 1.039918 2.930235 -1.079677 0
M  V30 43 H -2.223242 1.341949 -1.216602 0
M  V30 44 H -2.155200 2.209238 0.301639 0
M  V30 45 H -1.292758 2.942151 -1.140589 0
M  V30 END ATOM
M  V30 BEGIN BOND
M  V30 1 1 1 2
M  V30 2 1 2 3
M  V30 3 1 2 4
M  V30 4 1 4 5
M  V30 5 2 5 6
M  V30 6 1 5 7
M  V30 7 1 7 8
M  V30 8 1 8 9
M  V30 9 1 9 10
M  V30 10 1 8 11
M  V30 11 1 11 12
M  V30 12 2 12 13
M  V30 13 1 13 14
M  V30 14 1 14 15
M  V30 15 2 15 16
M  V30 16 1 16 17
M  V30 17 2 17 18
M  V30 18 1 18 19
M  V30 19 2 19 20
M  V30 20 1 19 21
M  V30 21 1 21 22
M  V30 22 1 21 4
M  V30 23 1 20 12
M  V30 24 1 20 15
M  V30 25 1 1 23
M  V30 26 1 1 24
M  V30 27 1 1 25
M  V30 28 1 2 26
M  V30 29 1 3 27
M  V30 30 1 3 28
M  V30 31 1 3 29
M  V30 32 1 4 30 CFG=3
M  V30 33 1 7 31
M  V30 34 1 8 32 CFG=1
M  V30 35 1 9 33
M  V30 36 1 9 34
M  V30 37 1 10 35
M  V30 38 1 11 36
M  V30 39 1 11 37
M  V30 40 1 13 38
M  V30 41 1 14 39
M  V30 42 1 16 40
M  V30 43 1 17 41
M  V30 44 1 18 42
M  V30 45 1 22 43
M  V30 46 1 22 44
M  V30 47 1 22 45
M  V30 END BOND
M  V30 END CTAB
M  END
>  <Dataset>  (190) 
ChEMBL_Kinases

>  <Ligand_Instance>  (190) 
nan

>  <PDB_ID>  (190) 
nan

>  <Standardized_SMILES>  (190) 
CC(C)[C@H]1C(=O)N[C@H](CO)Cc2c[nH]c3cccc(c23)N1C

>  <Name>  (190) 
INDOLACTUM

>  <Pocket>  (190) 
nan

>  <ATP_Site>  (190) 
nan

>  <Peripheral>  (190) 
nan

>  <Num_H_Atoms_ProtBoundConf>  (190) 
nan

>  <Num_Resolved_Atoms>  (190) 
nan

>  <Num_Not_Resolved_Atoms>  (190) 
nan

$$$$
CHEMBL272267
     RDKit          3D

  0  0  0  0  0  0  0  0  0  0999 V3000
M  V30 BEGIN CTAB
M  V30 COUNTS 62 67 0 0 0
M  V30 BEGIN ATOM
M  V30 1 C 1.651006 -2.592277 3.112926 0
M  V30 2 N 0.416917 -2.435564 2.361871 0
M  V30 3 C 0.087182 -1.483830 1.439594 0
M  V30 4 C 0.872094 -0.436532 1.008869 0
M  V30 5 C 0.419455 0.465509 0.065795 0
M  V30 6 C 1.328916 1.524403 -0.306411 0
M  V30 7 O 2.471452 1.626011 0.189772 0
M  V30 8 N 1.099085 2.562224 -1.236631 0
M  V30 9 C 2.136040 3.570882 -1.504583 0
M  V30 10 C 1.631372 4.556672 -2.527858 0
M  V30 11 N 2.589085 5.576860 -2.844967 0
M  V30 12 C 3.715717 5.051894 -3.554264 0
M  V30 13 C 3.613465 5.462139 -5.002970 0
M  V30 14 C 2.363054 6.294614 -5.087347 0
M  V30 15 C 2.024203 6.634216 -3.654813 0
M  V30 16 C -0.850409 0.235297 -0.395925 0
M  V30 17 O -1.370780 1.097278 -1.341593 0
M  V30 18 C -1.616621 -0.815132 0.046507 0
M  V30 19 C -1.186793 -1.712463 0.974480 0
M  V30 20 C -1.614523 -2.822867 1.638400 0
M  V30 21 C -2.792419 -3.491024 1.572928 0
M  V30 22 C -2.996531 -4.602685 2.353473 0
M  V30 23 C -2.018049 -5.062095 3.214582 0
M  V30 24 C -2.190270 -6.234956 4.065994 0
M  V30 25 C -2.713110 -5.887669 5.297877 0
M  V30 26 C -2.938917 -6.896672 6.235859 0
M  V30 27 C -2.658526 -8.219118 5.973238 0
M  V30 28 C -2.135473 -8.532698 4.728900 0
M  V30 29 C -1.900698 -7.553234 3.777903 0
M  V30 30 Cl -1.244916 -7.831126 2.178474 0
M  V30 31 C -0.819123 -4.384268 3.282818 0
M  V30 32 C -0.631126 -3.269149 2.491410 0
M  V30 33 C -4.327354 -5.197540 2.151530 0
M  V30 34 O -4.807649 -6.212280 2.714967 0
M  V30 35 N -4.917108 -4.329289 1.161942 0
M  V30 36 C -3.991812 -3.316929 0.826204 0
M  V30 37 O -4.401170 -2.513674 -0.020225 0
M  V30 38 H 1.442198 -2.756517 4.195332 0
M  V30 39 H 2.307123 -3.363011 2.681276 0
M  V30 40 H 2.203773 -1.630281 3.076971 0
M  V30 41 H 1.870661 -0.320997 1.424197 0
M  V30 42 H 0.196353 2.626711 -1.742788 0
M  V30 43 H 2.292733 4.106097 -0.549616 0
M  V30 44 H 3.079237 3.109765 -1.791432 0
M  V30 45 H 0.710450 5.052337 -2.133490 0
M  V30 46 H 1.331630 4.011464 -3.470906 0
M  V30 47 H 3.730067 3.943840 -3.527998 0
M  V30 48 H 4.692417 5.385329 -3.118081 0
M  V30 49 H 4.484371 6.120128 -5.243778 0
M  V30 50 H 3.648650 4.615317 -5.698959 0
M  V30 51 H 2.500103 7.212197 -5.685086 0
M  V30 52 H 1.547575 5.665101 -5.508767 0
M  V30 53 H 0.932384 6.666421 -3.520928 0
M  V30 54 H 2.417539 7.644828 -3.406690 0
M  V30 55 H -1.914768 0.676329 -2.108979 0
M  V30 56 H -2.587587 -0.910158 -0.371105 0
M  V30 57 H -2.993697 -4.920826 5.685618 0
M  V30 58 H -3.350327 -6.736468 7.244987 0
M  V30 59 H -2.821728 -9.014655 6.674721 0
M  V30 60 H -1.870968 -9.547958 4.399522 0
M  V30 61 H -0.040862 -4.723484 3.947068 0
M  V30 62 H -5.904174 -4.558679 0.843894 0
M  V30 END ATOM
M  V30 BEGIN BOND
M  V30 1 1 1 2
M  V30 2 1 2 3
M  V30 3 2 3 4
M  V30 4 1 4 5
M  V30 5 1 5 6
M  V30 6 2 6 7
M  V30 7 1 6 8
M  V30 8 1 8 9
M  V30 9 1 9 10
M  V30 10 1 10 11
M  V30 11 1 11 12
M  V30 12 1 12 13
M  V30 13 1 13 14
M  V30 14 1 14 15
M  V30 15 2 5 16
M  V30 16 1 16 17
M  V30 17 1 16 18
M  V30 18 2 18 19
M  V30 19 1 19 20
M  V30 20 2 20 21
M  V30 21 1 21 22
M  V30 22 2 22 23
M  V30 23 1 23 24
M  V30 24 2 24 25
M  V30 25 1 25 26
M  V30 26 2 26 27
M  V30 27 1 27 28
M  V30 28 2 28 29
M  V30 29 1 29 30
M  V30 30 1 23 31
M  V30 31 2 31 32
M  V30 32 1 22 33
M  V30 33 2 33 34
M  V30 34 1 33 35
M  V30 35 1 35 36
M  V30 36 2 36 37
M  V30 37 1 32 2
M  V30 38 1 19 3
M  V30 39 1 32 20
M  V30 40 1 15 11
M  V30 41 1 36 21
M  V30 42 1 29 24
M  V30 43 1 1 38
M  V30 44 1 1 39
M  V30 45 1 1 40
M  V30 46 1 4 41
M  V30 47 1 8 42
M  V30 48 1 9 43
M  V30 49 1 9 44
M  V30 50 1 10 45
M  V30 51 1 10 46
M  V30 52 1 12 47
M  V30 53 1 12 48
M  V30 54 1 13 49
M  V30 55 1 13 50
M  V30 56 1 14 51
M  V30 57 1 14 52
M  V30 58 1 15 53
M  V30 59 1 15 54
M  V30 60 1 17 55
M  V30 61 1 18 56
M  V30 62 1 25 57
M  V30 63 1 26 58
M  V30 64 1 27 59
M  V30 65 1 28 60
M  V30 66 1 31 61
M  V30 67 1 35 62
M  V30 END BOND
M  V30 END CTAB
M  END
>  <Dataset>  (191) 
ChEMBL_Kinases

>  <Ligand_Instance>  (191) 
nan

>  <PDB_ID>  (191) 
nan

>  <Standardized_SMILES>  (191) 
Cn1c2cc(C(=O)NCCN3CCCC3)c(O)cc2c2c3c(c(-c4ccccc4Cl)cc21)C(=O)NC3=O

>  <Name>  (191) 
nan

>  <Pocket>  (191) 
nan

>  <ATP_Site>  (191) 
nan

>  <Peripheral>  (191) 
nan

>  <Num_H_Atoms_ProtBoundConf>  (191) 
nan

>  <Num_Resolved_Atoms>  (191) 
nan

>  <Num_Not_Resolved_Atoms>  (191) 
nan

$$$$
CHEMBL261118
     RDKit          3D

  0  0  0  0  0  0  0  0  0  0999 V3000
M  V30 BEGIN CTAB
M  V30 COUNTS 59 63 0 0 0
M  V30 BEGIN ATOM
M  V30 1 C 4.247587 -2.880436 7.461841 0
M  V30 2 C 5.455902 -2.189902 6.868560 0
M  V30 3 O 5.099291 -1.169701 5.953852 0
M  V30 4 C 4.360157 -1.423269 4.806974 0
M  V30 5 C 4.113155 -0.296308 4.042119 0
M  V30 6 C 3.392223 -0.367878 2.868103 0
M  V30 7 C 2.881671 -1.559816 2.396042 0
M  V30 8 C 2.110017 -1.733075 1.170946 0
M  V30 9 C 1.812976 -0.668891 0.345495 0
M  V30 10 C 1.085793 -0.793927 -0.820037 0
M  V30 11 C 0.761052 0.318427 -1.705674 0
M  V30 12 O 1.592497 0.571546 -2.630538 0
M  V30 13 N -0.433135 1.067765 -1.522995 0
M  V30 14 C -1.323790 0.731528 -0.465165 0
M  V30 15 C -2.583010 1.528273 -0.436082 0
M  V30 16 N -3.099825 1.636149 -1.793540 0
M  V30 17 C -4.451945 1.298709 -2.065565 0
M  V30 18 C -4.996087 1.383252 -3.340233 0
M  V30 19 C -6.312200 1.052921 -3.594427 0
M  V30 20 C -7.120480 0.624724 -2.558694 0
M  V30 21 C -6.534484 0.556256 -1.305417 0
M  V30 22 N -5.260035 0.881783 -1.089174 0
M  V30 23 C -2.222611 2.089141 -2.855413 0
M  V30 24 C -0.797805 2.161708 -2.358130 0
M  V30 25 C 0.619051 -2.050474 -1.199720 0
M  V30 26 C -0.108381 -2.226890 -2.349621 0
M  V30 27 C -0.550018 -3.498001 -2.683203 0
M  V30 28 C -0.232482 -4.543755 -1.829649 0
M  V30 29 C 0.507242 -4.333484 -0.669982 0
M  V30 30 C 0.947333 -3.073943 -0.335287 0
M  V30 31 N 1.654360 -2.941924 0.794695 0
M  V30 32 C 3.138950 -2.671879 3.173189 0
M  V30 33 C 3.857425 -2.624182 4.350651 0
M  V30 34 H 4.189620 -2.721912 8.563181 0
M  V30 35 H 3.330542 -2.428979 7.013635 0
M  V30 36 H 4.312708 -3.978611 7.317932 0
M  V30 37 H 5.999787 -1.705052 7.709259 0
M  V30 38 H 6.112824 -2.959806 6.366171 0
M  V30 39 H 4.466522 0.701221 4.314541 0
M  V30 40 H 3.205406 0.511843 2.280958 0
M  V30 41 H 2.130908 0.321346 0.561924 0
M  V30 42 H -1.627210 -0.341682 -0.597914 0
M  V30 43 H -0.865866 0.757969 0.552835 0
M  V30 44 H -3.331219 1.070789 0.233018 0
M  V30 45 H -2.354553 2.556198 -0.052959 0
M  V30 46 H -4.395110 1.710247 -4.155888 0
M  V30 47 H -6.756749 1.110036 -4.572497 0
M  V30 48 H -8.162689 0.342877 -2.652913 0
M  V30 49 H -7.105339 0.229843 -0.446833 0
M  V30 50 H -2.301191 1.393488 -3.719692 0
M  V30 51 H -2.547239 3.109507 -3.136006 0
M  V30 52 H -0.572294 3.167304 -1.950236 0
M  V30 53 H -0.163620 2.074794 -3.287387 0
M  V30 54 H -0.342827 -1.389870 -3.000136 0
M  V30 55 H -1.118657 -3.592252 -3.595793 0
M  V30 56 H -0.610041 -5.495402 -2.157014 0
M  V30 57 H 0.716299 -5.209468 -0.049360 0
M  V30 58 H 2.767214 -3.637565 2.860289 0
M  V30 59 H 4.081248 -3.466244 4.986513 0
M  V30 END ATOM
M  V30 BEGIN BOND
M  V30 1 1 1 2
M  V30 2 1 2 3
M  V30 3 1 3 4
M  V30 4 2 4 5
M  V30 5 1 5 6
M  V30 6 2 6 7
M  V30 7 1 7 8
M  V30 8 2 8 9
M  V30 9 1 9 10
M  V30 10 1 10 11
M  V30 11 2 11 12
M  V30 12 1 11 13
M  V30 13 1 13 14
M  V30 14 1 14 15
M  V30 15 1 15 16
M  V30 16 1 16 17
M  V30 17 2 17 18
M  V30 18 1 18 19
M  V30 19 2 19 20
M  V30 20 1 20 21
M  V30 21 2 21 22
M  V30 22 1 16 23
M  V30 23 1 23 24
M  V30 24 2 10 25
M  V30 25 1 25 26
M  V30 26 2 26 27
M  V30 27 1 27 28
M  V30 28 2 28 29
M  V30 29 1 29 30
M  V30 30 2 30 31
M  V30 31 1 7 32
M  V30 32 2 32 33
M  V30 33 1 33 4
M  V30 34 1 31 8
M  V30 35 1 24 13
M  V30 36 1 30 25
M  V30 37 1 22 17
M  V30 38 1 1 34
M  V30 39 1 1 35
M  V30 40 1 1 36
M  V30 41 1 2 37
M  V30 42 1 2 38
M  V30 43 1 5 39
M  V30 44 1 6 40
M  V30 45 1 9 41
M  V30 46 1 14 42
M  V30 47 1 14 43
M  V30 48 1 15 44
M  V30 49 1 15 45
M  V30 50 1 18 46
M  V30 51 1 19 47
M  V30 52 1 20 48
M  V30 53 1 21 49
M  V30 54 1 23 50
M  V30 55 1 23 51
M  V30 56 1 24 52
M  V30 57 1 24 53
M  V30 58 1 26 54
M  V30 59 1 27 55
M  V30 60 1 28 56
M  V30 61 1 29 57
M  V30 62 1 32 58
M  V30 63 1 33 59
M  V30 END BOND
M  V30 END CTAB
M  END
>  <Dataset>  (192) 
ChEMBL_Kinases

>  <Ligand_Instance>  (192) 
nan

>  <PDB_ID>  (192) 
nan

>  <Standardized_SMILES>  (192) 
CCOc1ccc(-c2cc(C(=O)N3CCN(c4ccccn4)CC3)c3ccccc3n2)cc1

>  <Name>  (192) 
nan

>  <Pocket>  (192) 
nan

>  <ATP_Site>  (192) 
nan

>  <Peripheral>  (192) 
nan

>  <Num_H_Atoms_ProtBoundConf>  (192) 
nan

>  <Num_Resolved_Atoms>  (192) 
nan

>  <Num_Not_Resolved_Atoms>  (192) 
nan

$$$$
CHEMBL261113
     RDKit          3D

  0  0  0  0  0  0  0  0  0  0999 V3000
M  V30 BEGIN CTAB
M  V30 COUNTS 51 53 0 0 0
M  V30 BEGIN ATOM
M  V30 1 C 2.349505 0.243063 7.399367 0
M  V30 2 C 1.492139 -0.748922 6.656423 0
M  V30 3 O 1.922262 -1.005517 5.346258 0
M  V30 4 C 3.134985 -1.517199 4.963066 0
M  V30 5 O 3.282920 -1.497228 6.212396 0
M  V30 6 C 3.325684 -1.687409 3.490418 0
M  V30 7 C 3.756852 -3.112324 3.221049 0
M  V30 8 O 2.230626 -1.296017 2.728199 0
M  V30 9 C 2.159953 -0.314873 1.783554 0
M  V30 10 C 3.131612 0.549876 1.325196 0
M  V30 11 C 2.876137 1.491375 0.350798 0
M  V30 12 C 1.608311 1.595156 -0.205348 0
M  V30 13 C 0.625602 0.743937 0.236330 0
M  V30 14 C -0.607817 0.906896 -0.363125 0
M  V30 15 O -0.844064 1.752102 -1.240377 0
M  V30 16 N -1.618171 0.105496 0.021543 0
M  V30 17 C -2.966416 0.175940 -0.533084 0
M  V30 18 C -3.005135 -0.749529 -1.710257 0
M  V30 19 O -1.953966 -1.383229 -2.003419 0
M  V30 20 N -4.229889 -0.850350 -2.419340 0
M  V30 21 C -4.323750 -1.730165 -3.565871 0
M  V30 22 C -3.363767 -1.360699 -4.636737 0
M  V30 23 C -3.556214 -0.489614 -5.697686 0
M  V30 24 C -2.373680 -0.473750 -6.423965 0
M  V30 25 C -1.544592 -1.336114 -5.754256 0
M  V30 26 O -2.146992 -1.843293 -4.710705 0
M  V30 27 C -1.423507 -0.831073 0.969385 0
M  V30 28 C -0.189186 -0.990478 1.565848 0
M  V30 29 C 0.887707 -0.201776 1.217115 0
M  V30 30 H 1.683999 0.926695 7.962390 0
M  V30 31 H 2.948181 0.847350 6.666263 0
M  V30 32 H 3.028614 -0.220649 8.145650 0
M  V30 33 H 0.469450 -0.321762 6.569531 0
M  V30 34 H 1.420385 -1.665943 7.275377 0
M  V30 35 H 4.198782 -1.055012 3.208998 0
M  V30 36 H 3.697509 -3.355195 2.140618 0
M  V30 37 H 3.067813 -3.796548 3.757508 0
M  V30 38 H 4.773204 -3.302274 3.616211 0
M  V30 39 H 4.090902 0.412586 1.800942 0
M  V30 40 H 3.720626 2.127384 0.060731 0
M  V30 41 H 1.494488 2.360421 -0.963474 0
M  V30 42 H -3.165907 1.192669 -0.982160 0
M  V30 43 H -3.748389 -0.053857 0.197357 0
M  V30 44 H -5.065045 -0.278331 -2.100272 0
M  V30 45 H -5.338301 -1.682774 -3.992689 0
M  V30 46 H -4.149259 -2.783249 -3.241808 0
M  V30 47 H -4.487739 0.036997 -5.853123 0
M  V30 48 H -2.232268 0.128907 -7.321661 0
M  V30 49 H -0.527354 -1.556757 -6.062787 0
M  V30 50 H -2.232403 -1.488479 1.292157 0
M  V30 51 H -0.036738 -1.743168 2.326128 0
M  V30 END ATOM
M  V30 BEGIN BOND
M  V30 1 1 1 2
M  V30 2 1 2 3
M  V30 3 1 3 4
M  V30 4 2 4 5
M  V30 5 1 4 6
M  V30 6 1 6 7
M  V30 7 1 6 8
M  V30 8 1 8 9
M  V30 9 2 9 10
M  V30 10 1 10 11
M  V30 11 2 11 12
M  V30 12 1 12 13
M  V30 13 1 13 14
M  V30 14 2 14 15
M  V30 15 1 14 16
M  V30 16 1 16 17
M  V30 17 1 17 18
M  V30 18 2 18 19
M  V30 19 1 18 20
M  V30 20 1 20 21
M  V30 21 1 21 22
M  V30 22 2 22 23
M  V30 23 1 23 24
M  V30 24 2 24 25
M  V30 25 1 25 26
M  V30 26 1 16 27
M  V30 27 2 27 28
M  V30 28 1 28 29
M  V30 29 1 29 9
M  V30 30 2 29 13
M  V30 31 1 26 22
M  V30 32 1 1 30
M  V30 33 1 1 31
M  V30 34 1 1 32
M  V30 35 1 2 33
M  V30 36 1 2 34
M  V30 37 1 6 35
M  V30 38 1 7 36
M  V30 39 1 7 37
M  V30 40 1 7 38
M  V30 41 1 10 39
M  V30 42 1 11 40
M  V30 43 1 12 41
M  V30 44 1 17 42
M  V30 45 1 17 43
M  V30 46 1 20 44
M  V30 47 1 21 45
M  V30 48 1 21 46
M  V30 49 1 23 47
M  V30 50 1 24 48
M  V30 51 1 25 49
M  V30 52 1 27 50
M  V30 53 1 28 51
M  V30 END BOND
M  V30 END CTAB
M  END
>  <Dataset>  (193) 
ChEMBL_Kinases

>  <Ligand_Instance>  (193) 
nan

>  <PDB_ID>  (193) 
nan

>  <Standardized_SMILES>  (193) 
CCOC(=O)C(C)Oc1cccc2c(=O)n(CC(=O)NCc3ccco3)ccc12

>  <Name>  (193) 
nan

>  <Pocket>  (193) 
nan

>  <ATP_Site>  (193) 
nan

>  <Peripheral>  (193) 
nan

>  <Num_H_Atoms_ProtBoundConf>  (193) 
nan

>  <Num_Resolved_Atoms>  (193) 
nan

>  <Num_Not_Resolved_Atoms>  (193) 
nan

$$$$
CHEMBL261086
     RDKit          3D

  0  0  0  0  0  0  0  0  0  0999 V3000
M  V30 BEGIN CTAB
M  V30 COUNTS 59 62 0 0 0
M  V30 BEGIN ATOM
M  V30 1 C 4.811073 -1.156330 4.613785 0
M  V30 2 C 3.389063 -1.604126 4.511377 0
M  V30 3 C 3.201339 -2.812561 3.650310 0
M  V30 4 C 3.640915 -2.620256 2.231534 0
M  V30 5 C 2.919213 -1.545975 1.538627 0
M  V30 6 C 3.316817 -0.225382 1.507761 0
M  V30 7 C 2.542436 0.684237 0.817510 0
M  V30 8 C 1.372876 0.393944 0.133711 0
M  V30 9 C 0.648390 1.340361 -0.532145 0
M  V30 10 O 1.127190 2.477416 -0.472476 0
M  V30 11 N -0.483660 1.027430 -1.186784 0
M  V30 12 C -1.227458 2.050225 -1.886814 0
M  V30 13 C -2.179541 2.693748 -0.962262 0
M  V30 14 C -3.451745 2.316444 -0.614432 0
M  V30 15 C -4.291707 2.973020 0.253806 0
M  V30 16 C -3.836954 4.128880 0.849302 0
M  V30 17 C -2.550560 4.567438 0.537586 0
M  V30 18 C -1.746346 3.869927 -0.342351 0
M  V30 19 C -0.814189 -0.272085 -1.119415 0
M  V30 20 C -2.000934 -0.726305 -1.826509 0
M  V30 21 O -3.023901 -0.699923 -2.533682 0
M  V30 22 O -2.484409 -2.017699 -1.855773 0
M  V30 23 C -3.610468 -2.489916 -2.517105 0
M  V30 24 C -0.147214 -1.290172 -0.474219 0
M  V30 25 C -0.584673 -2.662780 -0.458187 0
M  V30 26 C -0.069552 -3.412745 -1.517570 0
M  V30 27 C -0.388489 -4.756211 -1.656673 0
M  V30 28 C -1.229405 -5.317335 -0.712408 0
M  V30 29 C -1.756313 -4.600884 0.348929 0
M  V30 30 C -1.412388 -3.257279 0.452692 0
M  V30 31 C 1.008235 -0.933434 0.187103 0
M  V30 32 C 1.757254 -1.868674 0.866666 0
M  V30 33 H 4.815802 -0.069165 4.908769 0
M  V30 34 H 5.371355 -1.658722 5.429007 0
M  V30 35 H 5.390082 -1.207999 3.674981 0
M  V30 36 H 2.794361 -0.732746 4.168335 0
M  V30 37 H 3.082557 -1.900880 5.557817 0
M  V30 38 H 3.825861 -3.646001 4.079720 0
M  V30 39 H 2.168260 -3.199134 3.660690 0
M  V30 40 H 4.729371 -2.430164 2.194876 0
M  V30 41 H 3.476720 -3.568074 1.653833 0
M  V30 42 H 4.214588 0.060695 2.018652 0
M  V30 43 H 2.906066 1.710972 0.828352 0
M  V30 44 H -1.773724 1.580552 -2.753252 0
M  V30 45 H -0.526992 2.799858 -2.312468 0
M  V30 46 H -3.819176 1.415726 -1.074451 0
M  V30 47 H -5.274693 2.570339 0.444227 0
M  V30 48 H -4.525849 4.613979 1.523974 0
M  V30 49 H -2.301754 5.479675 1.060529 0
M  V30 50 H -0.813396 4.370222 -0.446418 0
M  V30 51 H -3.655035 -3.599037 -2.294757 0
M  V30 52 H -3.564939 -2.454894 -3.628265 0
M  V30 53 H -4.583937 -2.110075 -2.146871 0
M  V30 54 H 0.601975 -3.031302 -2.300874 0
M  V30 55 H -0.001844 -5.370016 -2.474175 0
M  V30 56 H -1.512357 -6.360368 -0.770390 0
M  V30 57 H -2.414588 -5.035222 1.090257 0
M  V30 58 H -1.764716 -2.604092 1.239027 0
M  V30 59 H 1.379980 -2.892062 0.846532 0
M  V30 END ATOM
M  V30 BEGIN BOND
M  V30 1 1 1 2
M  V30 2 1 2 3
M  V30 3 1 3 4
M  V30 4 1 4 5
M  V30 5 2 5 6
M  V30 6 1 6 7
M  V30 7 2 7 8
M  V30 8 1 8 9
M  V30 9 2 9 10
M  V30 10 1 9 11
M  V30 11 1 11 12
M  V30 12 1 12 13
M  V30 13 2 13 14
M  V30 14 1 14 15
M  V30 15 2 15 16
M  V30 16 1 16 17
M  V30 17 2 17 18
M  V30 18 1 11 19
M  V30 19 1 19 20
M  V30 20 2 20 21
M  V30 21 1 20 22
M  V30 22 1 22 23
M  V30 23 2 19 24
M  V30 24 1 24 25
M  V30 25 2 25 26
M  V30 26 1 26 27
M  V30 27 2 27 28
M  V30 28 1 28 29
M  V30 29 2 29 30
M  V30 30 1 24 31
M  V30 31 2 31 32
M  V30 32 1 32 5
M  V30 33 1 31 8
M  V30 34 1 18 13
M  V30 35 1 30 25
M  V30 36 1 1 33
M  V30 37 1 1 34
M  V30 38 1 1 35
M  V30 39 1 2 36
M  V30 40 1 2 37
M  V30 41 1 3 38
M  V30 42 1 3 39
M  V30 43 1 4 40
M  V30 44 1 4 41
M  V30 45 1 6 42
M  V30 46 1 7 43
M  V30 47 1 12 44
M  V30 48 1 12 45
M  V30 49 1 14 46
M  V30 50 1 15 47
M  V30 51 1 16 48
M  V30 52 1 17 49
M  V30 53 1 18 50
M  V30 54 1 23 51
M  V30 55 1 23 52
M  V30 56 1 23 53
M  V30 57 1 26 54
M  V30 58 1 27 55
M  V30 59 1 28 56
M  V30 60 1 29 57
M  V30 61 1 30 58
M  V30 62 1 32 59
M  V30 END BOND
M  V30 END CTAB
M  END
>  <Dataset>  (194) 
ChEMBL_Kinases

>  <Ligand_Instance>  (194) 
nan

>  <PDB_ID>  (194) 
nan

>  <Standardized_SMILES>  (194) 
CCCCc1ccc2c(=O)n(Cc3ccccc3)c(C(=O)OC)c(-c3ccccc3)c2c1

>  <Name>  (194) 
nan

>  <Pocket>  (194) 
nan

>  <ATP_Site>  (194) 
nan

>  <Peripheral>  (194) 
nan

>  <Num_H_Atoms_ProtBoundConf>  (194) 
nan

>  <Num_Resolved_Atoms>  (194) 
nan

>  <Num_Not_Resolved_Atoms>  (194) 
nan

$$$$
CHEMBL261075
     RDKit          3D

  0  0  0  0  0  0  0  0  0  0999 V3000
M  V30 BEGIN CTAB
M  V30 COUNTS 48 51 0 0 0
M  V30 BEGIN ATOM
M  V30 1 C 1.211557 -4.443017 2.769353 0
M  V30 2 N 1.605956 -3.306062 1.999105 0
M  V30 3 C 2.733306 -3.200762 1.158550 0
M  V30 4 O 3.472396 -4.223032 1.081490 0
M  V30 5 C 3.103754 -2.022592 0.385895 0
M  V30 6 C 4.252587 -2.087953 -0.374019 0
M  V30 7 C 4.602198 -0.975507 -1.108678 0
M  V30 8 C 3.878568 0.198514 -1.134336 0
M  V30 9 C 4.286515 1.389077 -1.940998 0
M  V30 10 C 2.717779 0.264874 -0.366898 0
M  V30 11 N 1.886558 1.445413 -0.326643 0
M  V30 12 C 0.737373 1.357732 0.505858 0
M  V30 13 N 0.642699 1.767789 1.788241 0
M  V30 14 C -0.499007 1.630776 2.496724 0
M  V30 15 C -0.504627 2.118093 3.913316 0
M  V30 16 N -1.592213 1.074638 1.942134 0
M  V30 17 C -1.525324 0.654273 0.656931 0
M  V30 18 C -0.368156 0.779095 -0.102912 0
M  V30 19 C -0.675852 0.247337 -1.343432 0
M  V30 20 N -1.945196 -0.157928 -1.286149 0
M  V30 21 N -2.495852 0.066431 -0.102939 0
M  V30 22 C -3.822790 -0.240691 0.310510 0
M  V30 23 C -3.919620 -1.583767 0.654488 0
M  V30 24 C -5.111200 -2.152510 1.096313 0
M  V30 25 C -6.211681 -1.333595 1.185028 0
M  V30 26 C -6.135051 0.002050 0.848261 0
M  V30 27 C -4.952047 0.558651 0.411436 0
M  V30 28 C 2.372597 -0.854110 0.368168 0
M  V30 29 H 1.684852 -4.317879 3.783267 0
M  V30 30 H 1.514060 -5.421211 2.368732 0
M  V30 31 H 0.105312 -4.454206 2.975025 0
M  V30 32 H 0.975259 -2.471191 2.082324 0
M  V30 33 H 4.867446 -2.979123 -0.399773 0
M  V30 34 H 5.519726 -1.052771 -1.704405 0
M  V30 35 H 3.465644 1.685051 -2.604082 0
M  V30 36 H 5.250242 1.204941 -2.428792 0
M  V30 37 H 4.405887 2.242737 -1.209679 0
M  V30 38 H 2.222254 2.253106 -0.923748 0
M  V30 39 H -1.458099 1.895701 4.404226 0
M  V30 40 H -0.260349 3.214482 3.864618 0
M  V30 41 H 0.364277 1.667691 4.435374 0
M  V30 42 H 0.036202 0.212246 -2.132863 0
M  V30 43 H -3.109257 -2.330792 0.623395 0
M  V30 44 H -5.208696 -3.205429 1.371713 0
M  V30 45 H -7.166262 -1.717793 1.521597 0
M  V30 46 H -6.951681 0.703624 0.891761 0
M  V30 47 H -4.738935 1.572998 0.115540 0
M  V30 48 H 1.480918 -0.842610 0.975698 0
M  V30 END ATOM
M  V30 BEGIN BOND
M  V30 1 1 1 2
M  V30 2 1 2 3
M  V30 3 2 3 4
M  V30 4 1 3 5
M  V30 5 2 5 6
M  V30 6 1 6 7
M  V30 7 2 7 8
M  V30 8 1 8 9
M  V30 9 1 8 10
M  V30 10 1 10 11
M  V30 11 1 11 12
M  V30 12 2 12 13
M  V30 13 1 13 14
M  V30 14 1 14 15
M  V30 15 2 14 16
M  V30 16 1 16 17
M  V30 17 2 17 18
M  V30 18 1 18 19
M  V30 19 2 19 20
M  V30 20 1 20 21
M  V30 21 1 21 22
M  V30 22 2 22 23
M  V30 23 1 23 24
M  V30 24 2 24 25
M  V30 25 1 25 26
M  V30 26 2 26 27
M  V30 27 2 10 28
M  V30 28 1 28 5
M  V30 29 1 18 12
M  V30 30 1 27 22
M  V30 31 1 21 17
M  V30 32 1 1 29
M  V30 33 1 1 30
M  V30 34 1 1 31
M  V30 35 1 2 32
M  V30 36 1 6 33
M  V30 37 1 7 34
M  V30 38 1 9 35
M  V30 39 1 9 36
M  V30 40 1 9 37
M  V30 41 1 11 38
M  V30 42 1 15 39
M  V30 43 1 15 40
M  V30 44 1 15 41
M  V30 45 1 19 42
M  V30 46 1 23 43
M  V30 47 1 24 44
M  V30 48 1 25 45
M  V30 49 1 26 46
M  V30 50 1 27 47
M  V30 51 1 28 48
M  V30 END BOND
M  V30 END CTAB
M  END
>  <Dataset>  (195) 
ChEMBL_Kinases

>  <Ligand_Instance>  (195) 
nan

>  <PDB_ID>  (195) 
nan

>  <Standardized_SMILES>  (195) 
CNC(=O)c1ccc(C)c(Nc2nc(C)nc3c2cnn3-c2ccccc2)c1

>  <Name>  (195) 
nan

>  <Pocket>  (195) 
nan

>  <ATP_Site>  (195) 
nan

>  <Peripheral>  (195) 
nan

>  <Num_H_Atoms_ProtBoundConf>  (195) 
nan

>  <Num_Resolved_Atoms>  (195) 
nan

>  <Num_Not_Resolved_Atoms>  (195) 
nan

$$$$
CHEMBL261021
     RDKit          3D

  0  0  0  0  0  0  0  0  0  0999 V3000
M  V30 BEGIN CTAB
M  V30 COUNTS 47 50 0 0 0
M  V30 BEGIN ATOM
M  V30 1 C -0.600074 -5.083766 5.355212 0
M  V30 2 N -0.043098 -3.929091 4.683894 0
M  V30 3 C 1.327388 -3.928623 4.322768 0
M  V30 4 O 1.989706 -4.941764 4.608690 0
M  V30 5 C 1.971226 -2.813474 3.645893 0
M  V30 6 C 3.321819 -2.971138 3.337232 0
M  V30 7 C 3.957827 -1.928937 2.692444 0
M  V30 8 C 3.308181 -0.766409 2.354631 0
M  V30 9 C 4.020586 0.319842 1.671633 0
M  V30 10 C 1.962111 -0.584167 2.651020 0
M  V30 11 N 1.210932 0.584826 2.343766 0
M  V30 12 C 0.924932 1.172532 1.082531 0
M  V30 13 N 1.625256 2.064454 0.361209 0
M  V30 14 C 1.165793 2.501072 -0.826521 0
M  V30 15 N 2.033070 3.441142 -1.456332 0
M  V30 16 N -0.015977 2.061344 -1.341019 0
M  V30 17 C -0.737057 1.178661 -0.656693 0
M  V30 18 C -0.294011 0.703481 0.576679 0
M  V30 19 C -1.283668 -0.170175 0.970045 0
M  V30 20 N -2.254040 -0.206410 0.021864 0
M  V30 21 N -1.919631 0.621266 -0.977215 0
M  V30 22 C -2.777890 0.766023 -2.102879 0
M  V30 23 C -2.958713 1.967818 -2.767667 0
M  V30 24 C -3.810600 2.032082 -3.853716 0
M  V30 25 C -4.502294 0.936173 -4.316212 0
M  V30 26 C -4.346791 -0.277340 -3.678594 0
M  V30 27 C -3.495207 -0.323980 -2.599030 0
M  V30 28 C 1.361034 -1.651760 3.297667 0
M  V30 29 H -0.179723 -5.260587 6.364499 0
M  V30 30 H -0.385156 -5.983191 4.737607 0
M  V30 31 H -1.709191 -5.006168 5.420209 0
M  V30 32 H -0.645317 -3.110252 4.469048 0
M  V30 33 H 3.888517 -3.859782 3.576303 0
M  V30 34 H 5.006099 -2.051571 2.454005 0
M  V30 35 H 3.742460 1.329157 2.036261 0
M  V30 36 H 3.917109 0.204210 0.575094 0
M  V30 37 H 5.126298 0.228488 1.883494 0
M  V30 38 H 0.724548 1.237025 3.004172 0
M  V30 39 H 2.914160 3.209816 -1.983963 0
M  V30 40 H 1.713507 4.411524 -1.347933 0
M  V30 41 H -1.260254 -0.724685 1.895962 0
M  V30 42 H -2.420429 2.801299 -2.401141 0
M  V30 43 H -3.947697 2.976825 -4.367476 0
M  V30 44 H -5.183569 0.930742 -5.165349 0
M  V30 45 H -4.827662 -1.226811 -3.930309 0
M  V30 46 H -3.332832 -1.263641 -2.052090 0
M  V30 47 H 0.308410 -1.560349 3.551903 0
M  V30 END ATOM
M  V30 BEGIN BOND
M  V30 1 1 1 2
M  V30 2 1 2 3
M  V30 3 2 3 4
M  V30 4 1 3 5
M  V30 5 2 5 6
M  V30 6 1 6 7
M  V30 7 2 7 8
M  V30 8 1 8 9
M  V30 9 1 8 10
M  V30 10 1 10 11
M  V30 11 1 11 12
M  V30 12 2 12 13
M  V30 13 1 13 14
M  V30 14 1 14 15
M  V30 15 2 14 16
M  V30 16 1 16 17
M  V30 17 2 17 18
M  V30 18 1 18 19
M  V30 19 2 19 20
M  V30 20 1 20 21
M  V30 21 1 21 22
M  V30 22 2 22 23
M  V30 23 1 23 24
M  V30 24 2 24 25
M  V30 25 1 25 26
M  V30 26 2 26 27
M  V30 27 2 10 28
M  V30 28 1 28 5
M  V30 29 1 18 12
M  V30 30 1 27 22
M  V30 31 1 21 17
M  V30 32 1 1 29
M  V30 33 1 1 30
M  V30 34 1 1 31
M  V30 35 1 2 32
M  V30 36 1 6 33
M  V30 37 1 7 34
M  V30 38 1 9 35
M  V30 39 1 9 36
M  V30 40 1 9 37
M  V30 41 1 11 38
M  V30 42 1 15 39
M  V30 43 1 15 40
M  V30 44 1 19 41
M  V30 45 1 23 42
M  V30 46 1 24 43
M  V30 47 1 25 44
M  V30 48 1 26 45
M  V30 49 1 27 46
M  V30 50 1 28 47
M  V30 END BOND
M  V30 END CTAB
M  END
>  <Dataset>  (196) 
ChEMBL_Kinases

>  <Ligand_Instance>  (196) 
nan

>  <PDB_ID>  (196) 
nan

>  <Standardized_SMILES>  (196) 
CNC(=O)c1ccc(C)c(Nc2nc(N)nc3c2cnn3-c2ccccc2)c1

>  <Name>  (196) 
nan

>  <Pocket>  (196) 
nan

>  <ATP_Site>  (196) 
nan

>  <Peripheral>  (196) 
nan

>  <Num_H_Atoms_ProtBoundConf>  (196) 
nan

>  <Num_Resolved_Atoms>  (196) 
nan

>  <Num_Not_Resolved_Atoms>  (196) 
nan

$$$$
CHEMBL261014
     RDKit          3D

  0  0  0  0  0  0  0  0  0  0999 V3000
M  V30 BEGIN CTAB
M  V30 COUNTS 60 63 0 0 0
M  V30 BEGIN ATOM
M  V30 1 C 4.047758 -2.674655 2.029771 0
M  V30 2 O 3.050210 -1.731926 2.240552 0
M  V30 3 C 1.689288 -1.975996 2.250800 0
M  V30 4 O 2.117413 -3.104970 2.029071 0
M  V30 5 C 0.665748 -0.963565 2.475250 0
M  V30 6 C 1.165604 0.296606 2.693081 0
M  V30 7 C 2.580666 0.609227 2.671605 0
M  V30 8 C 3.242973 0.496980 3.899764 0
M  V30 9 C 4.596426 0.779505 3.958364 0
M  V30 10 C 5.317828 1.168374 2.848558 0
M  V30 11 C 4.662376 1.278847 1.636037 0
M  V30 12 C 3.300771 0.998254 1.559716 0
M  V30 13 C 0.248638 1.293438 2.942114 0
M  V30 14 C 0.673277 2.585243 3.170712 0
M  V30 15 C -0.233965 3.593564 3.421772 0
M  V30 16 Br 0.439976 5.350248 3.726971 0
M  V30 17 C -1.577439 3.281051 3.439211 0
M  V30 18 C -1.943358 1.986943 3.206705 0
M  V30 19 C -1.083291 0.935063 2.949858 0
M  V30 20 C -1.494318 -0.360950 2.719367 0
M  V30 21 O -2.725026 -0.483628 2.768258 0
M  V30 22 N -0.616305 -1.352216 2.472895 0
M  V30 23 C -1.113553 -2.681900 2.244922 0
M  V30 24 C -1.462191 -2.970371 0.833738 0
M  V30 25 C -2.794296 -2.758036 0.448654 0
M  V30 26 C -3.240071 -2.988946 -0.836620 0
M  V30 27 C -2.380378 -3.446425 -1.814491 0
M  V30 28 N -2.748966 -3.711639 -3.161964 0
M  V30 29 C -2.590509 -2.560948 -3.981967 0
M  V30 30 O -2.158293 -1.510964 -3.399783 0
M  V30 31 C -2.898702 -2.540307 -5.435298 0
M  V30 32 C -2.600688 -1.141253 -5.946293 0
M  V30 33 C -3.425625 -0.125217 -5.250697 0
M  V30 34 O -4.290484 -0.237289 -4.348635 0
M  V30 35 O -3.267465 1.192404 -5.606053 0
M  V30 36 C -1.060730 -3.669732 -1.481656 0
M  V30 37 C -0.662144 -3.425570 -0.188337 0
M  V30 38 H 4.046304 -3.390517 2.891933 0
M  V30 39 H 4.008813 -3.203751 1.054284 0
M  V30 40 H 5.060036 -2.179215 2.081330 0
M  V30 41 H 2.781268 0.200983 4.835686 0
M  V30 42 H 5.204947 0.720983 4.873228 0
M  V30 43 H 6.383041 1.393150 2.883019 0
M  V30 44 H 5.142502 1.578610 0.701319 0
M  V30 45 H 2.741128 1.069225 0.636137 0
M  V30 46 H 1.744930 2.823871 3.154714 0
M  V30 47 H -2.289838 4.067955 3.635395 0
M  V30 48 H -3.009098 1.792984 3.231125 0
M  V30 49 H -2.018535 -2.840094 2.867514 0
M  V30 50 H -0.327094 -3.412177 2.530005 0
M  V30 51 H -3.596809 -2.411810 1.069844 0
M  V30 52 H -4.245868 -2.845156 -1.191268 0
M  V30 53 H -3.097263 -4.575256 -3.607705 0
M  V30 54 H -2.359024 -3.297775 -6.011075 0
M  V30 55 H -3.990656 -2.691494 -5.624705 0
M  V30 56 H -2.722445 -1.069000 -7.048778 0
M  V30 57 H -1.525620 -0.867254 -5.741138 0
M  V30 58 H -3.435935 1.992529 -5.007849 0
M  V30 59 H -0.330910 -4.027468 -2.194162 0
M  V30 60 H 0.361643 -3.603533 0.060066 0
M  V30 END ATOM
M  V30 BEGIN BOND
M  V30 1 1 1 2
M  V30 2 1 2 3
M  V30 3 2 3 4
M  V30 4 1 3 5
M  V30 5 2 5 6
M  V30 6 1 6 7
M  V30 7 2 7 8
M  V30 8 1 8 9
M  V30 9 2 9 10
M  V30 10 1 10 11
M  V30 11 2 11 12
M  V30 12 1 6 13
M  V30 13 2 13 14
M  V30 14 1 14 15
M  V30 15 1 15 16
M  V30 16 2 15 17
M  V30 17 1 17 18
M  V30 18 2 18 19
M  V30 19 1 19 20
M  V30 20 2 20 21
M  V30 21 1 20 22
M  V30 22 1 22 23
M  V30 23 1 23 24
M  V30 24 2 24 25
M  V30 25 1 25 26
M  V30 26 2 26 27
M  V30 27 1 27 28
M  V30 28 1 28 29
M  V30 29 2 29 30
M  V30 30 1 29 31
M  V30 31 1 31 32
M  V30 32 1 32 33
M  V30 33 2 33 34
M  V30 34 1 33 35
M  V30 35 1 27 36
M  V30 36 2 36 37
M  V30 37 1 22 5
M  V30 38 1 37 24
M  V30 39 1 12 7
M  V30 40 1 19 13
M  V30 41 1 1 38
M  V30 42 1 1 39
M  V30 43 1 1 40
M  V30 44 1 8 41
M  V30 45 1 9 42
M  V30 46 1 10 43
M  V30 47 1 11 44
M  V30 48 1 12 45
M  V30 49 1 14 46
M  V30 50 1 17 47
M  V30 51 1 18 48
M  V30 52 1 23 49
M  V30 53 1 23 50
M  V30 54 1 25 51
M  V30 55 1 26 52
M  V30 56 1 28 53
M  V30 57 1 31 54
M  V30 58 1 31 55
M  V30 59 1 32 56
M  V30 60 1 32 57
M  V30 61 1 35 58
M  V30 62 1 36 59
M  V30 63 1 37 60
M  V30 END BOND
M  V30 END CTAB
M  END
>  <Dataset>  (197) 
ChEMBL_Kinases

>  <Ligand_Instance>  (197) 
nan

>  <PDB_ID>  (197) 
nan

>  <Standardized_SMILES>  (197) 
COC(=O)c1c(-c2ccccc2)c2cc(Br)ccc2c(=O)n1Cc1ccc(NC(=O)CCC(=O)O)cc1

>  <Name>  (197) 
nan

>  <Pocket>  (197) 
nan

>  <ATP_Site>  (197) 
nan

>  <Peripheral>  (197) 
nan

>  <Num_H_Atoms_ProtBoundConf>  (197) 
nan

>  <Num_Resolved_Atoms>  (197) 
nan

>  <Num_Not_Resolved_Atoms>  (197) 
nan

$$$$
CHEMBL26101
     RDKit          3D

  0  0  0  0  0  0  0  0  0  0999 V3000
M  V30 BEGIN CTAB
M  V30 COUNTS 21 21 0 0 0
M  V30 BEGIN ATOM
M  V30 1 C 2.135575 2.752322 2.271309 0
M  V30 2 C 1.007879 1.839614 2.603379 0
M  V30 3 N 0.973448 0.658157 1.810148 0
M  V30 4 S 1.830068 -0.745667 2.367275 0
M  V30 5 C 1.348915 -1.799475 0.907254 0
M  V30 6 O 1.626343 -2.969342 0.642428 0
M  V30 7 N 0.583977 -0.912931 0.181162 0
M  V30 8 C 0.000854 -1.366200 -1.083982 0
M  V30 9 C -1.354438 -1.973564 -0.907817 0
M  V30 10 C 0.411739 0.322788 0.662909 0
M  V30 11 S -0.464870 1.486162 -0.077087 0
M  V30 12 H 2.610750 3.133303 3.214797 0
M  V30 13 H 1.786380 3.672513 1.721239 0
M  V30 14 H 2.964953 2.262932 1.698695 0
M  V30 15 H 0.049213 2.390172 2.378555 0
M  V30 16 H 0.983398 1.624700 3.672447 0
M  V30 17 H -0.024516 -0.510503 -1.821031 0
M  V30 18 H 0.653027 -2.115925 -1.572583 0
M  V30 19 H -2.179435 -1.240534 -1.086927 0
M  V30 20 H -1.498133 -2.877152 -1.556746 0
M  V30 21 H -1.397286 -2.346204 0.143131 0
M  V30 END ATOM
M  V30 BEGIN BOND
M  V30 1 1 1 2
M  V30 2 1 2 3
M  V30 3 1 3 4
M  V30 4 1 4 5
M  V30 5 2 5 6
M  V30 6 1 5 7
M  V30 7 1 7 8
M  V30 8 1 8 9
M  V30 9 1 7 10
M  V30 10 2 10 11
M  V30 11 1 10 3
M  V30 12 1 1 12
M  V30 13 1 1 13
M  V30 14 1 1 14
M  V30 15 1 2 15
M  V30 16 1 2 16
M  V30 17 1 8 17
M  V30 18 1 8 18
M  V30 19 1 9 19
M  V30 20 1 9 20
M  V30 21 1 9 21
M  V30 END BOND
M  V30 END CTAB
M  END
>  <Dataset>  (198) 
ChEMBL_Kinases

>  <Ligand_Instance>  (198) 
nan

>  <PDB_ID>  (198) 
nan

>  <Standardized_SMILES>  (198) 
CCn1sc(=O)n(CC)c1=S

>  <Name>  (198) 
nan

>  <Pocket>  (198) 
nan

>  <ATP_Site>  (198) 
nan

>  <Peripheral>  (198) 
nan

>  <Num_H_Atoms_ProtBoundConf>  (198) 
nan

>  <Num_Resolved_Atoms>  (198) 
nan

>  <Num_Not_Resolved_Atoms>  (198) 
nan

$$$$
CHEMBL260807
     RDKit          3D

  0  0  0  0  0  0  0  0  0  0999 V3000
M  V30 BEGIN CTAB
M  V30 COUNTS 57 60 0 0 0
M  V30 BEGIN ATOM
M  V30 1 C 5.343200 -3.450819 4.817837 0
M  V30 2 N 4.443702 -2.544208 4.161397 0
M  V30 3 C 5.095980 -1.741477 3.187272 0
M  V30 4 O 6.313120 -1.895631 3.010467 0
M  V30 5 C 4.404541 -0.741825 2.380448 0
M  V30 6 C 5.147882 -0.049009 1.450007 0
M  V30 7 C 4.540044 0.905135 0.659054 0
M  V30 8 C 3.175089 1.202174 0.766102 0
M  V30 9 C 2.525811 2.239816 -0.071929 0
M  V30 10 C 2.417617 0.498368 1.711648 0
M  V30 11 N 1.000707 0.700477 1.923518 0
M  V30 12 C -0.027038 0.495814 0.991960 0
M  V30 13 N -0.589984 1.278261 0.059959 0
M  V30 14 C -1.571382 0.887728 -0.749234 0
M  V30 15 N -2.184522 1.701943 -1.729724 0
M  V30 16 C -1.379942 1.910708 -2.908681 0
M  V30 17 C -3.534837 2.212606 -1.469244 0
M  V30 18 C -4.433526 1.465324 -2.449379 0
M  V30 19 C -5.837435 1.839177 -2.325351 0
M  V30 20 N -6.963364 2.147201 -2.237574 0
M  V30 21 N -2.060359 -0.362083 -0.661115 0
M  V30 22 C -1.562743 -1.243792 0.251855 0
M  V30 23 C -0.534023 -0.801024 1.083748 0
M  V30 24 C -0.299849 -1.942225 1.858916 0
M  V30 25 N -1.130031 -2.924105 1.483433 0
M  V30 26 N -1.914464 -2.514056 0.496588 0
M  V30 27 C -2.908352 -3.311803 -0.129440 0
M  V30 28 C -4.280997 -3.189152 -0.018289 0
M  V30 29 C -5.057836 -4.080460 -0.724971 0
M  V30 30 C -4.531000 -5.077331 -1.528558 0
M  V30 31 C -3.137338 -5.175600 -1.621045 0
M  V30 32 C -2.337548 -4.291884 -0.920161 0
M  V30 33 C 3.058000 -0.446582 2.484608 0
M  V30 34 H 4.754121 -4.068178 5.549608 0
M  V30 35 H 5.763049 -4.213168 4.115181 0
M  V30 36 H 6.138715 -2.926815 5.376873 0
M  V30 37 H 3.421522 -2.439812 4.334222 0
M  V30 38 H 6.200964 -0.217325 1.303834 0
M  V30 39 H 5.090621 1.465536 -0.080967 0
M  V30 40 H 2.094794 1.807531 -0.987283 0
M  V30 41 H 1.706168 2.682361 0.526325 0
M  V30 42 H 3.324651 2.988722 -0.291314 0
M  V30 43 H 0.791912 1.030671 2.889018 0
M  V30 44 H -1.103754 0.892626 -3.273095 0
M  V30 45 H -1.923109 2.488673 -3.691557 0
M  V30 46 H -0.471519 2.534202 -2.679879 0
M  V30 47 H -3.836802 1.967852 -0.448849 0
M  V30 48 H -3.575272 3.284803 -1.720804 0
M  V30 49 H -4.338151 0.372961 -2.374887 0
M  V30 50 H -4.142441 1.724869 -3.498032 0
M  V30 51 H 0.447535 -1.988770 2.638765 0
M  V30 52 H -4.630434 -2.407777 0.610232 0
M  V30 53 H -6.155105 -3.985681 -0.638945 0
M  V30 54 H -5.155007 -5.784627 -2.091179 0
M  V30 55 H -2.779033 -5.958839 -2.251156 0
M  V30 56 H -1.277042 -4.467574 -1.073817 0
M  V30 57 H 2.526513 -0.997659 3.214676 0
M  V30 END ATOM
M  V30 BEGIN BOND
M  V30 1 1 1 2
M  V30 2 1 2 3
M  V30 3 2 3 4
M  V30 4 1 3 5
M  V30 5 2 5 6
M  V30 6 1 6 7
M  V30 7 2 7 8
M  V30 8 1 8 9
M  V30 9 1 8 10
M  V30 10 1 10 11
M  V30 11 1 11 12
M  V30 12 2 12 13
M  V30 13 1 13 14
M  V30 14 1 14 15
M  V30 15 1 15 16
M  V30 16 1 15 17
M  V30 17 1 17 18
M  V30 18 1 18 19
M  V30 19 3 19 20
M  V30 20 2 14 21
M  V30 21 1 21 22
M  V30 22 2 22 23
M  V30 23 1 23 24
M  V30 24 2 24 25
M  V30 25 1 25 26
M  V30 26 1 26 27
M  V30 27 2 27 28
M  V30 28 1 28 29
M  V30 29 2 29 30
M  V30 30 1 30 31
M  V30 31 2 31 32
M  V30 32 2 10 33
M  V30 33 1 33 5
M  V30 34 1 23 12
M  V30 35 1 32 27
M  V30 36 1 26 22
M  V30 37 1 1 34
M  V30 38 1 1 35
M  V30 39 1 1 36
M  V30 40 1 2 37
M  V30 41 1 6 38
M  V30 42 1 7 39
M  V30 43 1 9 40
M  V30 44 1 9 41
M  V30 45 1 9 42
M  V30 46 1 11 43
M  V30 47 1 16 44
M  V30 48 1 16 45
M  V30 49 1 16 46
M  V30 50 1 17 47
M  V30 51 1 17 48
M  V30 52 1 18 49
M  V30 53 1 18 50
M  V30 54 1 24 51
M  V30 55 1 28 52
M  V30 56 1 29 53
M  V30 57 1 30 54
M  V30 58 1 31 55
M  V30 59 1 32 56
M  V30 60 1 33 57
M  V30 END BOND
M  V30 END CTAB
M  END
>  <Dataset>  (199) 
ChEMBL_Kinases

>  <Ligand_Instance>  (199) 
nan

>  <PDB_ID>  (199) 
nan

>  <Standardized_SMILES>  (199) 
CNC(=O)c1ccc(C)c(Nc2nc(N(C)CCC#N)nc3c2cnn3-c2ccccc2)c1

>  <Name>  (199) 
nan

>  <Pocket>  (199) 
nan

>  <ATP_Site>  (199) 
nan

>  <Peripheral>  (199) 
nan

>  <Num_H_Atoms_ProtBoundConf>  (199) 
nan

>  <Num_Resolved_Atoms>  (199) 
nan

>  <Num_Not_Resolved_Atoms>  (199) 
nan

$$$$
CHEMBL260664
     RDKit          3D

  0  0  0  0  0  0  0  0  0  0999 V3000
M  V30 BEGIN CTAB
M  V30 COUNTS 36 39 0 0 0
M  V30 BEGIN ATOM
M  V30 1 O -2.074638 -2.431023 3.660071 0
M  V30 2 C -1.160995 -1.734364 4.180099 0
M  V30 3 N 0.150888 -1.471371 3.741485 0
M  V30 4 C 0.701252 -1.995685 2.537252 0
M  V30 5 N 1.379810 -3.124246 2.248913 0
M  V30 6 N 1.678327 -3.148408 0.949923 0
M  V30 7 C 1.199983 -2.024858 0.339263 0
M  V30 8 N 1.283966 -1.657406 -0.954887 0
M  V30 9 C 0.712512 -0.468974 -1.302645 0
M  V30 10 C 0.775288 -0.027534 -2.683975 0
M  V30 11 C 0.505927 -0.903000 -3.714748 0
M  V30 12 C 0.556538 -0.515637 -5.043316 0
M  V30 13 C 0.882916 0.777365 -5.380531 0
M  V30 14 O 0.941443 1.194466 -6.706227 0
M  V30 15 C 1.160924 1.689774 -4.377056 0
M  V30 16 C 1.097355 1.256395 -3.071401 0
M  V30 17 C 0.087471 0.287027 -0.333365 0
M  V30 18 Cl -0.660627 1.813218 -0.715173 0
M  V30 19 C 0.006435 -0.096632 0.987600 0
M  V30 20 C 0.586715 -1.306086 1.347351 0
M  V30 21 C -1.625819 -1.130141 5.456637 0
M  V30 22 C -1.170887 0.277887 5.785319 0
M  V30 23 C -0.592538 -0.830382 6.546193 0
M  V30 24 H 0.766916 -0.858769 4.321783 0
M  V30 25 H 2.214637 -3.969247 0.545493 0
M  V30 26 H 0.240568 -1.941406 -3.528291 0
M  V30 27 H 0.353416 -1.166548 -5.883944 0
M  V30 28 H 1.530255 1.963508 -6.997280 0
M  V30 29 H 1.419481 2.709820 -4.614987 0
M  V30 30 H 1.319838 1.992907 -2.311431 0
M  V30 31 H -0.482506 0.494658 1.746071 0
M  V30 32 H -2.665151 -1.343927 5.795274 0
M  V30 33 H -0.525220 0.760808 5.027890 0
M  V30 34 H -1.881321 0.985223 6.246153 0
M  V30 35 H -0.922011 -0.975599 7.602359 0
M  V30 36 H 0.422516 -1.208683 6.349115 0
M  V30 END ATOM
M  V30 BEGIN BOND
M  V30 1 2 1 2
M  V30 2 1 2 3
M  V30 3 1 3 4
M  V30 4 2 4 5
M  V30 5 1 5 6
M  V30 6 1 6 7
M  V30 7 2 7 8
M  V30 8 1 8 9
M  V30 9 1 9 10
M  V30 10 2 10 11
M  V30 11 1 11 12
M  V30 12 2 12 13
M  V30 13 1 13 14
M  V30 14 1 13 15
M  V30 15 2 15 16
M  V30 16 2 9 17
M  V30 17 1 17 18
M  V30 18 1 17 19
M  V30 19 2 19 20
M  V30 20 1 2 21
M  V30 21 1 21 22
M  V30 22 1 22 23
M  V30 23 1 20 4
M  V30 24 1 23 21
M  V30 25 1 20 7
M  V30 26 1 16 10
M  V30 27 1 3 24
M  V30 28 1 6 25
M  V30 29 1 11 26
M  V30 30 1 12 27
M  V30 31 1 14 28
M  V30 32 1 15 29
M  V30 33 1 16 30
M  V30 34 1 19 31
M  V30 35 1 21 32
M  V30 36 1 22 33
M  V30 37 1 22 34
M  V30 38 1 23 35
M  V30 39 1 23 36
M  V30 END BOND
M  V30 END CTAB
M  END
>  <Dataset>  (200) 
ChEMBL_Kinases

>  <Ligand_Instance>  (200) 
nan

>  <PDB_ID>  (200) 
nan

>  <Standardized_SMILES>  (200) 
O=C(Nc1n[nH]c2nc(-c3ccc(O)cc3)c(Cl)cc12)C1CC1

>  <Name>  (200) 
nan

>  <Pocket>  (200) 
nan

>  <ATP_Site>  (200) 
nan

>  <Peripheral>  (200) 
nan

>  <Num_H_Atoms_ProtBoundConf>  (200) 
nan

>  <Num_Resolved_Atoms>  (200) 
nan

>  <Num_Not_Resolved_Atoms>  (200) 
nan

$$$$
CHEMBL260429
     RDKit          3D

  0  0  0  0  0  0  0  0  0  0999 V3000
M  V30 BEGIN CTAB
M  V30 COUNTS 65 69 0 0 0
M  V30 BEGIN ATOM
M  V30 1 C 4.605032 -2.123223 -0.625756 0
M  V30 2 O 3.565523 -1.274919 -0.995427 0
M  V30 3 C 2.283425 -1.631221 -1.365360 0
M  V30 4 O 2.757387 -2.750113 -1.151924 0
M  V30 5 C 1.239687 -0.692315 -1.741870 0
M  V30 6 C 1.627549 0.624261 -1.713906 0
M  V30 7 C 2.962056 1.051301 -1.311590 0
M  V30 8 C 3.811590 1.100676 -2.422806 0
M  V30 9 C 5.141314 1.481477 -2.296786 0
M  V30 10 C 5.601909 1.809055 -1.050553 0
M  V30 11 C 4.771541 1.764112 0.055984 0
M  V30 12 C 3.455042 1.383789 -0.089126 0
M  V30 13 C 0.700206 1.565708 -2.085872 0
M  V30 14 C 1.027372 2.905189 -2.079525 0
M  V30 15 C 0.103383 3.859027 -2.451653 0
M  V30 16 Br 0.536382 5.714079 -2.449388 0
M  V30 17 C -1.156106 3.445141 -2.830733 0
M  V30 18 C -1.435483 2.095500 -2.820751 0
M  V30 19 C -0.538301 1.100429 -2.454251 0
M  V30 20 C -0.854334 -0.238563 -2.456723 0
M  V30 21 O -2.015376 -0.462798 -2.818729 0
M  V30 22 N 0.039218 -1.176893 -2.095175 0
M  V30 23 C -0.346459 -2.566964 -2.120626 0
M  V30 24 C -0.977131 -3.069938 -0.903476 0
M  V30 25 C -2.376996 -3.012538 -0.868557 0
M  V30 26 C -3.092839 -3.456682 0.226427 0
M  V30 27 C -2.449616 -3.984869 1.351496 0
M  V30 28 N -3.131804 -4.456798 2.505857 0
M  V30 29 S -4.417875 -3.625401 3.257486 0
M  V30 30 O -5.534024 -3.415148 2.259555 0
M  V30 31 O -4.971282 -4.481510 4.358052 0
M  V30 32 C -3.982087 -2.053688 3.867294 0
M  V30 33 C -3.516887 -1.966368 5.164277 0
M  V30 34 C -3.128830 -0.811264 5.806595 0
M  V30 35 C -3.218615 0.365903 5.071290 0
M  V30 36 C -2.831903 1.642149 5.660524 0
M  V30 37 O -2.893047 2.729389 5.043811 0
M  V30 38 O -2.367246 1.694549 6.970068 0
M  V30 39 C -3.676025 0.332844 3.774579 0
M  V30 40 C -4.055419 -0.854378 3.170123 0
M  V30 41 C -1.072454 -4.055360 1.348494 0
M  V30 42 C -0.411956 -3.598662 0.231635 0
M  V30 43 H 5.513343 -1.531697 -0.366580 0
M  V30 44 H 4.871784 -2.886124 -1.386874 0
M  V30 45 H 4.320044 -2.667735 0.297917 0
M  V30 46 H 3.547467 0.859594 -3.464618 0
M  V30 47 H 5.828016 1.531662 -3.131894 0
M  V30 48 H 6.622889 2.107190 -0.918480 0
M  V30 49 H 5.093616 2.013569 1.052747 0
M  V30 50 H 2.715211 1.310543 0.692742 0
M  V30 51 H 2.032954 3.205978 -1.774643 0
M  V30 52 H -1.928474 4.159540 -3.135612 0
M  V30 53 H -2.438666 1.798867 -3.125153 0
M  V30 54 H 0.539675 -3.223357 -2.355156 0
M  V30 55 H -1.027868 -2.710690 -3.004984 0
M  V30 56 H -3.053775 -2.657959 -1.604513 0
M  V30 57 H -4.165797 -3.457249 0.354882 0
M  V30 58 H -2.777367 -5.386994 2.879009 0
M  V30 59 H -3.431891 -2.863363 5.772039 0
M  V30 60 H -2.773881 -0.793123 6.815903 0
M  V30 61 H -1.901294 2.499718 7.326122 0
M  V30 62 H -3.753249 1.241604 3.184256 0
M  V30 63 H -4.426636 -0.948430 2.145074 0
M  V30 64 H -0.516781 -4.451679 2.183848 0
M  V30 65 H 0.653096 -3.662632 0.245774 0
M  V30 END ATOM
M  V30 BEGIN BOND
M  V30 1 1 1 2
M  V30 2 1 2 3
M  V30 3 2 3 4
M  V30 4 1 3 5
M  V30 5 2 5 6
M  V30 6 1 6 7
M  V30 7 2 7 8
M  V30 8 1 8 9
M  V30 9 2 9 10
M  V30 10 1 10 11
M  V30 11 2 11 12
M  V30 12 1 6 13
M  V30 13 2 13 14
M  V30 14 1 14 15
M  V30 15 1 15 16
M  V30 16 2 15 17
M  V30 17 1 17 18
M  V30 18 2 18 19
M  V30 19 1 19 20
M  V30 20 2 20 21
M  V30 21 1 20 22
M  V30 22 1 22 23
M  V30 23 1 23 24
M  V30 24 2 24 25
M  V30 25 1 25 26
M  V30 26 2 26 27
M  V30 27 1 27 28
M  V30 28 1 28 29
M  V30 29 2 29 30
M  V30 30 2 29 31
M  V30 31 1 29 32
M  V30 32 2 32 33
M  V30 33 1 33 34
M  V30 34 2 34 35
M  V30 35 1 35 36
M  V30 36 2 36 37
M  V30 37 1 36 38
M  V30 38 1 35 39
M  V30 39 2 39 40
M  V30 40 1 27 41
M  V30 41 2 41 42
M  V30 42 1 22 5
M  V30 43 1 42 24
M  V30 44 1 12 7
M  V30 45 1 19 13
M  V30 46 1 40 32
M  V30 47 1 1 43
M  V30 48 1 1 44
M  V30 49 1 1 45
M  V30 50 1 8 46
M  V30 51 1 9 47
M  V30 52 1 10 48
M  V30 53 1 11 49
M  V30 54 1 12 50
M  V30 55 1 14 51
M  V30 56 1 17 52
M  V30 57 1 18 53
M  V30 58 1 23 54
M  V30 59 1 23 55
M  V30 60 1 25 56
M  V30 61 1 26 57
M  V30 62 1 28 58
M  V30 63 1 33 59
M  V30 64 1 34 60
M  V30 65 1 38 61
M  V30 66 1 39 62
M  V30 67 1 40 63
M  V30 68 1 41 64
M  V30 69 1 42 65
M  V30 END BOND
M  V30 END CTAB
M  END
>  <Dataset>  (201) 
ChEMBL_Kinases

>  <Ligand_Instance>  (201) 
nan

>  <PDB_ID>  (201) 
nan

>  <Standardized_SMILES>  (201) 
COC(=O)c1c(-c2ccccc2)c2cc(Br)ccc2c(=O)n1Cc1ccc(NS(=O)(=O)c2ccc(C(=O)O)cc2)cc1

>  <Name>  (201) 
nan

>  <Pocket>  (201) 
nan

>  <ATP_Site>  (201) 
nan

>  <Peripheral>  (201) 
nan

>  <Num_H_Atoms_ProtBoundConf>  (201) 
nan

>  <Num_Resolved_Atoms>  (201) 
nan

>  <Num_Not_Resolved_Atoms>  (201) 
nan

$$$$
CHEMBL260417
     RDKit          3D

  0  0  0  0  0  0  0  0  0  0999 V3000
M  V30 BEGIN CTAB
M  V30 COUNTS 36 39 0 0 0
M  V30 BEGIN ATOM
M  V30 1 O -2.500478 -2.215319 3.179738 0
M  V30 2 C -1.642805 -1.704106 3.961700 0
M  V30 3 N -0.235920 -1.619527 3.656355 0
M  V30 4 C 0.283261 -2.118226 2.427614 0
M  V30 5 N 0.759967 -3.320364 2.059111 0
M  V30 6 N 1.134705 -3.306566 0.790801 0
M  V30 7 C 0.926037 -2.081446 0.238745 0
M  V30 8 N 1.118391 -1.524577 -0.973465 0
M  V30 9 C 0.797740 -0.239278 -1.212176 0
M  V30 10 C 1.076489 0.186569 -2.579743 0
M  V30 11 C 0.718668 -0.626896 -3.642558 0
M  V30 12 C 0.961763 -0.266853 -4.955423 0
M  V30 13 C 1.573068 0.922725 -5.254271 0
M  V30 14 O 1.787913 1.224310 -6.590045 0
M  V30 15 C 1.939004 1.749944 -4.216901 0
M  V30 16 C 1.687664 1.371564 -2.924294 0
M  V30 17 C 0.260089 0.534345 -0.202311 0
M  V30 18 Br -0.157915 2.327668 -0.633749 0
M  V30 19 C 0.046116 0.004917 1.054255 0
M  V30 20 C 0.384409 -1.324280 1.278708 0
M  V30 21 C -2.083998 -1.148574 5.283368 0
M  V30 22 C -1.371900 0.033030 5.840386 0
M  V30 23 C -1.154700 -1.302355 6.451842 0
M  V30 24 H 0.429536 -1.187027 4.338587 0
M  V30 25 H 1.542659 -4.115167 0.250736 0
M  V30 26 H 0.231435 -1.574485 -3.398754 0
M  V30 27 H 0.666845 -0.930285 -5.757325 0
M  V30 28 H 2.250321 2.070263 -6.908972 0
M  V30 29 H 2.430240 2.707218 -4.442863 0
M  V30 30 H 1.984113 2.036333 -2.140378 0
M  V30 31 H -0.373997 0.636603 1.815550 0
M  V30 32 H -3.161990 -1.218117 5.507213 0
M  V30 33 H -0.482838 0.479939 5.320947 0
M  V30 34 H -1.908338 0.757099 6.468595 0
M  V30 35 H -1.534942 -1.537528 7.461314 0
M  V30 36 H -0.166945 -1.808422 6.242643 0
M  V30 END ATOM
M  V30 BEGIN BOND
M  V30 1 2 1 2
M  V30 2 1 2 3
M  V30 3 1 3 4
M  V30 4 2 4 5
M  V30 5 1 5 6
M  V30 6 1 6 7
M  V30 7 2 7 8
M  V30 8 1 8 9
M  V30 9 1 9 10
M  V30 10 2 10 11
M  V30 11 1 11 12
M  V30 12 2 12 13
M  V30 13 1 13 14
M  V30 14 1 13 15
M  V30 15 2 15 16
M  V30 16 2 9 17
M  V30 17 1 17 18
M  V30 18 1 17 19
M  V30 19 2 19 20
M  V30 20 1 2 21
M  V30 21 1 21 22
M  V30 22 1 22 23
M  V30 23 1 20 4
M  V30 24 1 23 21
M  V30 25 1 20 7
M  V30 26 1 16 10
M  V30 27 1 3 24
M  V30 28 1 6 25
M  V30 29 1 11 26
M  V30 30 1 12 27
M  V30 31 1 14 28
M  V30 32 1 15 29
M  V30 33 1 16 30
M  V30 34 1 19 31
M  V30 35 1 21 32
M  V30 36 1 22 33
M  V30 37 1 22 34
M  V30 38 1 23 35
M  V30 39 1 23 36
M  V30 END BOND
M  V30 END CTAB
M  END
>  <Dataset>  (202) 
ChEMBL_Kinases

>  <Ligand_Instance>  (202) 
nan

>  <PDB_ID>  (202) 
nan

>  <Standardized_SMILES>  (202) 
O=C(Nc1n[nH]c2nc(-c3ccc(O)cc3)c(Br)cc12)C1CC1

>  <Name>  (202) 
nan

>  <Pocket>  (202) 
nan

>  <ATP_Site>  (202) 
nan

>  <Peripheral>  (202) 
nan

>  <Num_H_Atoms_ProtBoundConf>  (202) 
nan

>  <Num_Resolved_Atoms>  (202) 
nan

>  <Num_Not_Resolved_Atoms>  (202) 
nan

$$$$
CHEMBL260383
     RDKit          3D

  0  0  0  0  0  0  0  0  0  0999 V3000
M  V30 BEGIN CTAB
M  V30 COUNTS 55 59 0 0 0
M  V30 BEGIN ATOM
M  V30 1 C 2.154439 -4.943641 3.578135 0
M  V30 2 C 2.116236 -3.475253 3.423979 0
M  V30 3 C 2.208254 -2.689965 4.584348 0
M  V30 4 C 2.265991 -1.304687 4.505811 0
M  V30 5 C 2.239075 -0.631089 3.290078 0
M  V30 6 C 2.262188 0.819738 3.244810 0
M  V30 7 O 2.571575 1.591842 4.181442 0
M  V30 8 N 1.889103 1.484324 2.013341 0
M  V30 9 C 1.806837 2.904307 1.718005 0
M  V30 10 C 0.919526 3.154176 0.549095 0
M  V30 11 C 1.325859 3.266448 -0.773025 0
M  V30 12 C 0.506217 3.470731 -1.858225 0
M  V30 13 C -0.868168 3.574813 -1.610409 0
M  V30 14 C -1.327457 3.469240 -0.318261 0
M  V30 15 C -0.458616 3.266676 0.721041 0
M  V30 16 C 2.151702 -1.415600 2.169588 0
M  V30 17 C 2.087382 -2.797678 2.198664 0
M  V30 18 N 2.035127 -3.479348 0.950287 0
M  V30 19 C 0.608211 -3.653984 0.973318 0
M  V30 20 N -0.375066 -4.270887 1.612739 0
M  V30 21 C -1.657410 -4.152953 1.344431 0
M  V30 22 N -2.170294 -3.367024 0.350660 0
M  V30 23 C -1.256132 -2.685846 -0.372715 0
M  V30 24 C 0.109985 -2.835765 -0.058722 0
M  V30 25 C 0.663396 -1.988478 -1.025088 0
M  V30 26 N -0.287102 -1.432844 -1.782612 0
M  V30 27 N -1.483463 -1.851583 -1.392709 0
M  V30 28 C -2.674310 -1.404534 -1.999583 0
M  V30 29 C -3.924056 -1.578940 -1.458462 0
M  V30 30 C -5.036004 -1.078564 -2.107474 0
M  V30 31 C -4.936787 -0.405472 -3.292590 0
M  V30 32 C -3.696561 -0.204516 -3.883731 0
M  V30 33 C -2.606003 -0.710642 -3.216247 0
M  V30 34 H 3.226443 -5.219026 3.256742 0
M  V30 35 H 2.029005 -5.211577 4.648722 0
M  V30 36 H 1.511239 -5.493409 2.917420 0
M  V30 37 H 2.234821 -3.119511 5.583110 0
M  V30 38 H 2.339179 -0.663978 5.385863 0
M  V30 39 H 1.616914 0.918929 1.178629 0
M  V30 40 H 2.801994 3.308481 1.469852 0
M  V30 41 H 1.405954 3.480401 2.588395 0
M  V30 42 H 2.388044 3.188689 -0.984376 0
M  V30 43 H 0.907741 3.539381 -2.857172 0
M  V30 44 H -1.530193 3.734298 -2.449625 0
M  V30 45 H -2.413135 3.563011 -0.214787 0
M  V30 46 H -0.871823 3.195449 1.724349 0
M  V30 47 H 2.141182 -0.951494 1.196479 0
M  V30 48 H 2.641855 -3.818271 0.175276 0
M  V30 49 H -2.246973 -4.766810 2.033220 0
M  V30 50 H 1.702528 -1.760425 -1.205928 0
M  V30 51 H -4.052170 -2.110542 -0.507938 0
M  V30 52 H -6.063933 -1.177347 -1.730109 0
M  V30 53 H -5.788838 0.009470 -3.842367 0
M  V30 54 H -3.558664 0.322437 -4.834710 0
M  V30 55 H -1.639764 -0.552094 -3.683717 0
M  V30 END ATOM
M  V30 BEGIN BOND
M  V30 1 1 1 2
M  V30 2 2 2 3
M  V30 3 1 3 4
M  V30 4 2 4 5
M  V30 5 1 5 6
M  V30 6 2 6 7
M  V30 7 1 6 8
M  V30 8 1 8 9
M  V30 9 1 9 10
M  V30 10 2 10 11
M  V30 11 1 11 12
M  V30 12 2 12 13
M  V30 13 1 13 14
M  V30 14 2 14 15
M  V30 15 1 5 16
M  V30 16 2 16 17
M  V30 17 1 17 18
M  V30 18 1 18 19
M  V30 19 2 19 20
M  V30 20 1 20 21
M  V30 21 2 21 22
M  V30 22 1 22 23
M  V30 23 2 23 24
M  V30 24 1 24 25
M  V30 25 2 25 26
M  V30 26 1 26 27
M  V30 27 1 27 28
M  V30 28 2 28 29
M  V30 29 1 29 30
M  V30 30 2 30 31
M  V30 31 1 31 32
M  V30 32 2 32 33
M  V30 33 1 17 2
M  V30 34 1 24 19
M  V30 35 1 33 28
M  V30 36 1 15 10
M  V30 37 1 27 23
M  V30 38 1 1 34
M  V30 39 1 1 35
M  V30 40 1 1 36
M  V30 41 1 3 37
M  V30 42 1 4 38
M  V30 43 1 8 39
M  V30 44 1 9 40
M  V30 45 1 9 41
M  V30 46 1 11 42
M  V30 47 1 12 43
M  V30 48 1 13 44
M  V30 49 1 14 45
M  V30 50 1 15 46
M  V30 51 1 16 47
M  V30 52 1 18 48
M  V30 53 1 21 49
M  V30 54 1 25 50
M  V30 55 1 29 51
M  V30 56 1 30 52
M  V30 57 1 31 53
M  V30 58 1 32 54
M  V30 59 1 33 55
M  V30 END BOND
M  V30 END CTAB
M  END
>  <Dataset>  (203) 
ChEMBL_Kinases

>  <Ligand_Instance>  (203) 
nan

>  <PDB_ID>  (203) 
nan

>  <Standardized_SMILES>  (203) 
Cc1ccc(C(=O)NCc2ccccc2)cc1Nc1ncnc2c1cnn2-c1ccccc1

>  <Name>  (203) 
nan

>  <Pocket>  (203) 
nan

>  <ATP_Site>  (203) 
nan

>  <Peripheral>  (203) 
nan

>  <Num_H_Atoms_ProtBoundConf>  (203) 
nan

>  <Num_Resolved_Atoms>  (203) 
nan

>  <Num_Not_Resolved_Atoms>  (203) 
nan

$$$$
CHEMBL260134
     RDKit          3D

  0  0  0  0  0  0  0  0  0  0999 V3000
M  V30 BEGIN CTAB
M  V30 COUNTS 45 48 0 0 0
M  V30 BEGIN ATOM
M  V30 1 C -0.652717 0.244525 7.812331 0
M  V30 2 N -0.226196 0.421949 6.440074 0
M  V30 3 C 0.992246 -0.204065 6.075467 0
M  V30 4 O 1.678878 -0.887126 6.906721 0
M  V30 5 C 1.543026 -0.111441 4.731242 0
M  V30 6 C 2.732056 -0.725946 4.413095 0
M  V30 7 C 3.338126 -0.699839 3.175782 0
M  V30 8 C 2.656886 0.013516 2.212967 0
M  V30 9 C 3.284965 0.066199 0.851849 0
M  V30 10 C 1.442082 0.679254 2.417729 0
M  V30 11 N 0.797393 1.407382 1.394210 0
M  V30 12 C 0.207802 1.203429 0.130030 0
M  V30 13 N -0.220094 2.290990 -0.548974 0
M  V30 14 C -0.796908 2.193035 -1.753902 0
M  V30 15 N -0.970457 0.999390 -2.332057 0
M  V30 16 C -0.583548 -0.126306 -1.743687 0
M  V30 17 C 0.006751 0.002423 -0.504843 0
M  V30 18 C 0.307174 -1.270981 -0.107403 0
M  V30 19 N -0.093594 -2.106269 -1.080186 0
M  V30 20 N -0.634657 -1.426223 -2.077168 0
M  V30 21 C -1.173587 -1.965848 -3.284114 0
M  V30 22 C -0.420857 -2.154912 -4.424860 0
M  V30 23 Cl 1.265978 -1.726450 -4.425575 0
M  V30 24 C -0.973054 -2.680450 -5.579551 0
M  V30 25 C -2.313166 -3.037189 -5.627593 0
M  V30 26 C -3.064328 -2.847192 -4.485358 0
M  V30 27 C -2.521498 -2.323805 -3.329812 0
M  V30 28 Cl -3.560827 -2.123042 -1.934626 0
M  V30 29 C 0.933339 0.577220 3.710767 0
M  V30 30 H -0.113558 0.897118 8.532794 0
M  V30 31 H -1.740769 0.531456 7.881803 0
M  V30 32 H -0.610359 -0.810020 8.147910 0
M  V30 33 H -0.777126 0.975459 5.756021 0
M  V30 34 H 3.272035 -1.292594 5.180250 0
M  V30 35 H 4.273666 -1.190843 2.950381 0
M  V30 36 H 2.797274 0.859155 0.228211 0
M  V30 37 H 4.374810 0.267159 0.939181 0
M  V30 38 H 3.147938 -0.902318 0.336215 0
M  V30 39 H 0.819150 2.370843 1.793815 0
M  V30 40 H -1.107810 3.136507 -2.218956 0
M  V30 41 H 0.772856 -1.569039 0.811303 0
M  V30 42 H -0.376677 -2.827159 -6.474268 0
M  V30 43 H -2.779402 -3.454325 -6.522598 0
M  V30 44 H -4.110278 -3.129004 -4.532747 0
M  V30 45 H 0.005871 1.082372 3.878277 0
M  V30 END ATOM
M  V30 BEGIN BOND
M  V30 1 1 1 2
M  V30 2 1 2 3
M  V30 3 2 3 4
M  V30 4 1 3 5
M  V30 5 2 5 6
M  V30 6 1 6 7
M  V30 7 2 7 8
M  V30 8 1 8 9
M  V30 9 1 8 10
M  V30 10 1 10 11
M  V30 11 1 11 12
M  V30 12 2 12 13
M  V30 13 1 13 14
M  V30 14 2 14 15
M  V30 15 1 15 16
M  V30 16 2 16 17
M  V30 17 1 17 18
M  V30 18 2 18 19
M  V30 19 1 19 20
M  V30 20 1 20 21
M  V30 21 2 21 22
M  V30 22 1 22 23
M  V30 23 1 22 24
M  V30 24 2 24 25
M  V30 25 1 25 26
M  V30 26 2 26 27
M  V30 27 1 27 28
M  V30 28 2 10 29
M  V30 29 1 29 5
M  V30 30 1 17 12
M  V30 31 1 27 21
M  V30 32 1 20 16
M  V30 33 1 1 30
M  V30 34 1 1 31
M  V30 35 1 1 32
M  V30 36 1 2 33
M  V30 37 1 6 34
M  V30 38 1 7 35
M  V30 39 1 9 36
M  V30 40 1 9 37
M  V30 41 1 9 38
M  V30 42 1 11 39
M  V30 43 1 14 40
M  V30 44 1 18 41
M  V30 45 1 24 42
M  V30 46 1 25 43
M  V30 47 1 26 44
M  V30 48 1 29 45
M  V30 END BOND
M  V30 END CTAB
M  END
>  <Dataset>  (204) 
ChEMBL_Kinases

>  <Ligand_Instance>  (204) 
nan

>  <PDB_ID>  (204) 
nan

>  <Standardized_SMILES>  (204) 
CNC(=O)c1ccc(C)c(Nc2ncnc3c2cnn3-c2c(Cl)cccc2Cl)c1

>  <Name>  (204) 
nan

>  <Pocket>  (204) 
nan

>  <ATP_Site>  (204) 
nan

>  <Peripheral>  (204) 
nan

>  <Num_H_Atoms_ProtBoundConf>  (204) 
nan

>  <Num_Resolved_Atoms>  (204) 
nan

>  <Num_Not_Resolved_Atoms>  (204) 
nan

$$$$
CHEMBL260126
     RDKit          3D

  0  0  0  0  0  0  0  0  0  0999 V3000
M  V30 BEGIN CTAB
M  V30 COUNTS 53 56 0 0 0
M  V30 BEGIN ATOM
M  V30 1 C 6.223358 -3.913526 2.353135 0
M  V30 2 O 5.254453 -2.909098 2.060220 0
M  V30 3 C 4.802078 -2.000081 2.982229 0
M  V30 4 O 5.275541 -2.067040 4.145160 0
M  V30 5 C 3.812323 -0.966395 2.701422 0
M  V30 6 C 3.452743 -0.121219 3.729264 0
M  V30 7 C 2.519172 0.861047 3.481880 0
M  V30 8 C 1.975744 0.969463 2.223442 0
M  V30 9 C 2.274259 0.177143 1.152436 0
M  V30 10 C 1.723212 0.252263 -0.223991 0
M  V30 11 N 0.511874 -0.477118 -0.426284 0
M  V30 12 C -0.714634 0.058871 -0.308846 0
M  V30 13 C -0.921412 1.434974 -0.042660 0
M  V30 14 O -2.020272 2.030030 0.098347 0
M  V30 15 O -0.358448 2.642864 0.170189 0
M  V30 16 C -1.137879 3.800351 0.408902 0
M  V30 17 C -1.898392 -0.667095 -0.475736 0
M  V30 18 C -3.224763 -0.073454 -0.343988 0
M  V30 19 C -3.750140 -0.119470 0.943880 0
M  V30 20 C -5.010576 0.433447 1.118321 0
M  V30 21 C -5.700018 0.994727 0.076120 0
M  V30 22 C -5.140414 1.019611 -1.189591 0
M  V30 23 C -3.894985 0.484029 -1.409218 0
M  V30 24 C -1.838288 -2.010104 -0.779777 0
M  V30 25 C -2.973860 -2.762367 -0.952761 0
M  V30 26 C -2.938539 -4.102169 -1.256500 0
M  V30 27 Br -4.489687 -5.167145 -1.501273 0
M  V30 28 C -1.697795 -4.663097 -1.381071 0
M  V30 29 C -0.553056 -3.917599 -1.209590 0
M  V30 30 C -0.582165 -2.566712 -0.903312 0
M  V30 31 C 0.537057 -1.790335 -0.724523 0
M  V30 32 O 1.601468 -2.443049 -0.870956 0
M  V30 33 C 3.228927 -0.803146 1.462897 0
M  V30 34 H 6.720319 -3.746522 3.313696 0
M  V30 35 H 5.794539 -4.930896 2.241840 0
M  V30 36 H 6.996892 -3.828403 1.559799 0
M  V30 37 H 3.881796 -0.214375 4.704872 0
M  V30 38 H 2.235024 1.522714 4.278910 0
M  V30 39 H 1.266217 1.744062 2.100200 0
M  V30 40 H 2.487559 -0.239481 -0.886489 0
M  V30 41 H 1.694684 1.289098 -0.606378 0
M  V30 42 H -1.769325 4.082532 -0.457674 0
M  V30 43 H -1.723365 3.734623 1.358247 0
M  V30 44 H -0.467927 4.690632 0.576146 0
M  V30 45 H -3.212905 -0.561798 1.777828 0
M  V30 46 H -5.439146 0.408809 2.112185 0
M  V30 47 H -6.667707 1.400455 0.292519 0
M  V30 48 H -5.667529 1.454093 -2.009948 0
M  V30 49 H -3.383811 0.459537 -2.357843 0
M  V30 50 H -3.935953 -2.285024 -0.846551 0
M  V30 51 H -1.577244 -5.701842 -1.616371 0
M  V30 52 H 0.415970 -4.392095 -1.315136 0
M  V30 53 H 3.591094 -1.518703 0.739984 0
M  V30 END ATOM
M  V30 BEGIN BOND
M  V30 1 1 1 2
M  V30 2 1 2 3
M  V30 3 2 3 4
M  V30 4 1 3 5
M  V30 5 2 5 6
M  V30 6 1 6 7
M  V30 7 2 7 8
M  V30 8 1 8 9
M  V30 9 1 9 10
M  V30 10 1 10 11
M  V30 11 1 11 12
M  V30 12 1 12 13
M  V30 13 2 13 14
M  V30 14 1 13 15
M  V30 15 1 15 16
M  V30 16 2 12 17
M  V30 17 1 17 18
M  V30 18 2 18 19
M  V30 19 1 19 20
M  V30 20 2 20 21
M  V30 21 1 21 22
M  V30 22 2 22 23
M  V30 23 1 17 24
M  V30 24 2 24 25
M  V30 25 1 25 26
M  V30 26 1 26 27
M  V30 27 2 26 28
M  V30 28 1 28 29
M  V30 29 2 29 30
M  V30 30 1 30 31
M  V30 31 2 31 32
M  V30 32 2 9 33
M  V30 33 1 33 5
M  V30 34 1 31 11
M  V30 35 1 23 18
M  V30 36 1 30 24
M  V30 37 1 1 34
M  V30 38 1 1 35
M  V30 39 1 1 36
M  V30 40 1 6 37
M  V30 41 1 7 38
M  V30 42 1 8 39
M  V30 43 1 10 40
M  V30 44 1 10 41
M  V30 45 1 16 42
M  V30 46 1 16 43
M  V30 47 1 16 44
M  V30 48 1 19 45
M  V30 49 1 20 46
M  V30 50 1 21 47
M  V30 51 1 22 48
M  V30 52 1 23 49
M  V30 53 1 25 50
M  V30 54 1 28 51
M  V30 55 1 29 52
M  V30 56 1 33 53
M  V30 END BOND
M  V30 END CTAB
M  END
>  <Dataset>  (205) 
ChEMBL_Kinases

>  <Ligand_Instance>  (205) 
nan

>  <PDB_ID>  (205) 
nan

>  <Standardized_SMILES>  (205) 
COC(=O)c1cccc(Cn2c(C(=O)OC)c(-c3ccccc3)c3cc(Br)ccc3c2=O)c1

>  <Name>  (205) 
nan

>  <Pocket>  (205) 
nan

>  <ATP_Site>  (205) 
nan

>  <Peripheral>  (205) 
nan

>  <Num_H_Atoms_ProtBoundConf>  (205) 
nan

>  <Num_Resolved_Atoms>  (205) 
nan

>  <Num_Not_Resolved_Atoms>  (205) 
nan

$$$$
CHEMBL260028
     RDKit          3D

  0  0  0  0  0  0  0  0  0  0999 V3000
M  V30 BEGIN CTAB
M  V30 COUNTS 26 28 0 0 0
M  V30 BEGIN ATOM
M  V30 1 Cl -0.227827 -6.015185 4.437890 0
M  V30 2 C -0.159484 -4.465411 3.620929 0
M  V30 3 C -0.463614 -3.330261 4.361656 0
M  V30 4 C -0.427983 -2.063945 3.770531 0
M  V30 5 C -0.081281 -2.029936 2.447454 0
M  V30 6 C -0.046191 -0.704229 1.836817 0
M  V30 7 N 0.263549 -0.397890 0.555207 0
M  V30 8 C 0.185633 0.932603 0.370154 0
M  V30 9 C 0.412325 1.784151 -0.794033 0
M  V30 10 C -0.239589 1.456909 -1.980647 0
M  V30 11 C -0.045675 2.246638 -3.107594 0
M  V30 12 C 0.785236 3.348245 -3.058248 0
M  V30 13 C 1.417556 3.644110 -1.861252 0
M  V30 14 N 1.225152 2.869185 -0.761581 0
M  V30 15 N -0.180648 1.426957 1.576887 0
M  V30 16 O -0.314947 0.444760 2.438786 0
M  V30 17 C 0.229847 -3.120740 1.664287 0
M  V30 18 C 0.189679 -4.380722 2.270284 0
M  V30 19 Cl 0.559191 -5.845352 1.401211 0
M  V30 20 H -0.730652 -3.426459 5.405935 0
M  V30 21 H -0.664347 -1.178887 4.345196 0
M  V30 22 H -0.896448 0.604871 -2.059889 0
M  V30 23 H -0.541655 2.002214 -4.020042 0
M  V30 24 H 0.950602 3.982385 -3.935258 0
M  V30 25 H 2.078366 4.521288 -1.824295 0
M  V30 26 H 0.499163 -3.042228 0.617759 0
M  V30 END ATOM
M  V30 BEGIN BOND
M  V30 1 1 1 2
M  V30 2 2 2 3
M  V30 3 1 3 4
M  V30 4 2 4 5
M  V30 5 1 5 6
M  V30 6 2 6 7
M  V30 7 1 7 8
M  V30 8 1 8 9
M  V30 9 2 9 10
M  V30 10 1 10 11
M  V30 11 2 11 12
M  V30 12 1 12 13
M  V30 13 2 13 14
M  V30 14 2 8 15
M  V30 15 1 15 16
M  V30 16 1 5 17
M  V30 17 2 17 18
M  V30 18 1 18 19
M  V30 19 1 18 2
M  V30 20 1 16 6
M  V30 21 1 14 9
M  V30 22 1 3 20
M  V30 23 1 4 21
M  V30 24 1 10 22
M  V30 25 1 11 23
M  V30 26 1 12 24
M  V30 27 1 13 25
M  V30 28 1 17 26
M  V30 END BOND
M  V30 END CTAB
M  END
>  <Dataset>  (206) 
ChEMBL_Kinases

>  <Ligand_Instance>  (206) 
nan

>  <PDB_ID>  (206) 
nan

>  <Standardized_SMILES>  (206) 
Clc1ccc(-c2nc(-c3ccccn3)no2)cc1Cl

>  <Name>  (206) 
nan

>  <Pocket>  (206) 
nan

>  <ATP_Site>  (206) 
nan

>  <Peripheral>  (206) 
nan

>  <Num_H_Atoms_ProtBoundConf>  (206) 
nan

>  <Num_Resolved_Atoms>  (206) 
nan

>  <Num_Not_Resolved_Atoms>  (206) 
nan

$$$$
CHEMBL268202
     RDKit          3D

  0  0  0  0  0  0  0  0  0  0999 V3000
M  V30 BEGIN CTAB
M  V30 COUNTS 82 89 0 0 0
M  V30 BEGIN ATOM
M  V30 1 C -0.224407 0.633580 0.750871 0
M  V30 2 C 1.126620 0.845271 0.606729 0
M  V30 3 C 1.644588 2.187191 0.794604 0
M  V30 4 N 2.962071 2.320796 1.004668 0
M  V30 5 C 3.582199 3.487838 1.166013 0
M  V30 6 C 2.945809 4.708460 1.136321 0
M  V30 7 C 1.592883 4.628797 0.920969 0
M  V30 8 C 1.002318 3.399235 0.760624 0
M  V30 9 N -0.283919 3.659850 0.537429 0
M  V30 10 C -0.575712 4.967041 0.545075 0
M  V30 11 C -1.721588 5.713804 0.372591 0
M  V30 12 C -1.608523 7.099245 0.457345 0
M  V30 13 C -0.405937 7.701800 0.702721 0
M  V30 14 C 0.750714 6.976342 0.878191 0
M  V30 15 C 0.629560 5.604666 0.792598 0
M  V30 16 C 2.135405 -0.211762 0.201218 0
M  V30 17 C 3.055566 0.245203 -0.917100 0
M  V30 18 C 3.064415 -0.521288 -2.230940 0
M  V30 19 N 1.809330 -0.555643 -2.860195 0
M  V30 20 C 1.236731 -1.660509 -3.544367 0
M  V30 21 C -0.036757 -1.224210 -4.204748 0
M  V30 22 C -1.131669 -2.305971 -4.392336 0
M  V30 23 C -1.520020 -2.917054 -3.145305 0
M  V30 24 C -2.397939 -3.770358 -2.470118 0
M  V30 25 C -2.978739 -2.903050 -1.521746 0
M  V30 26 C -2.594068 -1.549118 -1.536736 0
M  V30 27 C -1.839087 -0.653596 -0.755460 0
M  V30 28 C -0.823170 -0.457321 0.042299 0
M  V30 29 C -0.030108 -1.618623 0.181699 0 CFG=2
M  V30 30 N 0.649689 -1.949758 1.402920 0
M  V30 31 C -0.079349 -2.073634 2.576619 0
M  V30 32 C -1.161013 -3.080883 2.665439 0
M  V30 33 C -0.642050 -4.225383 3.524380 0
M  V30 34 C -0.485905 -5.453473 2.684673 0
M  V30 35 C -0.105446 -5.193653 1.275235 0
M  V30 36 C 0.633019 -4.269833 0.662244 0
M  V30 37 C 1.447302 -3.059559 0.956138 0 CFG=1
M  V30 38 C 1.961647 -2.508273 -0.406797 0
M  V30 39 C 1.310924 -1.250392 -0.547340 0 CFG=2
M  V30 40 C 0.958451 -0.426209 -1.670225 0
M  V30 41 H -0.956950 1.165916 1.317604 0
M  V30 42 H 4.659774 3.440586 1.330215 0
M  V30 43 H 3.494121 5.606504 1.273003 0
M  V30 44 H -1.042095 2.990957 0.340793 0
M  V30 45 H -2.658641 5.197025 0.178846 0
M  V30 46 H -2.549905 7.611694 0.311095 0
M  V30 47 H -0.414297 8.800362 0.752258 0
M  V30 48 H 1.695236 7.482419 1.072515 0
M  V30 49 H 2.641037 -0.642531 1.066236 0
M  V30 50 H 4.099927 0.156778 -0.509518 0
M  V30 51 H 2.865993 1.307583 -1.123172 0
M  V30 52 H 3.683227 -1.423211 -2.236639 0
M  V30 53 H 3.676690 0.180630 -2.876071 0
M  V30 54 H 1.017972 -2.567787 -3.008833 0
M  V30 55 H 2.016399 -1.974216 -4.314330 0
M  V30 56 H -0.505710 -0.301225 -3.862121 0
M  V30 57 H 0.232123 -0.978915 -5.255442 0
M  V30 58 H -0.753942 -2.965227 -5.177676 0
M  V30 59 H -1.955527 -1.734873 -4.818007 0
M  V30 60 H -0.601662 -3.789736 -3.144134 0
M  V30 61 H -0.832546 -2.392388 -2.302485 0
M  V30 62 H -2.673144 -4.811796 -2.531172 0
M  V30 63 H -3.670378 -3.451421 -0.894379 0
M  V30 64 H -3.703227 -1.103885 -1.390526 0
M  V30 65 H -2.621686 -1.131184 -2.661885 0
M  V30 66 H -2.222335 0.394539 -0.766709 0
M  V30 67 H -0.315620 -2.573884 -0.234315 0
M  V30 68 H 0.661143 -2.190596 3.414861 0
M  V30 69 H -0.533624 -1.063354 2.790362 0
M  V30 70 H -1.560269 -3.454263 1.724202 0
M  V30 71 H -2.055349 -2.669896 3.220075 0
M  V30 72 H -1.333429 -4.472034 4.365853 0
M  V30 73 H 0.350815 -3.995653 3.982517 0
M  V30 74 H 0.179117 -6.207755 3.172115 0
M  V30 75 H -1.500788 -5.935002 2.656591 0
M  V30 76 H -0.546480 -5.951993 0.602308 0
M  V30 77 H 0.599683 -4.529007 -0.412295 0
M  V30 78 H 2.247628 -3.372811 1.617202 0
M  V30 79 H 3.066794 -2.366003 -0.153214 0
M  V30 80 H 1.882156 -3.332463 -1.093903 0
M  V30 81 H 1.039225 0.684049 -1.478434 0
M  V30 82 H 0.008754 -0.563093 -1.988457 0
M  V30 END ATOM
M  V30 BEGIN BOND
M  V30 1 2 1 2
M  V30 2 1 2 3
M  V30 3 2 3 4
M  V30 4 1 4 5
M  V30 5 2 5 6
M  V30 6 1 6 7
M  V30 7 2 7 8
M  V30 8 1 8 9
M  V30 9 1 9 10
M  V30 10 2 10 11
M  V30 11 1 11 12
M  V30 12 2 12 13
M  V30 13 1 13 14
M  V30 14 2 14 15
M  V30 15 1 2 16
M  V30 16 1 16 17
M  V30 17 1 17 18
M  V30 18 1 18 19
M  V30 19 1 19 20
M  V30 20 1 20 21
M  V30 21 1 21 22
M  V30 22 1 22 23
M  V30 23 1 23 24
M  V30 24 2 24 25
M  V30 25 1 25 26
M  V30 26 1 26 27
M  V30 27 2 27 28
M  V30 28 1 28 29
M  V30 29 1 29 30
M  V30 30 1 30 31
M  V30 31 1 31 32
M  V30 32 1 32 33
M  V30 33 1 33 34
M  V30 34 1 34 35
M  V30 35 2 35 36
M  V30 36 1 36 37
M  V30 37 1 37 38
M  V30 38 1 39 38 CFG=3
M  V30 39 1 39 40
M  V30 40 1 28 1
M  V30 41 1 39 29
M  V30 42 1 8 3
M  V30 43 1 15 10
M  V30 44 1 39 16
M  V30 45 1 15 7
M  V30 46 1 40 19
M  V30 47 1 37 30
M  V30 48 1 1 41
M  V30 49 1 5 42
M  V30 50 1 6 43
M  V30 51 1 9 44
M  V30 52 1 11 45
M  V30 53 1 12 46
M  V30 54 1 13 47
M  V30 55 1 14 48
M  V30 56 1 16 49
M  V30 57 1 17 50
M  V30 58 1 17 51
M  V30 59 1 18 52
M  V30 60 1 18 53
M  V30 61 1 20 54
M  V30 62 1 20 55
M  V30 63 1 21 56
M  V30 64 1 21 57
M  V30 65 1 22 58
M  V30 66 1 22 59
M  V30 67 1 23 60
M  V30 68 1 23 61
M  V30 69 1 24 62
M  V30 70 1 25 63
M  V30 71 1 26 64
M  V30 72 1 26 65
M  V30 73 1 27 66
M  V30 74 1 29 67 CFG=3
M  V30 75 1 31 68
M  V30 76 1 31 69
M  V30 77 1 32 70
M  V30 78 1 32 71
M  V30 79 1 33 72
M  V30 80 1 33 73
M  V30 81 1 34 74
M  V30 82 1 34 75
M  V30 83 1 35 76
M  V30 84 1 36 77
M  V30 85 1 37 78 CFG=1
M  V30 86 1 38 79
M  V30 87 1 38 80
M  V30 88 1 40 81
M  V30 89 1 40 82
M  V30 END BOND
M  V30 END CTAB
M  END
>  <Dataset>  (207) 
ChEMBL_Kinases

>  <Ligand_Instance>  (207) 
nan

>  <PDB_ID>  (207) 
nan

>  <Standardized_SMILES>  (207) 
C1=C(c2nccc3c2[nH]c2ccccc23)C2CCN3CCCC/C=C\C/C=C/1[C@@H]1N4CCCC/C=C\[C@H]4C[C@]21C3

>  <Name>  (207) 
12,13-DEHYDROMANZAMINE A

>  <Pocket>  (207) 
nan

>  <ATP_Site>  (207) 
nan

>  <Peripheral>  (207) 
nan

>  <Num_H_Atoms_ProtBoundConf>  (207) 
nan

>  <Num_Resolved_Atoms>  (207) 
nan

>  <Num_Not_Resolved_Atoms>  (207) 
nan

$$$$
CHEMBL259223
     RDKit          3D

  0  0  0  0  0  0  0  0  0  0999 V3000
M  V30 BEGIN CTAB
M  V30 COUNTS 73 74 0 0 0
M  V30 BEGIN ATOM
M  V30 1 C 2.142848 0.339089 3.352161 0
M  V30 2 C 1.180218 -0.772553 3.569618 0
M  V30 3 C -0.188467 -1.027457 4.149725 0
M  V30 4 C 1.770186 -1.860981 3.088971 0
M  V30 5 C 3.050027 -2.166634 2.450762 0
M  V30 6 C 2.984945 -2.800487 1.095307 0
M  V30 7 C 2.315850 -1.894525 0.134167 0
M  V30 8 C 0.974824 -1.312983 0.086674 0
M  V30 9 C 2.932970 -1.431156 -0.979429 0
M  V30 10 C 2.874144 -0.643105 -2.157916 0
M  V30 11 C 1.796875 0.157473 -2.700143 0
M  V30 12 C 1.243744 1.308346 -1.972549 0
M  V30 13 C 0.202969 2.086835 -2.760240 0
M  V30 14 C 1.376664 1.918064 -0.812373 0
M  V30 15 C 0.807681 3.082409 -0.112992 0
M  V30 16 C -0.033844 2.765056 1.063433 0
M  V30 17 C -1.293791 2.035478 0.802381 0
M  V30 18 C -2.291801 2.743338 -0.090145 0
M  V30 19 C -1.819551 0.868215 1.172654 0
M  V30 20 C -3.081236 0.157888 0.904168 0
M  V30 21 C -2.886804 -1.154189 0.261579 0
M  V30 22 C -3.268205 -2.237752 0.959598 0
M  V30 23 C -3.855724 -2.033055 2.325729 0
M  V30 24 C -3.136421 -3.606453 0.423924 0
M  V30 25 O -3.503447 -4.602519 1.105352 0
M  V30 26 C -2.588348 -3.861703 -0.887440 0
M  V30 27 C -2.426926 -5.097530 -1.469533 0
M  V30 28 C -1.888464 -5.240133 -2.740219 0
M  V30 29 C -1.498996 -4.119446 -3.452902 0
M  V30 30 C -1.650516 -2.882107 -2.893436 0
M  V30 31 C -2.194116 -2.765013 -1.615151 0
M  V30 32 C -2.341531 -1.442501 -1.050356 0
M  V30 33 O -1.979615 -0.444690 -1.721728 0
M  V30 34 H 1.700642 1.280204 3.746106 0
M  V30 35 H 2.387219 0.456184 2.296353 0
M  V30 36 H 3.043372 0.148817 3.966505 0
M  V30 37 H -0.746253 -1.679413 3.461618 0
M  V30 38 H -0.145895 -1.505430 5.141087 0
M  V30 39 H -0.721773 -0.048009 4.195971 0
M  V30 40 H 1.329519 -2.875209 3.085244 0
M  V30 41 H 3.705187 -2.763440 3.150819 0
M  V30 42 H 3.613870 -1.182011 2.356449 0
M  V30 43 H 4.021292 -3.031707 0.778327 0
M  V30 44 H 2.372412 -3.730028 1.198544 0
M  V30 45 H 0.306314 -2.082711 0.595302 0
M  V30 46 H 0.501693 -1.279045 -0.916996 0
M  V30 47 H 0.817227 -0.437265 0.719274 0
M  V30 48 H 3.981370 -1.862561 -0.972956 0
M  V30 49 H 3.141426 -1.375825 -3.021358 0
M  V30 50 H 3.832757 0.006144 -2.299260 0
M  V30 51 H 2.143194 0.627770 -3.688013 0
M  V30 52 H 0.939894 -0.461082 -3.154144 0
M  V30 53 H -0.807169 1.916667 -2.410015 0
M  V30 54 H 0.305631 1.822272 -3.830384 0
M  V30 55 H 0.447359 3.191576 -2.741463 0
M  V30 56 H 2.146079 1.347848 -0.250137 0
M  V30 57 H 0.325864 3.806237 -0.812506 0
M  V30 58 H 1.712072 3.651122 0.278653 0
M  V30 59 H -0.282299 3.729143 1.606119 0
M  V30 60 H 0.503444 2.174986 1.844214 0
M  V30 61 H -3.136547 3.087673 0.565615 0
M  V30 62 H -1.849494 3.645239 -0.504379 0
M  V30 63 H -2.635964 2.082608 -0.882196 0
M  V30 64 H -1.103303 0.363122 1.834428 0
M  V30 65 H -3.726350 0.744860 0.178973 0
M  V30 66 H -3.722637 0.081684 1.810738 0
M  V30 67 H -3.143060 -1.473473 2.991886 0
M  V30 68 H -3.987193 -3.021500 2.794651 0
M  V30 69 H -4.834479 -1.550992 2.310916 0
M  V30 70 H -2.737610 -5.951048 -0.894327 0
M  V30 71 H -1.759825 -6.207941 -3.201410 0
M  V30 72 H -1.074795 -4.226865 -4.453092 0
M  V30 73 H -1.348596 -1.989445 -3.441679 0
M  V30 END ATOM
M  V30 BEGIN BOND
M  V30 1 1 1 2
M  V30 2 1 2 3
M  V30 3 2 2 4 CFG=2
M  V30 4 1 4 5
M  V30 5 1 5 6
M  V30 6 1 6 7
M  V30 7 1 7 8
M  V30 8 2 7 9
M  V30 9 1 9 10
M  V30 10 1 10 11
M  V30 11 1 11 12
M  V30 12 1 12 13
M  V30 13 2 12 14
M  V30 14 1 14 15
M  V30 15 1 15 16
M  V30 16 1 16 17
M  V30 17 1 17 18
M  V30 18 2 17 19
M  V30 19 1 19 20
M  V30 20 1 20 21
M  V30 21 2 21 22
M  V30 22 1 22 23
M  V30 23 1 22 24
M  V30 24 2 24 25
M  V30 25 1 24 26
M  V30 26 2 26 27
M  V30 27 1 27 28
M  V30 28 2 28 29
M  V30 29 1 29 30
M  V30 30 2 30 31
M  V30 31 1 31 32
M  V30 32 2 32 33
M  V30 33 1 32 21
M  V30 34 1 31 26
M  V30 35 1 1 34
M  V30 36 1 1 35
M  V30 37 1 1 36
M  V30 38 1 3 37
M  V30 39 1 3 38
M  V30 40 1 3 39
M  V30 41 1 4 40
M  V30 42 1 5 41
M  V30 43 1 5 42
M  V30 44 1 6 43
M  V30 45 1 6 44
M  V30 46 1 8 45
M  V30 47 1 8 46
M  V30 48 1 8 47
M  V30 49 1 9 48
M  V30 50 1 10 49
M  V30 51 1 10 50
M  V30 52 1 11 51
M  V30 53 1 11 52
M  V30 54 1 13 53
M  V30 55 1 13 54
M  V30 56 1 13 55
M  V30 57 1 14 56
M  V30 58 1 15 57
M  V30 59 1 15 58
M  V30 60 1 16 59
M  V30 61 1 16 60
M  V30 62 1 18 61
M  V30 63 1 18 62
M  V30 64 1 18 63
M  V30 65 1 19 64
M  V30 66 1 20 65
M  V30 67 1 20 66
M  V30 68 1 23 67
M  V30 69 1 23 68
M  V30 70 1 23 69
M  V30 71 1 27 70
M  V30 72 1 28 71
M  V30 73 1 29 72
M  V30 74 1 30 73
M  V30 END BOND
M  V30 END CTAB
M  END
>  <Dataset>  (208) 
ChEMBL_Kinases

>  <Ligand_Instance>  (208) 
nan

>  <PDB_ID>  (208) 
nan

>  <Standardized_SMILES>  (208) 
CC(C)=CCC/C(C)=C/CC/C(C)=C/CC/C(C)=C/CC1=C(C)C(=O)c2ccccc2C1=O

>  <Name>  (208) 
MENATETRENONE

>  <Pocket>  (208) 
nan

>  <ATP_Site>  (208) 
nan

>  <Peripheral>  (208) 
nan

>  <Num_H_Atoms_ProtBoundConf>  (208) 
nan

>  <Num_Resolved_Atoms>  (208) 
nan

>  <Num_Not_Resolved_Atoms>  (208) 
nan

$$$$
CHEMBL259244
     RDKit          3D

  0  0  0  0  0  0  0  0  0  0999 V3000
M  V30 BEGIN CTAB
M  V30 COUNTS 28 29 0 0 0
M  V30 BEGIN ATOM
M  V30 1 C -1.684306 -2.992452 0.383597 0
M  V30 2 C -0.746646 -3.329157 1.489021 0
M  V30 3 C -0.006959 -2.128218 2.028446 0
M  V30 4 C 0.937790 -2.520427 3.154283 0
M  V30 5 O 0.780700 -1.501666 1.044986 0
M  V30 6 C 0.637490 -0.170580 0.677050 0
M  V30 7 N -0.265758 0.705048 1.201640 0
M  V30 8 C -0.302625 1.973141 0.756771 0
M  V30 9 N -1.259105 2.881993 1.319225 0
M  V30 10 N 0.537342 2.417029 -0.207113 0
M  V30 11 C 1.438029 1.563831 -0.737764 0
M  V30 12 N 2.371894 1.736671 -1.688057 0
M  V30 13 C 3.012347 0.570375 -1.853639 0
M  V30 14 N 2.496436 -0.347153 -1.017623 0
M  V30 15 C 1.522107 0.247588 -0.319413 0
M  V30 16 H -1.309041 -2.054192 -0.094761 0
M  V30 17 H -1.789342 -3.769883 -0.399970 0
M  V30 18 H -2.690854 -2.819437 0.802392 0
M  V30 19 H -0.000836 -4.086505 1.167634 0
M  V30 20 H -1.328243 -3.795423 2.310225 0
M  V30 21 H -0.717791 -1.368321 2.414328 0
M  V30 22 H 0.391230 -2.488588 4.139392 0
M  V30 23 H 1.346100 -3.525899 3.032536 0
M  V30 24 H 1.722304 -1.730032 3.270522 0
M  V30 25 H -1.353791 3.263305 2.287517 0
M  V30 26 H -1.981342 3.226694 0.673945 0
M  V30 27 H 2.624050 2.570457 -2.242465 0
M  V30 28 H 3.824424 0.218815 -2.490094 0
M  V30 END ATOM
M  V30 BEGIN BOND
M  V30 1 1 1 2
M  V30 2 1 2 3
M  V30 3 1 3 4
M  V30 4 1 3 5
M  V30 5 1 5 6
M  V30 6 2 6 7
M  V30 7 1 7 8
M  V30 8 1 8 9
M  V30 9 2 8 10
M  V30 10 1 10 11
M  V30 11 1 11 12
M  V30 12 1 12 13
M  V30 13 2 13 14
M  V30 14 1 14 15
M  V30 15 1 15 6
M  V30 16 2 15 11
M  V30 17 1 1 16
M  V30 18 1 1 17
M  V30 19 1 1 18
M  V30 20 1 2 19
M  V30 21 1 2 20
M  V30 22 1 3 21
M  V30 23 1 4 22
M  V30 24 1 4 23
M  V30 25 1 4 24
M  V30 26 1 9 25
M  V30 27 1 9 26
M  V30 28 1 12 27
M  V30 29 1 13 28
M  V30 END BOND
M  V30 END CTAB
M  END
>  <Dataset>  (209) 
ChEMBL_Kinases

>  <Ligand_Instance>  (209) 
nan

>  <PDB_ID>  (209) 
nan

>  <Standardized_SMILES>  (209) 
CCC(C)Oc1nc(N)nc2[nH]cnc12

>  <Name>  (209) 
nan

>  <Pocket>  (209) 
nan

>  <ATP_Site>  (209) 
nan

>  <Peripheral>  (209) 
nan

>  <Num_H_Atoms_ProtBoundConf>  (209) 
nan

>  <Num_Resolved_Atoms>  (209) 
nan

>  <Num_Not_Resolved_Atoms>  (209) 
nan

$$$$
CHEMBL259265
     RDKit          3D

  0  0  0  0  0  0  0  0  0  0999 V3000
M  V30 BEGIN CTAB
M  V30 COUNTS 42 46 0 0 0
M  V30 BEGIN ATOM
M  V30 1 C 2.885254 -3.567391 1.081025 0
M  V30 2 C 1.820213 -4.086668 1.786524 0
M  V30 3 C 0.584618 -3.455417 1.782803 0
M  V30 4 C 0.367623 -2.285420 1.076282 0
M  V30 5 C 1.426654 -1.756310 0.366259 0
M  V30 6 C 2.666129 -2.405804 0.380828 0
M  V30 7 N 0.952888 -0.569407 -0.264900 0
M  V30 8 C 1.895170 0.416758 -0.735081 0
M  V30 9 N 2.782626 -0.022523 -1.674829 0
M  V30 10 C 3.707550 0.816071 -2.183333 0
M  V30 11 N 3.791801 2.089993 -1.794654 0
M  V30 12 C 2.928918 2.560474 -0.865174 0
M  V30 13 N 2.741901 3.770470 -0.261245 0
M  V30 14 C 1.701873 3.673843 0.617961 0
M  V30 15 C 1.200483 2.379949 0.588744 0
M  V30 16 C 1.973723 1.726478 -0.328388 0
M  V30 17 C -0.496914 -0.621096 -0.297133 0
M  V30 18 C -0.817396 -1.439413 0.912380 0
M  V30 19 C -0.919947 -0.541162 2.143053 0
M  V30 20 C -1.894476 -1.208582 3.090371 0
M  V30 21 N -3.229277 -1.003974 2.568063 0
M  V30 22 C -3.228852 -1.282969 1.161348 0
M  V30 23 C -2.096722 -2.226182 0.767997 0
M  V30 24 H 3.846943 -4.050620 1.078527 0
M  V30 25 H 2.011817 -5.004233 2.333378 0
M  V30 26 H -0.155955 -3.954647 2.365440 0
M  V30 27 H 3.472496 -1.966571 -0.184021 0
M  V30 28 H 4.446451 0.554029 -2.928099 0
M  V30 29 H 3.340426 4.616448 -0.480123 0
M  V30 30 H 1.399450 4.517993 1.190456 0
M  V30 31 H 0.390572 2.002661 1.163700 0
M  V30 32 H -0.762418 -1.202519 -1.203411 0
M  V30 33 H -0.955780 0.379780 -0.319988 0
M  V30 34 H -1.313281 0.462225 1.861453 0
M  V30 35 H 0.073559 -0.445183 2.630599 0
M  V30 36 H -1.800130 -0.776390 4.114714 0
M  V30 37 H -1.706919 -2.300192 3.151035 0
M  V30 38 H -3.529454 -0.026417 2.775990 0
M  V30 39 H -2.990598 -0.304397 0.655740 0
M  V30 40 H -4.221837 -1.649764 0.881593 0
M  V30 41 H -2.299539 -2.453025 -0.319773 0
M  V30 42 H -2.124749 -3.153445 1.345602 0
M  V30 END ATOM
M  V30 BEGIN BOND
M  V30 1 2 1 2
M  V30 2 1 2 3
M  V30 3 2 3 4
M  V30 4 1 4 5
M  V30 5 2 5 6
M  V30 6 1 5 7
M  V30 7 1 7 8
M  V30 8 2 8 9
M  V30 9 1 9 10
M  V30 10 2 10 11
M  V30 11 1 11 12
M  V30 12 1 12 13
M  V30 13 1 13 14
M  V30 14 2 14 15
M  V30 15 1 15 16
M  V30 16 1 7 17
M  V30 17 1 17 18
M  V30 18 1 18 19
M  V30 19 1 19 20
M  V30 20 1 20 21
M  V30 21 1 21 22
M  V30 22 1 22 23
M  V30 23 1 6 1
M  V30 24 1 16 8
M  V30 25 1 23 18
M  V30 26 1 18 4
M  V30 27 2 16 12
M  V30 28 1 1 24
M  V30 29 1 2 25
M  V30 30 1 3 26
M  V30 31 1 6 27
M  V30 32 1 10 28
M  V30 33 1 13 29
M  V30 34 1 14 30
M  V30 35 1 15 31
M  V30 36 1 17 32
M  V30 37 1 17 33
M  V30 38 1 19 34
M  V30 39 1 19 35
M  V30 40 1 20 36
M  V30 41 1 20 37
M  V30 42 1 21 38
M  V30 43 1 22 39
M  V30 44 1 22 40
M  V30 45 1 23 41
M  V30 46 1 23 42
M  V30 END BOND
M  V30 END CTAB
M  END
>  <Dataset>  (210) 
ChEMBL_Kinases

>  <Ligand_Instance>  (210) 
nan

>  <PDB_ID>  (210) 
nan

>  <Standardized_SMILES>  (210) 
c1ccc2c(c1)N(c1ncnc3[nH]ccc13)CC21CCNCC1

>  <Name>  (210) 
nan

>  <Pocket>  (210) 
nan

>  <ATP_Site>  (210) 
nan

>  <Peripheral>  (210) 
nan

>  <Num_H_Atoms_ProtBoundConf>  (210) 
nan

>  <Num_Resolved_Atoms>  (210) 
nan

>  <Num_Not_Resolved_Atoms>  (210) 
nan

$$$$
CHEMBL259404
     RDKit          3D

  0  0  0  0  0  0  0  0  0  0999 V3000
M  V30 BEGIN CTAB
M  V30 COUNTS 53 56 0 0 0
M  V30 BEGIN ATOM
M  V30 1 C 1.053685 2.245428 3.237953 0
M  V30 2 O 0.855399 0.867738 3.264621 0
M  V30 3 C 0.020188 0.067011 2.546148 0
M  V30 4 O 0.712975 0.924906 3.109591 0
M  V30 5 C -0.889127 -0.729117 1.749785 0
M  V30 6 C -0.790323 -2.054255 2.115690 0
M  V30 7 C 0.105308 -2.607457 3.120357 0
M  V30 8 C -0.189652 -2.739608 4.466274 0
M  V30 9 C 0.773205 -3.287371 5.286313 0
M  V30 10 C 2.007755 -3.708041 4.834067 0
M  V30 11 C 2.255777 -3.558145 3.495283 0
M  V30 12 C 1.338685 -3.015356 2.603848 0
M  V30 13 C -1.630845 -2.960532 1.456623 0
M  V30 14 C -1.641593 -4.313796 1.716573 0
M  V30 15 C -2.502327 -5.137095 1.019670 0
M  V30 16 C -3.350519 -4.618391 0.066311 0
M  V30 17 C -3.286466 -3.250912 -0.143445 0
M  V30 18 C -2.449442 -2.371157 0.518686 0
M  V30 19 C -2.500632 -1.049725 0.200163 0
M  V30 20 O -3.314816 -0.691669 -0.687205 0
M  V30 21 N -1.694216 -0.189471 0.832791 0
M  V30 22 C -1.727702 1.201541 0.501439 0
M  V30 23 C -0.812172 1.531836 -0.620934 0
M  V30 24 C -1.307406 1.554421 -1.915244 0
M  V30 25 C -0.534207 1.839610 -3.047717 0
M  V30 26 C 0.809031 2.116570 -2.858908 0
M  V30 27 S 1.917174 2.477424 -4.180485 0
M  V30 28 C 2.721283 0.993317 -4.727395 0
M  V30 29 O 2.976200 3.458182 -3.777999 0
M  V30 30 O 1.193130 3.070531 -5.367286 0
M  V30 31 C 1.388961 2.116060 -1.588735 0
M  V30 32 C 0.527881 1.821572 -0.562073 0
M  V30 33 H 0.295032 2.810759 2.659415 0
M  V30 34 H 0.928750 2.655429 4.293090 0
M  V30 35 H 2.090376 2.477156 2.882151 0
M  V30 36 H -1.163463 -2.402280 4.795074 0
M  V30 37 H 0.536803 -3.390777 6.353023 0
M  V30 38 H 2.744515 -4.137811 5.518418 0
M  V30 39 H 3.238719 -3.897748 3.159033 0
M  V30 40 H 1.600731 -2.924404 1.544822 0
M  V30 41 H -0.940497 -4.637404 2.486301 0
M  V30 42 H -2.478105 -6.210470 1.259494 0
M  V30 43 H -4.026940 -5.253705 -0.486807 0
M  V30 44 H -3.981616 -2.893216 -0.912220 0
M  V30 45 H -2.756519 1.542535 0.204892 0
M  V30 46 H -1.460054 1.815547 1.383036 0
M  V30 47 H -2.334089 1.358772 -2.184069 0
M  V30 48 H -0.923789 1.856285 -4.049646 0
M  V30 49 H 2.217941 0.521607 -5.596037 0
M  V30 50 H 3.738760 1.271442 -5.073489 0
M  V30 51 H 2.826325 0.277537 -3.867429 0
M  V30 52 H 2.431831 2.326795 -1.395268 0
M  V30 53 H 0.966162 1.815920 0.429057 0
M  V30 END ATOM
M  V30 BEGIN BOND
M  V30 1 1 1 2
M  V30 2 1 2 3
M  V30 3 2 3 4
M  V30 4 1 3 5
M  V30 5 2 5 6
M  V30 6 1 6 7
M  V30 7 2 7 8
M  V30 8 1 8 9
M  V30 9 2 9 10
M  V30 10 1 10 11
M  V30 11 2 11 12
M  V30 12 1 6 13
M  V30 13 2 13 14
M  V30 14 1 14 15
M  V30 15 2 15 16
M  V30 16 1 16 17
M  V30 17 2 17 18
M  V30 18 1 18 19
M  V30 19 2 19 20
M  V30 20 1 19 21
M  V30 21 1 21 22
M  V30 22 1 22 23
M  V30 23 2 23 24
M  V30 24 1 24 25
M  V30 25 2 25 26
M  V30 26 1 26 27
M  V30 27 1 27 28
M  V30 28 2 27 29
M  V30 29 2 27 30
M  V30 30 1 26 31
M  V30 31 2 31 32
M  V30 32 1 21 5
M  V30 33 1 32 23
M  V30 34 1 12 7
M  V30 35 1 18 13
M  V30 36 1 1 33
M  V30 37 1 1 34
M  V30 38 1 1 35
M  V30 39 1 8 36
M  V30 40 1 9 37
M  V30 41 1 10 38
M  V30 42 1 11 39
M  V30 43 1 12 40
M  V30 44 1 14 41
M  V30 45 1 15 42
M  V30 46 1 16 43
M  V30 47 1 17 44
M  V30 48 1 22 45
M  V30 49 1 22 46
M  V30 50 1 24 47
M  V30 51 1 25 48
M  V30 52 1 28 49
M  V30 53 1 28 50
M  V30 54 1 28 51
M  V30 55 1 31 52
M  V30 56 1 32 53
M  V30 END BOND
M  V30 END CTAB
M  END
>  <Dataset>  (211) 
ChEMBL_Kinases

>  <Ligand_Instance>  (211) 
nan

>  <PDB_ID>  (211) 
nan

>  <Standardized_SMILES>  (211) 
COC(=O)c1c(-c2ccccc2)c2ccccc2c(=O)n1Cc1ccc(S(C)(=O)=O)cc1

>  <Name>  (211) 
nan

>  <Pocket>  (211) 
nan

>  <ATP_Site>  (211) 
nan

>  <Peripheral>  (211) 
nan

>  <Num_H_Atoms_ProtBoundConf>  (211) 
nan

>  <Num_Resolved_Atoms>  (211) 
nan

>  <Num_Not_Resolved_Atoms>  (211) 
nan

$$$$
CHEMBL259406
     RDKit          3D

  0  0  0  0  0  0  0  0  0  0999 V3000
M  V30 BEGIN CTAB
M  V30 COUNTS 50 53 0 0 0
M  V30 BEGIN ATOM
M  V30 1 C -0.202855 -4.396876 2.596256 0
M  V30 2 O -0.899298 -3.434208 1.876071 0
M  V30 3 C -0.474216 -2.164226 1.605390 0
M  V30 4 O 0.509048 -2.589878 2.265311 0
M  V30 5 C -0.558481 -0.840840 1.057737 0
M  V30 6 C 0.555967 -0.078901 1.344883 0
M  V30 7 C 1.706046 -0.540160 2.080020 0
M  V30 8 C 1.804500 -0.428415 3.458731 0
M  V30 9 C 2.929797 -0.887324 4.113877 0
M  V30 10 C 3.969551 -1.461570 3.412315 0
M  V30 11 C 3.909647 -1.592739 2.023803 0
M  V30 12 C 2.763411 -1.120975 1.393894 0
M  V30 13 C 0.553117 1.228130 0.883514 0
M  V30 14 C 1.611703 2.086894 1.109159 0
M  V30 15 C 1.594496 3.386399 0.643915 0
M  V30 16 C 2.712798 4.262503 0.893188 0
M  V30 17 O 2.705930 5.446552 0.474298 0
M  V30 18 O 3.833843 3.883244 1.584253 0
M  V30 19 C 0.500010 3.842129 -0.061592 0
M  V30 20 C -0.525907 2.944319 -0.257235 0
M  V30 21 C -0.562836 1.637753 0.183468 0
M  V30 22 C -1.636399 0.806745 -0.059549 0
M  V30 23 O -2.562146 1.352555 -0.711773 0
M  V30 24 N -1.652648 -0.463027 0.378269 0
M  V30 25 C -2.788920 -1.289167 0.108082 0
M  V30 26 C -2.747831 -1.993122 -1.179354 0
M  V30 27 C -2.196855 -3.220459 -1.463297 0
M  V30 28 C -2.174045 -3.861902 -2.680761 0
M  V30 29 C -2.761405 -3.230235 -3.758712 0
M  V30 30 C -3.335003 -1.996747 -3.552680 0
M  V30 31 C -3.319610 -1.414695 -2.302419 0
M  V30 32 H 0.691870 -4.709993 2.024640 0
M  V30 33 H -0.005878 -4.137195 3.653415 0
M  V30 34 H -0.857351 -5.314306 2.611981 0
M  V30 35 H 1.001663 0.019113 4.036810 0
M  V30 36 H 3.068468 -0.827732 5.204987 0
M  V30 37 H 4.896685 -1.851860 3.845139 0
M  V30 38 H 4.713765 -2.041071 1.445121 0
M  V30 39 H 2.710848 -1.220123 0.315047 0
M  V30 40 H 2.436700 1.660722 1.669851 0
M  V30 41 H 4.415968 4.592120 2.042132 0
M  V30 42 H 0.452601 4.853604 -0.440618 0
M  V30 43 H -1.373827 3.340114 -0.818746 0
M  V30 44 H -3.683957 -0.597105 0.064934 0
M  V30 45 H -3.051804 -1.959083 0.958553 0
M  V30 46 H -1.726345 -3.757645 -0.654545 0
M  V30 47 H -1.711284 -4.831992 -2.795241 0
M  V30 48 H -2.750602 -3.714295 -4.703271 0
M  V30 49 H -3.775775 -1.559691 -4.437451 0
M  V30 50 H -3.811630 -0.456778 -2.312536 0
M  V30 END ATOM
M  V30 BEGIN BOND
M  V30 1 1 1 2
M  V30 2 1 2 3
M  V30 3 2 3 4
M  V30 4 1 3 5
M  V30 5 2 5 6
M  V30 6 1 6 7
M  V30 7 2 7 8
M  V30 8 1 8 9
M  V30 9 2 9 10
M  V30 10 1 10 11
M  V30 11 2 11 12
M  V30 12 1 6 13
M  V30 13 2 13 14
M  V30 14 1 14 15
M  V30 15 1 15 16
M  V30 16 2 16 17
M  V30 17 1 16 18
M  V30 18 2 15 19
M  V30 19 1 19 20
M  V30 20 2 20 21
M  V30 21 1 21 22
M  V30 22 2 22 23
M  V30 23 1 22 24
M  V30 24 1 24 25
M  V30 25 1 25 26
M  V30 26 2 26 27
M  V30 27 1 27 28
M  V30 28 2 28 29
M  V30 29 1 29 30
M  V30 30 2 30 31
M  V30 31 1 24 5
M  V30 32 1 31 26
M  V30 33 1 12 7
M  V30 34 1 21 13
M  V30 35 1 1 32
M  V30 36 1 1 33
M  V30 37 1 1 34
M  V30 38 1 8 35
M  V30 39 1 9 36
M  V30 40 1 10 37
M  V30 41 1 11 38
M  V30 42 1 12 39
M  V30 43 1 14 40
M  V30 44 1 18 41
M  V30 45 1 19 42
M  V30 46 1 20 43
M  V30 47 1 25 44
M  V30 48 1 25 45
M  V30 49 1 27 46
M  V30 50 1 28 47
M  V30 51 1 29 48
M  V30 52 1 30 49
M  V30 53 1 31 50
M  V30 END BOND
M  V30 END CTAB
M  END
>  <Dataset>  (212) 
ChEMBL_Kinases

>  <Ligand_Instance>  (212) 
nan

>  <PDB_ID>  (212) 
nan

>  <Standardized_SMILES>  (212) 
COC(=O)c1c(-c2ccccc2)c2cc(C(=O)O)ccc2c(=O)n1Cc1ccccc1

>  <Name>  (212) 
nan

>  <Pocket>  (212) 
nan

>  <ATP_Site>  (212) 
nan

>  <Peripheral>  (212) 
nan

>  <Num_H_Atoms_ProtBoundConf>  (212) 
nan

>  <Num_Resolved_Atoms>  (212) 
nan

>  <Num_Not_Resolved_Atoms>  (212) 
nan

$$$$
CHEMBL259432
     RDKit          3D

  0  0  0  0  0  0  0  0  0  0999 V3000
M  V30 BEGIN CTAB
M  V30 COUNTS 53 59 0 0 0
M  V30 BEGIN ATOM
M  V30 1 O 4.009851 1.414074 4.990318 0
M  V30 2 C 3.809280 0.564152 4.091708 0
M  V30 3 N 4.768737 -0.466062 3.788475 0
M  V30 4 C 4.266028 -1.270682 2.733298 0
M  V30 5 O 4.991052 -2.208263 2.360491 0
M  V30 6 C 2.975293 -0.766426 2.345046 0
M  V30 7 C 2.732121 0.312705 3.160616 0
M  V30 8 C 1.544063 0.982150 2.988697 0
M  V30 9 C 1.160346 2.072005 3.722260 0
M  V30 10 O 1.959551 2.590004 4.712346 0
M  V30 11 C -0.025666 2.754743 3.563864 0
M  V30 12 C -0.897713 2.307710 2.590284 0
M  V30 13 C -0.601041 1.218840 1.800737 0
M  V30 14 C 0.620992 0.597950 2.038504 0
M  V30 15 C 0.895836 -0.483093 1.241730 0
M  V30 16 C 2.073423 -1.140684 1.417562 0
M  V30 17 C 2.083333 -2.155632 0.507581 0
M  V30 18 C 2.855338 -3.174021 0.092694 0
M  V30 19 C 2.589827 -4.085824 -0.904033 0
M  V30 20 C 1.368248 -3.945191 -1.575425 0
M  V30 21 C 0.519786 -2.921567 -1.205779 0
M  V30 22 C 0.882663 -2.046507 -0.178605 0
M  V30 23 N 0.164697 -1.019710 0.279278 0
M  V30 24 C -1.119219 -0.412132 -0.011986 0 CFG=2
M  V30 25 O -1.381397 0.696954 0.819548 0
M  V30 26 O -2.054104 -1.364655 0.300271 0
M  V30 27 C -3.307632 -1.234788 -0.207596 0 CFG=2
M  V30 28 C -4.058368 -2.520727 0.097600 0
M  V30 29 O -5.353614 -2.447704 -0.399815 0
M  V30 30 C -3.347996 -1.059748 -1.708085 0 CFG=1
M  V30 31 O -4.648246 -0.683584 -2.045943 0
M  V30 32 C -2.378494 -0.030601 -2.185119 0 CFG=2
M  V30 33 O -2.132981 -0.273989 -3.555449 0
M  V30 34 C -1.119264 0.095138 -1.415791 0 CFG=1
M  V30 35 O -0.689422 1.442765 -1.423569 0
M  V30 36 H 5.687697 -0.545677 4.317200 0
M  V30 37 H 2.118317 3.585456 4.847775 0
M  V30 38 H -0.323871 3.613940 4.144985 0
M  V30 39 H -1.836765 2.806737 2.427358 0
M  V30 40 H 3.794882 -3.329271 0.566568 0
M  V30 41 H 3.257805 -4.882617 -1.186857 0
M  V30 42 H 1.052837 -4.601605 -2.374188 0
M  V30 43 H -0.418242 -2.818993 -1.726045 0
M  V30 44 H -3.928006 -0.419239 0.265391 0
M  V30 45 H -4.060087 -2.656097 1.208397 0
M  V30 46 H -3.555177 -3.413144 -0.319848 0
M  V30 47 H -5.628383 -3.348931 -0.669880 0
M  V30 48 H -3.158493 -2.045801 -2.222722 0
M  V30 49 H -4.708133 -0.275803 -2.932673 0
M  V30 50 H -2.876791 0.981496 -2.194070 0
M  V30 51 H -1.195938 -0.619883 -3.587899 0
M  V30 52 H -0.326541 -0.435610 -1.984450 0
M  V30 53 H -1.464358 2.053463 -1.337149 0
M  V30 END ATOM
M  V30 BEGIN BOND
M  V30 1 2 1 2
M  V30 2 1 2 3
M  V30 3 1 3 4
M  V30 4 2 4 5
M  V30 5 1 4 6
M  V30 6 2 6 7
M  V30 7 1 7 8
M  V30 8 2 8 9
M  V30 9 1 9 10
M  V30 10 1 9 11
M  V30 11 2 11 12
M  V30 12 1 12 13
M  V30 13 2 13 14
M  V30 14 1 14 15
M  V30 15 2 15 16
M  V30 16 1 16 17
M  V30 17 2 17 18
M  V30 18 1 18 19
M  V30 19 2 19 20
M  V30 20 1 20 21
M  V30 21 2 21 22
M  V30 22 1 22 23
M  V30 23 1 23 24
M  V30 24 1 24 25 CFG=1
M  V30 25 1 24 26
M  V30 26 1 26 27
M  V30 27 1 27 28
M  V30 28 1 28 29
M  V30 29 1 27 30
M  V30 30 1 30 31
M  V30 31 1 30 32
M  V30 32 1 32 33
M  V30 33 1 32 34
M  V30 34 1 34 35
M  V30 35 1 7 2
M  V30 36 1 14 8
M  V30 37 1 23 15
M  V30 38 1 34 24
M  V30 39 1 16 6
M  V30 40 1 22 17
M  V30 41 1 25 13
M  V30 42 1 3 36
M  V30 43 1 10 37
M  V30 44 1 11 38
M  V30 45 1 12 39
M  V30 46 1 18 40
M  V30 47 1 19 41
M  V30 48 1 20 42
M  V30 49 1 21 43
M  V30 50 1 27 44 CFG=1
M  V30 51 1 28 45
M  V30 52 1 28 46
M  V30 53 1 29 47
M  V30 54 1 30 48 CFG=3
M  V30 55 1 31 49
M  V30 56 1 32 50 CFG=3
M  V30 57 1 33 51
M  V30 58 1 34 52 CFG=3
M  V30 59 1 35 53
M  V30 END BOND
M  V30 END CTAB
M  END
>  <Dataset>  (213) 
ChEMBL_Kinases

>  <Ligand_Instance>  (213) 
nan

>  <PDB_ID>  (213) 
nan

>  <Standardized_SMILES>  (213) 
O=C1NC(=O)c2c1c1c(O)ccc3c1c1c2c2ccccc2n1[C@]1(O3)O[C@H](CO)[C@@H](O)[C@H](O)[C@H]1O

>  <Name>  (213) 
nan

>  <Pocket>  (213) 
nan

>  <ATP_Site>  (213) 
nan

>  <Peripheral>  (213) 
nan

>  <Num_H_Atoms_ProtBoundConf>  (213) 
nan

>  <Num_Resolved_Atoms>  (213) 
nan

>  <Num_Not_Resolved_Atoms>  (213) 
nan

$$$$
CHEMBL259484
     RDKit          3D

  0  0  0  0  0  0  0  0  0  0999 V3000
M  V30 BEGIN CTAB
M  V30 COUNTS 56 59 0 0 0
M  V30 BEGIN ATOM
M  V30 1 C 1.460056 -3.039330 3.366536 0
M  V30 2 C 1.052595 -1.573920 3.205051 0
M  V30 3 C -0.062886 -1.471193 2.247378 0
M  V30 4 O 0.135414 -2.701241 2.268457 0
M  V30 5 C -0.916872 -0.492920 1.624920 0
M  V30 6 C -0.760426 0.834383 1.930264 0
M  V30 7 C 0.207995 1.383898 2.842070 0
M  V30 8 C 0.025928 1.591679 4.201857 0
M  V30 9 C 0.984485 2.128702 5.034444 0
M  V30 10 C 2.216584 2.486820 4.477029 0
M  V30 11 C 2.479354 2.316613 3.149817 0
M  V30 12 C 1.463490 1.772940 2.392251 0
M  V30 13 C -1.595798 1.740906 1.320129 0
M  V30 14 C -1.495640 3.084102 1.578847 0
M  V30 15 C -2.331727 3.994299 0.968758 0
M  V30 16 Cl -2.166607 5.707069 1.331312 0
M  V30 17 C -3.301534 3.563757 0.071058 0
M  V30 18 C -3.409609 2.219315 -0.194676 0
M  V30 19 C -2.562217 1.328023 0.427674 0
M  V30 20 C -2.623400 -0.029622 0.201071 0
M  V30 21 O -3.530125 -0.373991 -0.630699 0
M  V30 22 N -1.820620 -0.967983 0.778657 0
M  V30 23 C -2.099084 -2.322616 0.364145 0
M  V30 24 C -1.294968 -2.657346 -0.849032 0
M  V30 25 C -0.077290 -3.244643 -1.111511 0
M  V30 26 N 0.124319 -3.269853 -2.438023 0
M  V30 27 C 1.322820 -3.834785 -2.917008 0
M  V30 28 O 2.183075 -4.303756 -2.127687 0
M  V30 29 N 1.787378 -3.990078 -4.239255 0
M  V30 30 C 3.074791 -4.621357 -4.314721 0
M  V30 31 C -0.944099 -2.709960 -3.005199 0
M  V30 32 C -1.136670 -2.534147 -4.445249 0
M  V30 33 N -1.820076 -2.329465 -2.067524 0
M  V30 34 H 2.324005 -3.081892 4.098640 0
M  V30 35 H 0.663570 -3.643059 3.817832 0
M  V30 36 H 1.872906 -3.430068 2.415584 0
M  V30 37 H 1.962488 -1.024163 2.850727 0
M  V30 38 H 0.802615 -1.174352 4.227998 0
M  V30 39 H -0.953479 1.300040 4.610774 0
M  V30 40 H 0.750630 2.250997 6.072704 0
M  V30 41 H 2.985413 2.910813 5.111595 0
M  V30 42 H 3.417790 2.581370 2.686212 0
M  V30 43 H 1.664890 1.632597 1.326491 0
M  V30 44 H -0.751207 3.483761 2.276915 0
M  V30 45 H -3.955634 4.264141 -0.407741 0
M  V30 46 H -4.164657 1.857409 -0.896915 0
M  V30 47 H -3.191533 -2.440112 0.159716 0
M  V30 48 H -1.843059 -3.056942 1.172035 0
M  V30 49 H 0.495797 -3.576061 -0.282676 0
M  V30 50 H 1.187192 -3.650376 -5.014497 0
M  V30 51 H 3.195281 -5.512725 -3.676159 0
M  V30 52 H 3.847770 -3.886235 -3.955030 0
M  V30 53 H 3.377712 -4.885415 -5.336233 0
M  V30 54 H -1.150132 -3.471592 -5.003688 0
M  V30 55 H -0.349422 -1.880019 -4.896138 0
M  V30 56 H -2.134067 -2.058282 -4.676441 0
M  V30 END ATOM
M  V30 BEGIN BOND
M  V30 1 1 1 2
M  V30 2 1 2 3
M  V30 3 2 3 4
M  V30 4 1 3 5
M  V30 5 2 5 6
M  V30 6 1 6 7
M  V30 7 2 7 8
M  V30 8 1 8 9
M  V30 9 2 9 10
M  V30 10 1 10 11
M  V30 11 2 11 12
M  V30 12 1 6 13
M  V30 13 2 13 14
M  V30 14 1 14 15
M  V30 15 1 15 16
M  V30 16 2 15 17
M  V30 17 1 17 18
M  V30 18 2 18 19
M  V30 19 1 19 20
M  V30 20 2 20 21
M  V30 21 1 20 22
M  V30 22 1 22 23
M  V30 23 1 23 24
M  V30 24 2 24 25
M  V30 25 1 25 26
M  V30 26 1 26 27
M  V30 27 2 27 28
M  V30 28 1 27 29
M  V30 29 1 29 30
M  V30 30 1 26 31
M  V30 31 1 31 32
M  V30 32 2 31 33
M  V30 33 1 22 5
M  V30 34 1 33 24
M  V30 35 1 12 7
M  V30 36 1 19 13
M  V30 37 1 1 34
M  V30 38 1 1 35
M  V30 39 1 1 36
M  V30 40 1 2 37
M  V30 41 1 2 38
M  V30 42 1 8 39
M  V30 43 1 9 40
M  V30 44 1 10 41
M  V30 45 1 11 42
M  V30 46 1 12 43
M  V30 47 1 14 44
M  V30 48 1 17 45
M  V30 49 1 18 46
M  V30 50 1 23 47
M  V30 51 1 23 48
M  V30 52 1 25 49
M  V30 53 1 29 50
M  V30 54 1 30 51
M  V30 55 1 30 52
M  V30 56 1 30 53
M  V30 57 1 32 54
M  V30 58 1 32 55
M  V30 59 1 32 56
M  V30 END BOND
M  V30 END CTAB
M  END
>  <Dataset>  (214) 
ChEMBL_Kinases

>  <Ligand_Instance>  (214) 
nan

>  <PDB_ID>  (214) 
nan

>  <Standardized_SMILES>  (214) 
CCC(=O)c1c(-c2ccccc2)c2cc(Cl)ccc2c(=O)n1Cc1cn(C(=O)NC)c(C)n1

>  <Name>  (214) 
nan

>  <Pocket>  (214) 
nan

>  <ATP_Site>  (214) 
nan

>  <Peripheral>  (214) 
nan

>  <Num_H_Atoms_ProtBoundConf>  (214) 
nan

>  <Num_Resolved_Atoms>  (214) 
nan

>  <Num_Not_Resolved_Atoms>  (214) 
nan

$$$$
CHEMBL260015
     RDKit          3D

  0  0  0  0  0  0  0  0  0  0999 V3000
M  V30 BEGIN CTAB
M  V30 COUNTS 60 65 0 0 0
M  V30 BEGIN ATOM
M  V30 1 C 4.501577 -0.846943 4.484161 0
M  V30 2 C 5.475008 -0.497732 3.551636 0
M  V30 3 C 5.131432 -0.535093 2.197012 0
M  V30 4 C 3.867943 -0.902781 1.731768 0
M  V30 5 C 3.809703 -0.850146 0.277719 0
M  V30 6 N 4.544248 -1.606318 -0.531549 0
M  V30 7 N 4.255490 -1.311605 -1.772230 0
M  V30 8 C 3.325498 -0.356100 -1.840013 0
M  V30 9 C 3.033642 -0.054129 -0.537190 0
M  V30 10 C 2.057468 0.945849 -0.132411 0
M  V30 11 C 2.444873 2.264540 -0.358471 0
M  V30 12 C 1.543887 3.242032 0.007978 0
M  V30 13 N 0.346739 2.978794 0.556356 0
M  V30 14 C -0.063677 1.727938 0.789929 0
M  V30 15 C -1.295279 1.364768 1.355095 0
M  V30 16 C -1.665105 0.025323 1.571357 0
M  V30 17 O -2.905210 0.044307 2.127266 0
M  V30 18 C -3.619819 -1.097805 2.469715 0
M  V30 19 C -3.997923 -2.014061 1.360754 0
M  V30 20 N -4.840347 -1.350011 0.365363 0
M  V30 21 C -6.142481 -1.036395 0.920939 0
M  V30 22 C -6.974627 -2.270259 1.176249 0
M  V30 23 O -7.098236 -3.055570 0.018805 0
M  V30 24 C -5.833480 -3.468390 -0.380983 0
M  V30 25 C -5.013861 -2.259361 -0.729904 0
M  V30 26 C -0.723686 -0.896462 1.185320 0
M  V30 27 C 0.477375 -0.580229 0.635268 0
M  V30 28 C 0.819592 0.736609 0.431964 0
M  V30 29 C 3.002295 -0.025777 -3.259465 0
M  V30 30 C 3.922646 -0.885712 -4.062826 0
M  V30 31 C 4.671983 -1.739968 -3.088851 0
M  V30 32 N 2.961425 -1.231498 2.667821 0
M  V30 33 C 3.273355 -1.201396 3.972598 0
M  V30 34 H 4.637201 -0.859555 5.558247 0
M  V30 35 H 6.426333 -0.222281 3.932653 0
M  V30 36 H 5.973851 -0.242510 1.584148 0
M  V30 37 H 3.389674 2.572781 -0.795387 0
M  V30 38 H 1.776671 4.289520 -0.137604 0
M  V30 39 H -1.857693 2.289854 1.572488 0
M  V30 40 H -2.992148 -1.722149 3.184942 0
M  V30 41 H -4.521286 -0.860348 3.100169 0
M  V30 42 H -4.595927 -2.848888 1.841951 0
M  V30 43 H -3.177062 -2.461802 0.809957 0
M  V30 44 H -6.093395 -0.469730 1.859187 0
M  V30 45 H -6.656782 -0.423325 0.165427 0
M  V30 46 H -8.011137 -1.896757 1.390515 0
M  V30 47 H -6.627120 -2.854725 2.048278 0
M  V30 48 H -5.935940 -4.083013 -1.298620 0
M  V30 49 H -5.342464 -4.111249 0.360478 0
M  V30 50 H -3.996343 -2.635100 -1.014764 0
M  V30 51 H -5.498320 -1.762142 -1.594399 0
M  V30 52 H -1.039136 -1.886214 1.380387 0
M  V30 53 H 1.126701 -1.404241 0.376271 0
M  V30 54 H 1.957977 -0.292218 -3.517206 0
M  V30 55 H 3.105223 1.063814 -3.450018 0
M  V30 56 H 4.617487 -0.270514 -4.682983 0
M  V30 57 H 3.346553 -1.583682 -4.738022 0
M  V30 58 H 4.465323 -2.823918 -3.183386 0
M  V30 59 H 5.775788 -1.602080 -3.232099 0
M  V30 60 H 2.410196 -1.500911 4.583078 0
M  V30 END ATOM
M  V30 BEGIN BOND
M  V30 1 2 1 2
M  V30 2 1 2 3
M  V30 3 2 3 4
M  V30 4 1 4 5
M  V30 5 2 5 6
M  V30 6 1 6 7
M  V30 7 1 7 8
M  V30 8 2 8 9
M  V30 9 1 9 10
M  V30 10 2 10 11
M  V30 11 1 11 12
M  V30 12 2 12 13
M  V30 13 1 13 14
M  V30 14 2 14 15
M  V30 15 1 15 16
M  V30 16 1 16 17
M  V30 17 1 17 18
M  V30 18 1 18 19
M  V30 19 1 19 20
M  V30 20 1 20 21
M  V30 21 1 21 22
M  V30 22 1 22 23
M  V30 23 1 23 24
M  V30 24 1 24 25
M  V30 25 2 16 26
M  V30 26 1 26 27
M  V30 27 2 27 28
M  V30 28 1 8 29
M  V30 29 1 29 30
M  V30 30 1 30 31
M  V30 31 1 4 32
M  V30 32 2 32 33
M  V30 33 1 33 1
M  V30 34 1 9 5
M  V30 35 1 28 10
M  V30 36 1 31 7
M  V30 37 1 28 14
M  V30 38 1 25 20
M  V30 39 1 1 34
M  V30 40 1 2 35
M  V30 41 1 3 36
M  V30 42 1 11 37
M  V30 43 1 12 38
M  V30 44 1 15 39
M  V30 45 1 18 40
M  V30 46 1 18 41
M  V30 47 1 19 42
M  V30 48 1 19 43
M  V30 49 1 21 44
M  V30 50 1 21 45
M  V30 51 1 22 46
M  V30 52 1 22 47
M  V30 53 1 24 48
M  V30 54 1 24 49
M  V30 55 1 25 50
M  V30 56 1 25 51
M  V30 57 1 26 52
M  V30 58 1 27 53
M  V30 59 1 29 54
M  V30 60 1 29 55
M  V30 61 1 30 56
M  V30 62 1 30 57
M  V30 63 1 31 58
M  V30 64 1 31 59
M  V30 65 1 33 60
M  V30 END BOND
M  V30 END CTAB
M  END
>  <Dataset>  (215) 
ChEMBL_Kinases

>  <Ligand_Instance>  (215) 
nan

>  <PDB_ID>  (215) 
nan

>  <Standardized_SMILES>  (215) 
c1ccc(-c2nn3c(c2-c2ccnc4cc(OCCN5CCOCC5)ccc24)CCC3)nc1

>  <Name>  (215) 
nan

>  <Pocket>  (215) 
nan

>  <ATP_Site>  (215) 
nan

>  <Peripheral>  (215) 
nan

>  <Num_H_Atoms_ProtBoundConf>  (215) 
nan

>  <Num_Resolved_Atoms>  (215) 
nan

>  <Num_Not_Resolved_Atoms>  (215) 
nan

$$$$
CHEMBL259544
     RDKit          3D

  0  0  0  0  0  0  0  0  0  0999 V3000
M  V30 BEGIN CTAB
M  V30 COUNTS 50 53 0 0 0
M  V30 BEGIN ATOM
M  V30 1 O -1.027361 -0.882838 -2.125436 0
M  V30 2 C -0.196192 -0.140812 -1.543810 0
M  V30 3 O 0.565669 0.476401 -2.525714 0
M  V30 4 C 0.025316 0.109372 -0.128462 0
M  V30 5 C 1.010641 0.973673 0.225092 0
M  V30 6 C 1.818697 1.629895 -0.828361 0
M  V30 7 C 1.497471 2.837570 -1.414904 0
M  V30 8 C 2.348639 3.346275 -2.399511 0
M  V30 9 C 3.475897 2.653245 -2.767898 0
M  V30 10 C 3.814230 1.443278 -2.192578 0
M  V30 11 C 2.957026 0.953988 -1.216745 0
M  V30 12 C 1.331383 1.300499 1.501758 0
M  V30 13 C 2.346032 2.187791 1.800668 0
M  V30 14 C 2.593539 2.453358 3.127872 0
M  V30 15 Br 3.970962 3.663406 3.674254 0
M  V30 16 C 1.868564 1.867497 4.142831 0
M  V30 17 C 0.864102 0.987649 3.809297 0
M  V30 18 C 0.593711 0.702807 2.494084 0
M  V30 19 C -0.400095 -0.170064 2.102530 0
M  V30 20 O -1.038622 -0.681190 3.084445 0
M  V30 21 N -0.714674 -0.492190 0.815681 0
M  V30 22 C -1.758885 -1.414989 0.506378 0
M  V30 23 C -1.410903 -2.845864 0.355063 0
M  V30 24 C -0.799545 -3.493623 1.571717 0
M  V30 25 C -1.810044 -3.815343 2.637822 0
M  V30 26 C -2.689088 -4.913470 2.018018 0
M  V30 27 C -3.481613 -4.170415 0.970266 0
M  V30 28 C -2.642745 -3.578521 -0.126242 0
M  V30 29 H 0.813331 0.082911 -3.417574 0
M  V30 30 H 0.601187 3.330278 -1.082072 0
M  V30 31 H 2.111927 4.280304 -2.861910 0
M  V30 32 H 4.160350 3.024907 -3.534057 0
M  V30 33 H 4.697206 0.903106 -2.482959 0
M  V30 34 H 3.253175 -0.006360 -0.780779 0
M  V30 35 H 2.934596 2.665078 1.019197 0
M  V30 36 H 2.017935 2.037255 5.186073 0
M  V30 37 H 0.270044 0.505377 4.584277 0
M  V30 38 H -2.446061 -1.086325 -0.314667 0
M  V30 39 H -2.456986 -1.382356 1.406840 0
M  V30 40 H -0.608918 -3.000096 -0.427848 0
M  V30 41 H 0.039761 -2.901378 1.925085 0
M  V30 42 H -0.391980 -4.498812 1.246512 0
M  V30 43 H -1.276844 -4.278425 3.472389 0
M  V30 44 H -2.483434 -3.003580 2.909295 0
M  V30 45 H -3.429077 -5.305016 2.739034 0
M  V30 46 H -2.086786 -5.712205 1.561074 0
M  V30 47 H -4.257770 -4.771835 0.501170 0
M  V30 48 H -3.971465 -3.323622 1.493755 0
M  V30 49 H -2.369818 -4.321699 -0.903250 0
M  V30 50 H -3.330964 -2.866330 -0.638436 0
M  V30 END ATOM
M  V30 BEGIN BOND
M  V30 1 2 1 2
M  V30 2 1 2 3
M  V30 3 1 2 4
M  V30 4 2 4 5
M  V30 5 1 5 6
M  V30 6 2 6 7
M  V30 7 1 7 8
M  V30 8 2 8 9
M  V30 9 1 9 10
M  V30 10 2 10 11
M  V30 11 1 5 12
M  V30 12 2 12 13
M  V30 13 1 13 14
M  V30 14 1 14 15
M  V30 15 2 14 16
M  V30 16 1 16 17
M  V30 17 2 17 18
M  V30 18 1 18 19
M  V30 19 2 19 20
M  V30 20 1 19 21
M  V30 21 1 21 22
M  V30 22 1 22 23
M  V30 23 1 23 24
M  V30 24 1 24 25
M  V30 25 1 25 26
M  V30 26 1 26 27
M  V30 27 1 27 28
M  V30 28 1 21 4
M  V30 29 1 28 23
M  V30 30 1 11 6
M  V30 31 1 18 12
M  V30 32 1 3 29
M  V30 33 1 7 30
M  V30 34 1 8 31
M  V30 35 1 9 32
M  V30 36 1 10 33
M  V30 37 1 11 34
M  V30 38 1 13 35
M  V30 39 1 16 36
M  V30 40 1 17 37
M  V30 41 1 22 38
M  V30 42 1 22 39
M  V30 43 1 23 40
M  V30 44 1 24 41
M  V30 45 1 24 42
M  V30 46 1 25 43
M  V30 47 1 25 44
M  V30 48 1 26 45
M  V30 49 1 26 46
M  V30 50 1 27 47
M  V30 51 1 27 48
M  V30 52 1 28 49
M  V30 53 1 28 50
M  V30 END BOND
M  V30 END CTAB
M  END
>  <Dataset>  (216) 
ChEMBL_Kinases

>  <Ligand_Instance>  (216) 
nan

>  <PDB_ID>  (216) 
nan

>  <Standardized_SMILES>  (216) 
O=C(O)c1c(-c2ccccc2)c2cc(Br)ccc2c(=O)n1CC1CCCCC1

>  <Name>  (216) 
nan

>  <Pocket>  (216) 
nan

>  <ATP_Site>  (216) 
nan

>  <Peripheral>  (216) 
nan

>  <Num_H_Atoms_ProtBoundConf>  (216) 
nan

>  <Num_Resolved_Atoms>  (216) 
nan

>  <Num_Not_Resolved_Atoms>  (216) 
nan

$$$$
CHEMBL259551
     RDKit          3D

  0  0  0  0  0  0  0  0  0  0999 V3000
M  V30 BEGIN CTAB
M  V30 COUNTS 38 42 0 0 0
M  V30 BEGIN ATOM
M  V30 1 N 1.389986 -2.759942 4.754040 0
M  V30 2 C 2.306101 -2.696411 3.654145 0
M  V30 3 N 3.589253 -3.081320 3.512950 0
M  V30 4 N 3.992317 -2.799206 2.277136 0
M  V30 5 C 3.021122 -2.226886 1.553100 0
M  V30 6 N 2.925246 -1.769087 0.294285 0
M  V30 7 N 1.787525 -1.229449 -0.167726 0
M  V30 8 C 0.698732 -1.139025 0.650507 0
M  V30 9 C -0.530877 -0.563378 0.177963 0
M  V30 10 C -0.724066 0.722177 -0.294744 0
M  V30 11 C 0.303047 1.772716 -0.413107 0
M  V30 12 C 1.030083 2.357853 0.601926 0
M  V30 13 C 1.955859 3.336976 0.267191 0
M  V30 14 C 2.138192 3.709705 -1.048844 0
M  V30 15 C 1.412113 3.126155 -2.067842 0
M  V30 16 C 0.478238 2.138720 -1.732605 0
M  V30 17 N -2.033410 0.851957 -0.635093 0
M  V30 18 N -2.661882 -0.291345 -0.396343 0
M  V30 19 C -3.927658 -0.725685 -0.538676 0
M  V30 20 C -4.355439 -1.995007 -0.212282 0
M  V30 21 C -3.449583 -2.904650 0.296727 0
M  V30 22 C -2.139662 -2.481226 0.452668 0
M  V30 23 C -1.774511 -1.191715 0.105331 0
M  V30 24 C 0.750902 -1.599248 1.959988 0
M  V30 25 C 1.937483 -2.156566 2.425433 0
M  V30 26 H 1.248525 -2.091469 5.524279 0
M  V30 27 H 0.812913 -3.650885 4.694185 0
M  V30 28 H 4.962320 -3.013485 1.944002 0
M  V30 29 H 0.800400 1.985798 1.583268 0
M  V30 30 H 2.512191 3.775464 1.108155 0
M  V30 31 H 2.873722 4.480595 -1.263526 0
M  V30 32 H 1.583552 3.445618 -3.090699 0
M  V30 33 H -0.040586 1.741328 -2.596792 0
M  V30 34 H -4.669500 -0.020288 -0.942119 0
M  V30 35 H -5.381227 -2.285598 -0.348496 0
M  V30 36 H -3.786775 -3.898987 0.552136 0
M  V30 37 H -1.437461 -3.174532 0.843097 0
M  V30 38 H -0.122466 -1.520803 2.598560 0
M  V30 END ATOM
M  V30 BEGIN BOND
M  V30 1 1 1 2
M  V30 2 2 2 3
M  V30 3 1 3 4
M  V30 4 1 4 5
M  V30 5 2 5 6
M  V30 6 1 6 7
M  V30 7 2 7 8
M  V30 8 1 8 9
M  V30 9 1 9 10
M  V30 10 1 10 11
M  V30 11 2 11 12
M  V30 12 1 12 13
M  V30 13 2 13 14
M  V30 14 1 14 15
M  V30 15 2 15 16
M  V30 16 2 10 17
M  V30 17 1 17 18
M  V30 18 1 18 19
M  V30 19 2 19 20
M  V30 20 1 20 21
M  V30 21 2 21 22
M  V30 22 1 22 23
M  V30 23 1 8 24
M  V30 24 2 24 25
M  V30 25 1 25 2
M  V30 26 1 25 5
M  V30 27 2 23 9
M  V30 28 1 16 11
M  V30 29 1 23 18
M  V30 30 1 1 26
M  V30 31 1 1 27
M  V30 32 1 4 28
M  V30 33 1 12 29
M  V30 34 1 13 30
M  V30 35 1 14 31
M  V30 36 1 15 32
M  V30 37 1 16 33
M  V30 38 1 19 34
M  V30 39 1 20 35
M  V30 40 1 21 36
M  V30 41 1 22 37
M  V30 42 1 24 38
M  V30 END BOND
M  V30 END CTAB
M  END
>  <Dataset>  (217) 
ChEMBL_Kinases

>  <Ligand_Instance>  (217) 
nan

>  <PDB_ID>  (217) 
nan

>  <Standardized_SMILES>  (217) 
Nc1n[nH]c2nnc(-c3c(-c4ccccc4)nn4ccccc34)cc12

>  <Name>  (217) 
nan

>  <Pocket>  (217) 
nan

>  <ATP_Site>  (217) 
nan

>  <Peripheral>  (217) 
nan

>  <Num_H_Atoms_ProtBoundConf>  (217) 
nan

>  <Num_Resolved_Atoms>  (217) 
nan

>  <Num_Not_Resolved_Atoms>  (217) 
nan

$$$$
CHEMBL259555
     RDKit          3D

  0  0  0  0  0  0  0  0  0  0999 V3000
M  V30 BEGIN CTAB
M  V30 COUNTS 55 58 0 0 0
M  V30 BEGIN ATOM
M  V30 1 C -0.948447 -2.884422 3.878338 0
M  V30 2 C -0.506041 -1.450431 3.565332 0
M  V30 3 C -0.957724 -1.040342 2.228118 0
M  V30 4 O -1.465327 -2.181006 2.319944 0
M  V30 5 C -0.932449 0.001708 1.242123 0
M  V30 6 C -0.245239 1.126127 1.634757 0
M  V30 7 C 0.462742 1.371070 2.857272 0
M  V30 8 C -0.054519 1.914442 4.014226 0
M  V30 9 C 0.664309 2.140849 5.168939 0
M  V30 10 C 2.004963 1.802828 5.182709 0
M  V30 11 C 2.591759 1.255415 4.065792 0
M  V30 12 C 1.821784 1.050069 2.933028 0
M  V30 13 C -0.187022 2.216144 0.775072 0
M  V30 14 C 0.469521 3.394968 1.057548 0
M  V30 15 C 0.530105 4.479643 0.210061 0
M  V30 16 Cl 1.378368 5.921306 0.652780 0
M  V30 17 C -0.130234 4.313875 -0.987113 0
M  V30 18 C -0.813734 3.175562 -1.361961 0
M  V30 19 C -0.833871 2.128408 -0.465299 0
M  V30 20 C -1.477404 0.930625 -0.703839 0
M  V30 21 O -2.042272 0.925087 -1.840687 0
M  V30 22 N -1.575653 -0.176229 0.085074 0
M  V30 23 C -2.294223 -1.302410 -0.386411 0
M  V30 24 C -1.584115 -2.295487 -1.180671 0
M  V30 25 C -0.926963 -3.432144 -0.790371 0
M  V30 26 C -0.268965 -4.355348 -1.568543 0
M  V30 27 C -0.242765 -4.146750 -2.932260 0
M  V30 28 S 0.581432 -5.315411 -3.934141 0
M  V30 29 C 2.337319 -4.942506 -4.022477 0
M  V30 30 O 0.421604 -6.712763 -3.472980 0
M  V30 31 O 0.033551 -5.200223 -5.339320 0
M  V30 32 C -0.889295 -3.008991 -3.429649 0
M  V30 33 C -1.525449 -2.137391 -2.568046 0
M  V30 34 H -0.468459 -3.206950 4.851498 0
M  V30 35 H -2.029095 -2.993153 3.935882 0
M  V30 36 H -0.492013 -3.563098 3.131465 0
M  V30 37 H 0.600237 -1.452462 3.662241 0
M  V30 38 H -0.932556 -0.791681 4.370030 0
M  V30 39 H -1.092881 2.178969 4.010452 0
M  V30 40 H 0.172994 2.570870 6.027718 0
M  V30 41 H 2.614916 1.961653 6.069246 0
M  V30 42 H 3.645319 0.996157 4.093517 0
M  V30 43 H 2.310458 0.611246 2.050338 0
M  V30 44 H 0.976817 3.483734 2.014352 0
M  V30 45 H -0.119490 5.144355 -1.708760 0
M  V30 46 H -1.324736 3.071060 -2.309176 0
M  V30 47 H -3.147717 -0.934838 -1.037528 0
M  V30 48 H -2.835329 -1.744408 0.490381 0
M  V30 49 H -0.903477 -3.676174 0.259105 0
M  V30 50 H 0.218152 -5.223877 -1.160229 0
M  V30 51 H 2.546333 -3.992021 -4.519135 0
M  V30 52 H 2.895864 -5.815112 -4.390893 0
M  V30 53 H 2.673904 -4.830797 -2.949045 0
M  V30 54 H -0.805296 -2.944535 -4.505335 0
M  V30 55 H -1.954609 -1.356149 -3.166219 0
M  V30 END ATOM
M  V30 BEGIN BOND
M  V30 1 1 1 2
M  V30 2 1 2 3
M  V30 3 2 3 4
M  V30 4 1 3 5
M  V30 5 2 5 6
M  V30 6 1 6 7
M  V30 7 2 7 8
M  V30 8 1 8 9
M  V30 9 2 9 10
M  V30 10 1 10 11
M  V30 11 2 11 12
M  V30 12 1 6 13
M  V30 13 2 13 14
M  V30 14 1 14 15
M  V30 15 1 15 16
M  V30 16 2 15 17
M  V30 17 1 17 18
M  V30 18 2 18 19
M  V30 19 1 19 20
M  V30 20 2 20 21
M  V30 21 1 20 22
M  V30 22 1 22 23
M  V30 23 1 23 24
M  V30 24 2 24 25
M  V30 25 1 25 26
M  V30 26 2 26 27
M  V30 27 1 27 28
M  V30 28 1 28 29
M  V30 29 2 28 30
M  V30 30 2 28 31
M  V30 31 1 27 32
M  V30 32 2 32 33
M  V30 33 1 22 5
M  V30 34 1 33 24
M  V30 35 1 12 7
M  V30 36 1 19 13
M  V30 37 1 1 34
M  V30 38 1 1 35
M  V30 39 1 1 36
M  V30 40 1 2 37
M  V30 41 1 2 38
M  V30 42 1 8 39
M  V30 43 1 9 40
M  V30 44 1 10 41
M  V30 45 1 11 42
M  V30 46 1 12 43
M  V30 47 1 14 44
M  V30 48 1 17 45
M  V30 49 1 18 46
M  V30 50 1 23 47
M  V30 51 1 23 48
M  V30 52 1 25 49
M  V30 53 1 26 50
M  V30 54 1 29 51
M  V30 55 1 29 52
M  V30 56 1 29 53
M  V30 57 1 32 54
M  V30 58 1 33 55
M  V30 END BOND
M  V30 END CTAB
M  END
>  <Dataset>  (218) 
ChEMBL_Kinases

>  <Ligand_Instance>  (218) 
nan

>  <PDB_ID>  (218) 
nan

>  <Standardized_SMILES>  (218) 
CCC(=O)c1c(-c2ccccc2)c2cc(Cl)ccc2c(=O)n1Cc1ccc(S(C)(=O)=O)cc1

>  <Name>  (218) 
nan

>  <Pocket>  (218) 
nan

>  <ATP_Site>  (218) 
nan

>  <Peripheral>  (218) 
nan

>  <Num_H_Atoms_ProtBoundConf>  (218) 
nan

>  <Num_Resolved_Atoms>  (218) 
nan

>  <Num_Not_Resolved_Atoms>  (218) 
nan

$$$$
CHEMBL259706
     RDKit          3D

  0  0  0  0  0  0  0  0  0  0999 V3000
M  V30 BEGIN CTAB
M  V30 COUNTS 50 53 0 0 0
M  V30 BEGIN ATOM
M  V30 1 C -0.490569 -3.476185 3.539024 0
M  V30 2 O -0.778243 -2.418245 2.696399 0
M  V30 3 C -0.004533 -1.378390 2.302687 0
M  V30 4 O 0.996192 -1.743421 2.965645 0
M  V30 5 C 0.023146 -0.177931 1.493545 0
M  V30 6 C 1.214152 0.500895 1.555172 0
M  V30 7 C 2.374731 0.076074 2.309920 0
M  V30 8 C 2.532380 0.487347 3.633294 0
M  V30 9 C 3.667316 0.045885 4.303494 0
M  V30 10 C 4.588767 -0.773864 3.646855 0
M  V30 11 C 4.410241 -1.167012 2.337035 0
M  V30 12 C 3.292218 -0.734481 1.670433 0
M  V30 13 C 1.339241 1.685817 0.849347 0
M  V30 14 C 2.517757 2.402243 0.882137 0
M  V30 15 C 2.667021 3.585198 0.188355 0
M  V30 16 Br 4.284925 4.590893 0.218685 0
M  V30 17 C 1.581032 4.019084 -0.541084 0
M  V30 18 C 0.399359 3.309611 -0.579845 0
M  V30 19 C 0.238910 2.126125 0.109702 0
M  V30 20 C -0.900312 1.348080 0.132131 0
M  V30 21 O -1.806971 1.883701 -0.586679 0
M  V30 22 N -1.059357 0.204690 0.795977 0
M  V30 23 C -2.294891 -0.502120 0.737086 0
M  V30 24 C -2.471699 -1.420567 -0.380580 0
M  V30 25 C -2.104309 -2.734335 -0.543127 0
M  V30 26 C -2.313896 -3.539724 -1.635848 0
M  V30 27 C -2.969447 -2.992431 -2.715757 0
M  V30 28 C -3.197879 -3.832568 -3.880753 0
M  V30 29 O -2.785477 -5.018844 -3.848935 0
M  V30 30 O -3.842018 -3.395952 -5.015467 0
M  V30 31 C -3.378994 -1.679382 -2.649643 0
M  V30 32 C -3.134990 -0.925424 -1.517239 0
M  V30 33 H -1.222195 -3.406569 4.398611 0
M  V30 34 H -0.723527 -4.478900 3.074670 0
M  V30 35 H 0.490419 -3.516878 4.002019 0
M  V30 36 H 1.805867 1.126800 4.132792 0
M  V30 37 H 3.829799 0.336167 5.319654 0
M  V30 38 H 5.490980 -1.142232 4.134765 0
M  V30 39 H 5.125030 -1.806495 1.817785 0
M  V30 40 H 3.129677 -1.031710 0.635763 0
M  V30 41 H 3.360445 2.027127 1.472295 0
M  V30 42 H 1.653028 4.941434 -1.100810 0
M  V30 43 H -0.445642 3.661805 -1.156449 0
M  V30 44 H -3.120236 0.258526 0.711376 0
M  V30 45 H -2.411696 -1.072441 1.685661 0
M  V30 46 H -1.591286 -3.187016 0.283926 0
M  V30 47 H -1.970414 -4.564292 -1.632261 0
M  V30 48 H -3.677257 -3.878892 -5.892983 0
M  V30 49 H -3.881965 -1.339079 -3.538280 0
M  V30 50 H -3.533310 0.076439 -1.651235 0
M  V30 END ATOM
M  V30 BEGIN BOND
M  V30 1 1 1 2
M  V30 2 1 2 3
M  V30 3 2 3 4
M  V30 4 1 3 5
M  V30 5 2 5 6
M  V30 6 1 6 7
M  V30 7 2 7 8
M  V30 8 1 8 9
M  V30 9 2 9 10
M  V30 10 1 10 11
M  V30 11 2 11 12
M  V30 12 1 6 13
M  V30 13 2 13 14
M  V30 14 1 14 15
M  V30 15 1 15 16
M  V30 16 2 15 17
M  V30 17 1 17 18
M  V30 18 2 18 19
M  V30 19 1 19 20
M  V30 20 2 20 21
M  V30 21 1 20 22
M  V30 22 1 22 23
M  V30 23 1 23 24
M  V30 24 2 24 25
M  V30 25 1 25 26
M  V30 26 2 26 27
M  V30 27 1 27 28
M  V30 28 2 28 29
M  V30 29 1 28 30
M  V30 30 1 27 31
M  V30 31 2 31 32
M  V30 32 1 22 5
M  V30 33 1 32 24
M  V30 34 1 12 7
M  V30 35 1 19 13
M  V30 36 1 1 33
M  V30 37 1 1 34
M  V30 38 1 1 35
M  V30 39 1 8 36
M  V30 40 1 9 37
M  V30 41 1 10 38
M  V30 42 1 11 39
M  V30 43 1 12 40
M  V30 44 1 14 41
M  V30 45 1 17 42
M  V30 46 1 18 43
M  V30 47 1 23 44
M  V30 48 1 23 45
M  V30 49 1 25 46
M  V30 50 1 26 47
M  V30 51 1 30 48
M  V30 52 1 31 49
M  V30 53 1 32 50
M  V30 END BOND
M  V30 END CTAB
M  END
>  <Dataset>  (219) 
ChEMBL_Kinases

>  <Ligand_Instance>  (219) 
nan

>  <PDB_ID>  (219) 
nan

>  <Standardized_SMILES>  (219) 
COC(=O)c1c(-c2ccccc2)c2cc(Br)ccc2c(=O)n1Cc1ccc(C(=O)O)cc1

>  <Name>  (219) 
nan

>  <Pocket>  (219) 
nan

>  <ATP_Site>  (219) 
nan

>  <Peripheral>  (219) 
nan

>  <Num_H_Atoms_ProtBoundConf>  (219) 
nan

>  <Num_Resolved_Atoms>  (219) 
nan

>  <Num_Not_Resolved_Atoms>  (219) 
nan

$$$$
CHEMBL259812
     RDKit          3D

  0  0  0  0  0  0  0  0  0  0999 V3000
M  V30 BEGIN CTAB
M  V30 COUNTS 53 56 0 0 0
M  V30 BEGIN ATOM
M  V30 1 C 1.380406 -2.100677 4.287340 0
M  V30 2 O 0.998836 -1.073443 3.402672 0
M  V30 3 C -0.113360 -1.104700 2.581208 0
M  V30 4 O -0.269879 -2.221624 3.111752 0
M  V30 5 C -0.502613 -0.051147 1.675452 0
M  V30 6 C 0.329845 1.041119 1.686556 0
M  V30 7 C 1.527002 1.121794 2.514086 0
M  V30 8 C 1.408420 1.653359 3.798317 0
M  V30 9 C 2.553743 1.720578 4.564689 0
M  V30 10 C 3.812375 1.302928 4.162327 0
M  V30 11 C 3.891667 0.776299 2.870148 0
M  V30 12 C 2.761757 0.697429 2.082296 0
M  V30 13 C 0.010111 2.104458 0.874616 0
M  V30 14 C 0.799459 3.226599 0.838365 0
M  V30 15 C 0.493714 4.301024 0.031104 0
M  V30 16 Cl 1.504866 5.715877 -0.003020 0
M  V30 17 C -0.640944 4.216776 -0.748818 0
M  V30 18 C -1.410204 3.075573 -0.687592 0
M  V30 19 C -1.130188 1.981406 0.111670 0
M  V30 20 C -1.911978 0.848307 0.158978 0
M  V30 21 O -2.906357 0.920968 -0.603130 0
M  V30 22 N -1.616134 -0.202255 0.945380 0
M  V30 23 C -2.489321 -1.353820 0.942488 0
M  V30 24 C -2.193061 -2.353629 -0.093466 0
M  V30 25 C -1.324686 -3.418042 -0.061946 0
M  V30 26 C -1.090717 -4.329541 -1.065834 0
M  V30 27 C -1.791735 -4.181872 -2.244207 0
M  V30 28 S -1.490407 -5.342894 -3.516583 0
M  V30 29 C -0.171365 -4.802480 -4.582399 0
M  V30 30 O -1.229034 -6.719013 -3.010778 0
M  V30 31 O -2.716394 -5.430716 -4.391840 0
M  V30 32 C -2.684708 -3.136519 -2.355840 0
M  V30 33 C -2.876411 -2.253918 -1.313164 0
M  V30 34 H 2.315776 -1.794873 4.805001 0
M  V30 35 H 0.581961 -2.285325 5.064055 0
M  V30 36 H 1.586129 -3.047408 3.753484 0
M  V30 37 H 0.463780 2.011090 4.212416 0
M  V30 38 H 2.469778 2.136442 5.573976 0
M  V30 39 H 4.663802 1.390233 4.826573 0
M  V30 40 H 4.875465 0.450397 2.557029 0
M  V30 41 H 2.846092 0.285809 1.083947 0
M  V30 42 H 1.689271 3.254005 1.471029 0
M  V30 43 H -0.929351 5.044159 -1.408997 0
M  V30 44 H -2.306767 3.041910 -1.321770 0
M  V30 45 H -2.522853 -1.817831 1.950113 0
M  V30 46 H -3.525310 -0.952450 0.763130 0
M  V30 47 H -0.766244 -3.557527 0.847305 0
M  V30 48 H -0.378687 -5.127227 -0.918488 0
M  V30 49 H 0.202710 -5.662841 -5.154413 0
M  V30 50 H -0.457034 -3.948080 -5.202065 0
M  V30 51 H 0.656549 -4.447321 -3.906693 0
M  V30 52 H -3.184694 -3.102845 -3.312303 0
M  V30 53 H -3.607010 -1.512503 -1.576552 0
M  V30 END ATOM
M  V30 BEGIN BOND
M  V30 1 1 1 2
M  V30 2 1 2 3
M  V30 3 2 3 4
M  V30 4 1 3 5
M  V30 5 2 5 6
M  V30 6 1 6 7
M  V30 7 2 7 8
M  V30 8 1 8 9
M  V30 9 2 9 10
M  V30 10 1 10 11
M  V30 11 2 11 12
M  V30 12 1 6 13
M  V30 13 2 13 14
M  V30 14 1 14 15
M  V30 15 1 15 16
M  V30 16 2 15 17
M  V30 17 1 17 18
M  V30 18 2 18 19
M  V30 19 1 19 20
M  V30 20 2 20 21
M  V30 21 1 20 22
M  V30 22 1 22 23
M  V30 23 1 23 24
M  V30 24 2 24 25
M  V30 25 1 25 26
M  V30 26 2 26 27
M  V30 27 1 27 28
M  V30 28 1 28 29
M  V30 29 2 28 30
M  V30 30 2 28 31
M  V30 31 1 27 32
M  V30 32 2 32 33
M  V30 33 1 22 5
M  V30 34 1 33 24
M  V30 35 1 12 7
M  V30 36 1 19 13
M  V30 37 1 1 34
M  V30 38 1 1 35
M  V30 39 1 1 36
M  V30 40 1 8 37
M  V30 41 1 9 38
M  V30 42 1 10 39
M  V30 43 1 11 40
M  V30 44 1 12 41
M  V30 45 1 14 42
M  V30 46 1 17 43
M  V30 47 1 18 44
M  V30 48 1 23 45
M  V30 49 1 23 46
M  V30 50 1 25 47
M  V30 51 1 26 48
M  V30 52 1 29 49
M  V30 53 1 29 50
M  V30 54 1 29 51
M  V30 55 1 32 52
M  V30 56 1 33 53
M  V30 END BOND
M  V30 END CTAB
M  END
>  <Dataset>  (220) 
ChEMBL_Kinases

>  <Ligand_Instance>  (220) 
nan

>  <PDB_ID>  (220) 
nan

>  <Standardized_SMILES>  (220) 
COC(=O)c1c(-c2ccccc2)c2cc(Cl)ccc2c(=O)n1Cc1ccc(S(C)(=O)=O)cc1

>  <Name>  (220) 
nan

>  <Pocket>  (220) 
nan

>  <ATP_Site>  (220) 
nan

>  <Peripheral>  (220) 
nan

>  <Num_H_Atoms_ProtBoundConf>  (220) 
nan

>  <Num_Resolved_Atoms>  (220) 
nan

>  <Num_Not_Resolved_Atoms>  (220) 
nan

$$$$
CHEMBL259916
     RDKit          3D

  0  0  0  0  0  0  0  0  0  0999 V3000
M  V30 BEGIN CTAB
M  V30 COUNTS 53 56 0 0 0
M  V30 BEGIN ATOM
M  V30 1 C 4.781933 -4.338581 5.939680 0
M  V30 2 O 4.375359 -3.486594 4.859588 0
M  V30 3 C 3.300027 -2.595656 5.008685 0
M  V30 4 O 2.658484 -2.519273 6.101776 0
M  V30 5 C 2.974930 -1.777852 3.843772 0
M  V30 6 C 3.652482 -1.837415 2.642684 0
M  V30 7 C 3.286002 -1.030482 1.583094 0
M  V30 8 C 2.223793 -0.121426 1.665880 0
M  V30 9 C 1.931745 0.684200 0.458473 0
M  V30 10 N 0.938538 0.129865 -0.410627 0
M  V30 11 C -0.379040 0.383991 -0.381200 0
M  V30 12 C -0.882162 1.353299 0.575944 0
M  V30 13 O -0.752094 2.185020 1.495615 0
M  V30 14 O -2.189946 1.720922 0.743380 0
M  V30 15 C -2.710812 2.644364 1.647964 0
M  V30 16 C -1.354040 -0.148325 -1.185569 0
M  V30 17 C -2.767136 0.189250 -1.077487 0
M  V30 18 C -3.348130 1.243758 -1.787110 0
M  V30 19 C -4.704665 1.498655 -1.626391 0
M  V30 20 C -5.487012 0.735026 -0.783819 0
M  V30 21 C -4.921372 -0.295738 -0.089554 0
M  V30 22 C -3.573905 -0.570689 -0.231281 0
M  V30 23 C -0.950066 -1.051722 -2.143091 0
M  V30 24 C -1.865405 -1.634556 -2.993926 0
M  V30 25 C -1.478606 -2.540763 -3.958571 0
M  V30 26 Br -2.732679 -3.346342 -5.132385 0
M  V30 27 C -0.140646 -2.854429 -4.054135 0
M  V30 28 C 0.741198 -2.249557 -3.184589 0
M  V30 29 C 0.396262 -1.337725 -2.205180 0
M  V30 30 C 1.305813 -0.754230 -1.354372 0
M  V30 31 O 2.482212 -1.139336 -1.565203 0
M  V30 32 C 1.590815 -0.109333 2.884522 0
M  V30 33 C 1.922311 -0.894337 3.964723 0
M  V30 34 H 5.732895 -4.805013 5.587635 0
M  V30 35 H 4.938917 -3.742094 6.869026 0
M  V30 36 H 4.048201 -5.148853 6.059153 0
M  V30 37 H 4.454194 -2.552077 2.642752 0
M  V30 38 H 3.924845 -1.209053 0.733867 0
M  V30 39 H 1.655036 1.729422 0.760204 0
M  V30 40 H 2.878499 0.820963 -0.141999 0
M  V30 41 H -3.812382 2.759954 1.567421 0
M  V30 42 H -2.529963 2.257940 2.681947 0
M  V30 43 H -2.293833 3.660171 1.599063 0
M  V30 44 H -2.711801 1.833526 -2.446621 0
M  V30 45 H -5.114019 2.327432 -2.197023 0
M  V30 46 H -6.548878 0.944911 -0.666539 0
M  V30 47 H -5.497772 -0.916825 0.579370 0
M  V30 48 H -3.115418 -1.384987 0.314003 0
M  V30 49 H -2.923971 -1.381479 -2.912670 0
M  V30 50 H 0.230110 -3.561583 -4.793263 0
M  V30 51 H 1.796297 -2.527871 -3.295528 0
M  V30 52 H 0.781030 0.562158 3.000054 0
M  V30 53 H 1.369891 -0.814615 4.875465 0
M  V30 END ATOM
M  V30 BEGIN BOND
M  V30 1 1 1 2
M  V30 2 1 2 3
M  V30 3 2 3 4
M  V30 4 1 3 5
M  V30 5 2 5 6
M  V30 6 1 6 7
M  V30 7 2 7 8
M  V30 8 1 8 9
M  V30 9 1 9 10
M  V30 10 1 10 11
M  V30 11 1 11 12
M  V30 12 2 12 13
M  V30 13 1 12 14
M  V30 14 1 14 15
M  V30 15 2 11 16
M  V30 16 1 16 17
M  V30 17 2 17 18
M  V30 18 1 18 19
M  V30 19 2 19 20
M  V30 20 1 20 21
M  V30 21 2 21 22
M  V30 22 1 16 23
M  V30 23 2 23 24
M  V30 24 1 24 25
M  V30 25 1 25 26
M  V30 26 2 25 27
M  V30 27 1 27 28
M  V30 28 2 28 29
M  V30 29 1 29 30
M  V30 30 2 30 31
M  V30 31 1 8 32
M  V30 32 2 32 33
M  V30 33 1 33 5
M  V30 34 1 30 10
M  V30 35 1 22 17
M  V30 36 1 29 23
M  V30 37 1 1 34
M  V30 38 1 1 35
M  V30 39 1 1 36
M  V30 40 1 6 37
M  V30 41 1 7 38
M  V30 42 1 9 39
M  V30 43 1 9 40
M  V30 44 1 15 41
M  V30 45 1 15 42
M  V30 46 1 15 43
M  V30 47 1 18 44
M  V30 48 1 19 45
M  V30 49 1 20 46
M  V30 50 1 21 47
M  V30 51 1 22 48
M  V30 52 1 24 49
M  V30 53 1 27 50
M  V30 54 1 28 51
M  V30 55 1 32 52
M  V30 56 1 33 53
M  V30 END BOND
M  V30 END CTAB
M  END
>  <Dataset>  (221) 
ChEMBL_Kinases

>  <Ligand_Instance>  (221) 
nan

>  <PDB_ID>  (221) 
nan

>  <Standardized_SMILES>  (221) 
COC(=O)c1ccc(Cn2c(C(=O)OC)c(-c3ccccc3)c3cc(Br)ccc3c2=O)cc1

>  <Name>  (221) 
nan

>  <Pocket>  (221) 
nan

>  <ATP_Site>  (221) 
nan

>  <Peripheral>  (221) 
nan

>  <Num_H_Atoms_ProtBoundConf>  (221) 
nan

>  <Num_Resolved_Atoms>  (221) 
nan

>  <Num_Not_Resolved_Atoms>  (221) 
nan

$$$$
CHEMBL259922
     RDKit          3D

  0  0  0  0  0  0  0  0  0  0999 V3000
M  V30 BEGIN CTAB
M  V30 COUNTS 48 52 0 0 0
M  V30 BEGIN ATOM
M  V30 1 C 0.371679 -1.783911 -1.879705 0
M  V30 2 C 1.381775 -0.909427 -1.189266 0
M  V30 3 C 2.676482 -1.389371 -1.189531 0
M  V30 4 C 3.588623 -0.564489 -0.563469 0
M  V30 5 C 3.224241 0.633025 0.007548 0
M  V30 6 C 4.266019 1.423146 0.646631 0
M  V30 7 O 5.422657 0.885002 0.765586 0
M  V30 8 N 4.204268 2.725853 1.175024 0
M  V30 9 C 5.369939 3.340932 1.794112 0
M  V30 10 C 5.808120 3.877557 0.524301 0
M  V30 11 C 6.973599 4.646572 0.382067 0
M  V30 12 O 7.252848 4.557520 1.696300 0
M  V30 13 N 6.413150 3.891539 2.347453 0
M  V30 14 C 1.914315 1.062382 -0.022510 0
M  V30 15 C 0.931381 0.288861 -0.633314 0
M  V30 16 N -0.432598 0.598433 -0.741309 0
M  V30 17 C -1.698003 0.134087 -0.355027 0
M  V30 18 N -2.778065 0.785078 -0.886540 0
M  V30 19 C -3.971890 0.298395 -0.482166 0
M  V30 20 N -4.190327 -0.728168 0.362907 0
M  V30 21 C -3.128793 -1.363082 0.881640 0
M  V30 22 C -1.864496 -0.920698 0.513720 0
M  V30 23 C -1.010807 -1.751605 1.203520 0
M  V30 24 N -1.707934 -2.638575 1.938768 0
M  V30 25 N -2.993451 -2.406565 1.745625 0
M  V30 26 C -4.037805 -3.164657 2.365483 0
M  V30 27 C -3.782698 -4.488164 2.719392 0
M  V30 28 C -4.664691 -5.341939 3.313313 0
M  V30 29 C -5.913008 -4.825513 3.576788 0
M  V30 30 C -6.206574 -3.541826 3.250053 0
M  V30 31 C -5.314129 -2.673996 2.647441 0
M  V30 32 H 0.729431 -2.095352 -2.891039 0
M  V30 33 H -0.567190 -1.234450 -2.072496 0
M  V30 34 H 0.181162 -2.726421 -1.331096 0
M  V30 35 H 2.919577 -2.327817 -1.647132 0
M  V30 36 H 4.626054 -0.928621 -0.552179 0
M  V30 37 H 3.265412 3.200323 1.090557 0
M  V30 38 H 5.622828 3.987014 -0.597596 0
M  V30 39 H 7.872549 5.239316 0.274398 0
M  V30 40 H 1.596430 1.990023 0.411613 0
M  V30 41 H -0.343958 1.480980 -1.318210 0
M  V30 42 H -4.893493 0.741641 -0.840181 0
M  V30 43 H 0.046421 -1.705216 1.173680 0
M  V30 44 H -2.781651 -4.860543 2.493930 0
M  V30 45 H -4.336449 -6.352272 3.534495 0
M  V30 46 H -6.646670 -5.468151 4.047170 0
M  V30 47 H -7.191114 -3.109841 3.448692 0
M  V30 48 H -5.459143 -1.654218 2.355287 0
M  V30 END ATOM
M  V30 BEGIN BOND
M  V30 1 1 1 2
M  V30 2 2 2 3
M  V30 3 1 3 4
M  V30 4 2 4 5
M  V30 5 1 5 6
M  V30 6 2 6 7
M  V30 7 1 6 8
M  V30 8 1 8 9
M  V30 9 1 9 10
M  V30 10 2 10 11
M  V30 11 1 11 12
M  V30 12 1 12 13
M  V30 13 1 5 14
M  V30 14 2 14 15
M  V30 15 1 15 16
M  V30 16 1 16 17
M  V30 17 2 17 18
M  V30 18 1 18 19
M  V30 19 2 19 20
M  V30 20 1 20 21
M  V30 21 2 21 22
M  V30 22 1 22 23
M  V30 23 2 23 24
M  V30 24 1 24 25
M  V30 25 1 25 26
M  V30 26 2 26 27
M  V30 27 1 27 28
M  V30 28 2 28 29
M  V30 29 1 29 30
M  V30 30 2 30 31
M  V30 31 1 15 2
M  V30 32 1 22 17
M  V30 33 1 31 26
M  V30 34 2 13 9
M  V30 35 1 25 21
M  V30 36 1 1 32
M  V30 37 1 1 33
M  V30 38 1 1 34
M  V30 39 1 3 35
M  V30 40 1 4 36
M  V30 41 1 8 37
M  V30 42 1 10 38
M  V30 43 1 11 39
M  V30 44 1 14 40
M  V30 45 1 16 41
M  V30 46 1 19 42
M  V30 47 1 23 43
M  V30 48 1 27 44
M  V30 49 1 28 45
M  V30 50 1 29 46
M  V30 51 1 30 47
M  V30 52 1 31 48
M  V30 END BOND
M  V30 END CTAB
M  END
>  <Dataset>  (222) 
ChEMBL_Kinases

>  <Ligand_Instance>  (222) 
nan

>  <PDB_ID>  (222) 
nan

>  <Standardized_SMILES>  (222) 
Cc1ccc(C(=O)Nc2ccon2)cc1Nc1ncnc2c1cnn2-c1ccccc1

>  <Name>  (222) 
nan

>  <Pocket>  (222) 
nan

>  <ATP_Site>  (222) 
nan

>  <Peripheral>  (222) 
nan

>  <Num_H_Atoms_ProtBoundConf>  (222) 
nan

>  <Num_Resolved_Atoms>  (222) 
nan

>  <Num_Not_Resolved_Atoms>  (222) 
nan

$$$$
CHEMBL259934
     RDKit          3D

  0  0  0  0  0  0  0  0  0  0999 V3000
M  V30 BEGIN CTAB
M  V30 COUNTS 53 56 0 0 0
M  V30 BEGIN ATOM
M  V30 1 C 2.683184 -3.118790 1.106859 0
M  V30 2 O 2.045871 -1.878895 1.164528 0
M  V30 3 C 0.684881 -1.656244 1.215336 0
M  V30 4 O 0.597809 -2.880739 1.181488 0
M  V30 5 C 0.041071 -0.355758 1.275236 0
M  V30 6 C 0.903848 0.715719 1.282928 0
M  V30 7 C 2.343454 0.562408 1.203474 0
M  V30 8 C 2.943147 0.550226 -0.039985 0
M  V30 9 C 4.302767 0.410826 -0.242694 0
M  V30 10 C 5.124401 0.274556 0.852716 0
M  V30 11 C 4.550705 0.283314 2.108957 0
M  V30 12 C 3.173997 0.425027 2.300828 0
M  V30 13 C 0.334342 1.966132 1.370688 0
M  V30 14 C 1.134651 3.089839 1.384114 0
M  V30 15 C 0.557683 4.348283 1.472839 0
M  V30 16 Br 1.627913 5.934187 1.494776 0
M  V30 17 C -0.818078 4.449431 1.546474 0
M  V30 18 C -1.607125 3.309478 1.531699 0
M  V30 19 C -1.038040 2.073795 1.444453 0
M  V30 20 C -1.807452 0.936740 1.428517 0
M  V30 21 O -3.056394 1.076520 1.497706 0
M  V30 22 N -1.297858 -0.327151 1.342525 0
M  V30 23 C -2.201466 -1.444609 1.353600 0
M  V30 24 C -2.782413 -1.842284 0.048376 0
M  V30 25 C -3.692010 -3.034143 0.300511 0
M  V30 26 C -4.095622 -3.605754 -1.062000 0
M  V30 27 C -2.904637 -4.303707 -1.628003 0
M  V30 28 C -1.622421 -3.541532 -1.382972 0
M  V30 29 C -1.881929 -2.080155 -1.092126 0
M  V30 30 H 3.786256 -2.935687 1.229421 0
M  V30 31 H 2.403256 -3.700162 2.009412 0
M  V30 32 H 2.567478 -3.653052 0.155049 0
M  V30 33 H 2.295880 0.658451 -0.922484 0
M  V30 34 H 4.750397 0.403990 -1.223474 0
M  V30 35 H 6.203450 0.159765 0.787466 0
M  V30 36 H 5.104092 0.182625 3.054929 0
M  V30 37 H 2.715083 0.433210 3.277956 0
M  V30 38 H 2.220694 2.984352 1.324696 0
M  V30 39 H -1.298620 5.421597 1.616796 0
M  V30 40 H -2.700008 3.410860 1.591173 0
M  V30 41 H -3.070630 -1.123557 2.004257 0
M  V30 42 H -1.781097 -2.315974 1.920274 0
M  V30 43 H -3.489198 -0.995932 -0.234861 0
M  V30 44 H -3.081339 -3.789967 0.828462 0
M  V30 45 H -4.571927 -2.684325 0.842964 0
M  V30 46 H -4.910296 -4.326702 -0.860596 0
M  V30 47 H -4.399634 -2.779934 -1.736459 0
M  V30 48 H -2.868068 -5.336296 -1.224686 0
M  V30 49 H -3.085977 -4.439082 -2.734351 0
M  V30 50 H -1.060820 -4.075710 -0.621726 0
M  V30 51 H -1.041619 -3.579478 -2.330830 0
M  V30 52 H -2.416580 -1.717199 -2.031336 0
M  V30 53 H -0.928988 -1.552495 -1.115293 0
M  V30 END ATOM
M  V30 BEGIN BOND
M  V30 1 1 1 2
M  V30 2 1 2 3
M  V30 3 2 3 4
M  V30 4 1 3 5
M  V30 5 2 5 6
M  V30 6 1 6 7
M  V30 7 2 7 8
M  V30 8 1 8 9
M  V30 9 2 9 10
M  V30 10 1 10 11
M  V30 11 2 11 12
M  V30 12 1 6 13
M  V30 13 2 13 14
M  V30 14 1 14 15
M  V30 15 1 15 16
M  V30 16 2 15 17
M  V30 17 1 17 18
M  V30 18 2 18 19
M  V30 19 1 19 20
M  V30 20 2 20 21
M  V30 21 1 20 22
M  V30 22 1 22 23
M  V30 23 1 23 24
M  V30 24 1 24 25
M  V30 25 1 25 26
M  V30 26 1 26 27
M  V30 27 1 27 28
M  V30 28 1 28 29
M  V30 29 1 22 5
M  V30 30 1 29 24
M  V30 31 1 12 7
M  V30 32 1 19 13
M  V30 33 1 1 30
M  V30 34 1 1 31
M  V30 35 1 1 32
M  V30 36 1 8 33
M  V30 37 1 9 34
M  V30 38 1 10 35
M  V30 39 1 11 36
M  V30 40 1 12 37
M  V30 41 1 14 38
M  V30 42 1 17 39
M  V30 43 1 18 40
M  V30 44 1 23 41
M  V30 45 1 23 42
M  V30 46 1 24 43
M  V30 47 1 25 44
M  V30 48 1 25 45
M  V30 49 1 26 46
M  V30 50 1 26 47
M  V30 51 1 27 48
M  V30 52 1 27 49
M  V30 53 1 28 50
M  V30 54 1 28 51
M  V30 55 1 29 52
M  V30 56 1 29 53
M  V30 END BOND
M  V30 END CTAB
M  END
>  <Dataset>  (223) 
ChEMBL_Kinases

>  <Ligand_Instance>  (223) 
nan

>  <PDB_ID>  (223) 
nan

>  <Standardized_SMILES>  (223) 
COC(=O)c1c(-c2ccccc2)c2cc(Br)ccc2c(=O)n1CC1CCCCC1

>  <Name>  (223) 
nan

>  <Pocket>  (223) 
nan

>  <ATP_Site>  (223) 
nan

>  <Peripheral>  (223) 
nan

>  <Num_H_Atoms_ProtBoundConf>  (223) 
nan

>  <Num_Resolved_Atoms>  (223) 
nan

>  <Num_Not_Resolved_Atoms>  (223) 
nan

$$$$
CHEMBL259507
     RDKit          3D

  0  0  0  0  0  0  0  0  0  0999 V3000
M  V30 BEGIN CTAB
M  V30 COUNTS 54 57 0 0 0
M  V30 BEGIN ATOM
M  V30 1 C 1.489178 -1.611437 3.076657 0
M  V30 2 C 2.721119 -0.706884 2.936505 0
M  V30 3 C 2.241455 0.658742 3.279918 0
M  V30 4 C 3.741621 -1.240338 3.922469 0
M  V30 5 C 3.340902 -0.851008 1.568950 0
M  V30 6 C 4.532287 0.029222 1.445560 0
M  V30 7 C 4.611549 0.808541 0.146571 0
M  V30 8 C 3.319891 1.468898 -0.142222 0
M  V30 9 O 2.988748 2.666315 -0.533481 0
M  V30 10 N 1.677695 2.759235 -0.648483 0
M  V30 11 C 1.145821 1.582921 -0.320568 0
M  V30 12 C -0.258576 1.132586 -0.274112 0
M  V30 13 O -0.646900 -0.021293 0.056265 0
M  V30 14 N -1.346463 1.986000 -0.608992 0
M  V30 15 C -2.573202 1.240857 -0.459910 0
M  V30 16 C -3.413437 1.080530 0.638616 0
M  V30 17 N -4.428266 0.276886 0.229015 0
M  V30 18 N -4.254594 -0.055751 -1.039256 0
M  V30 19 C -5.141414 -0.912291 -1.836375 0
M  V30 20 C -4.694583 -2.316613 -1.697497 0
M  V30 21 C -5.231697 -3.080276 -0.668150 0
M  V30 22 C -4.838371 -4.387861 -0.511051 0
M  V30 23 C -3.920326 -5.017510 -1.326320 0
M  V30 24 F -3.495837 -6.283139 -1.227796 0
M  V30 25 C -3.397884 -4.233661 -2.347578 0
M  V30 26 C -3.775329 -2.937287 -2.518625 0
M  V30 27 C -3.119007 0.513009 -1.521739 0
M  V30 28 C 2.178355 0.728415 0.011080 0
M  V30 29 C 2.339579 -0.686770 0.458356 0
M  V30 30 H 1.402639 -1.812845 4.174290 0
M  V30 31 H 0.555845 -1.061110 2.832658 0
M  V30 32 H 1.603593 -2.576703 2.586928 0
M  V30 33 H 2.853326 1.499188 2.972972 0
M  V30 34 H 2.164659 0.691053 4.406270 0
M  V30 35 H 1.208759 0.814021 2.893436 0
M  V30 36 H 4.689554 -0.684640 3.874038 0
M  V30 37 H 3.314572 -1.316761 4.941905 0
M  V30 38 H 3.976252 -2.290559 3.624524 0
M  V30 39 H 3.683138 -1.906385 1.503031 0
M  V30 40 H 4.622302 0.787674 2.248477 0
M  V30 41 H 5.479760 -0.547141 1.494000 0
M  V30 42 H 5.390081 1.575199 0.269030 0
M  V30 43 H 4.908584 0.085978 -0.638511 0
M  V30 44 H -1.145042 2.985332 -0.903971 0
M  V30 45 H -3.210334 1.545578 1.586574 0
M  V30 46 H -6.174406 -0.825726 -1.414204 0
M  V30 47 H -5.173046 -0.565849 -2.896059 0
M  V30 48 H -5.951531 -2.685437 0.019388 0
M  V30 49 H -5.247771 -5.010314 0.293172 0
M  V30 50 H -2.662973 -4.647340 -3.044308 0
M  V30 51 H -3.399207 -2.273284 -3.302481 0
M  V30 52 H -2.723675 0.418950 -2.521091 0
M  V30 53 H 1.333819 -1.038849 0.768517 0
M  V30 54 H 2.599748 -1.273520 -0.447696 0
M  V30 END ATOM
M  V30 BEGIN BOND
M  V30 1 1 1 2
M  V30 2 1 2 3
M  V30 3 1 2 4
M  V30 4 1 2 5
M  V30 5 1 5 6
M  V30 6 1 6 7
M  V30 7 1 7 8
M  V30 8 1 8 9
M  V30 9 1 9 10
M  V30 10 2 10 11
M  V30 11 1 11 12
M  V30 12 2 12 13
M  V30 13 1 12 14
M  V30 14 1 14 15
M  V30 15 1 15 16
M  V30 16 2 16 17
M  V30 17 1 17 18
M  V30 18 1 18 19
M  V30 19 1 19 20
M  V30 20 2 20 21
M  V30 21 1 21 22
M  V30 22 2 22 23
M  V30 23 1 23 24
M  V30 24 1 23 25
M  V30 25 2 25 26
M  V30 26 1 18 27
M  V30 27 1 11 28
M  V30 28 1 28 29
M  V30 29 1 29 5
M  V30 30 2 28 8
M  V30 31 2 27 15
M  V30 32 1 26 20
M  V30 33 1 1 30
M  V30 34 1 1 31
M  V30 35 1 1 32
M  V30 36 1 3 33
M  V30 37 1 3 34
M  V30 38 1 3 35
M  V30 39 1 4 36
M  V30 40 1 4 37
M  V30 41 1 4 38
M  V30 42 1 5 39
M  V30 43 1 6 40
M  V30 44 1 6 41
M  V30 45 1 7 42
M  V30 46 1 7 43
M  V30 47 1 14 44
M  V30 48 1 16 45
M  V30 49 1 19 46
M  V30 50 1 19 47
M  V30 51 1 21 48
M  V30 52 1 22 49
M  V30 53 1 25 50
M  V30 54 1 26 51
M  V30 55 1 27 52
M  V30 56 1 29 53
M  V30 57 1 29 54
M  V30 END BOND
M  V30 END CTAB
M  END
>  <Dataset>  (224) 
ChEMBL_Kinases

>  <Ligand_Instance>  (224) 
nan

>  <PDB_ID>  (224) 
nan

>  <Standardized_SMILES>  (224) 
CC(C)(C)C1CCc2onc(C(=O)Nc3cnn(Cc4ccc(F)cc4)c3)c2C1

>  <Name>  (224) 
nan

>  <Pocket>  (224) 
nan

>  <ATP_Site>  (224) 
nan

>  <Peripheral>  (224) 
nan

>  <Num_H_Atoms_ProtBoundConf>  (224) 
nan

>  <Num_Resolved_Atoms>  (224) 
nan

>  <Num_Not_Resolved_Atoms>  (224) 
nan

$$$$
CHEMBL268054
     RDKit          3D

  0  0  0  0  0  0  0  0  0  0999 V3000
M  V30 BEGIN CTAB
M  V30 COUNTS 54 57 0 0 0
M  V30 BEGIN ATOM
M  V30 1 C -0.812647 -3.153237 -1.708336 0
M  V30 2 C -0.107975 -4.373654 -1.243483 0
M  V30 3 C 0.799841 -4.380444 -0.183341 0
M  V30 4 C 1.107167 -3.142094 0.514370 0
M  V30 5 C 1.056826 -3.232294 1.890557 0
M  V30 6 N 1.331399 -2.135916 2.618526 0
M  V30 7 C 1.652835 -0.955872 2.069380 0
M  V30 8 C 1.726888 -0.773389 0.707243 0
M  V30 9 O 2.006794 0.233009 -0.163212 0
M  V30 10 C 2.340643 1.563952 0.044531 0
M  V30 11 C 1.310066 2.386533 0.740112 0 CFG=1
M  V30 12 N 1.771107 3.764599 0.894059 0
M  V30 13 C 0.009380 2.467334 -0.021063 0
M  V30 14 C -0.939088 3.298693 0.745932 0
M  V30 15 C -1.330153 4.616864 0.513569 0
M  V30 16 N -2.216537 5.043008 1.429742 0
M  V30 17 C -2.420182 4.012374 2.275805 0
M  V30 18 C -3.218116 3.859473 3.401632 0
M  V30 19 C -3.209330 2.656107 4.067183 0
M  V30 20 C -2.441134 1.556305 3.684779 0
M  V30 21 C -1.649767 1.740975 2.549590 0
M  V30 22 C -1.646274 2.931338 1.875488 0
M  V30 23 C 1.442492 -1.911115 -0.065087 0
M  V30 24 C 1.399008 -5.589338 0.174970 0
M  V30 25 C 1.046085 -6.709843 -0.555873 0
M  V30 26 C 1.631878 -7.978731 -0.230824 0
M  V30 27 N 2.115032 -9.018706 0.038078 0
M  V30 28 C 0.148815 -6.693683 -1.601410 0
M  V30 29 O -0.159131 -7.727435 -2.254836 0
M  V30 30 N -0.414006 -5.510218 -1.924228 0
M  V30 31 C -1.360729 -5.502727 -3.029308 0
M  V30 32 H -0.367643 -2.666595 -2.577529 0
M  V30 33 H -1.888462 -3.413884 -1.946723 0
M  V30 34 H -0.914279 -2.381282 -0.903176 0
M  V30 35 H 0.806722 -4.144180 2.415119 0
M  V30 36 H 1.890939 -0.042890 2.578992 0
M  V30 37 H 3.291366 1.565344 0.662664 0
M  V30 38 H 2.611948 1.989304 -0.949803 0
M  V30 39 H 1.154410 2.007492 1.756319 0
M  V30 40 H 2.053192 4.001044 1.851194 0
M  V30 41 H 2.527263 3.977732 0.189159 0
M  V30 42 H 0.199108 2.909470 -1.013937 0
M  V30 43 H -0.444802 1.454018 -0.122195 0
M  V30 44 H -0.951859 5.213370 -0.315416 0
M  V30 45 H -2.683796 5.961245 1.521708 0
M  V30 46 H -3.851189 4.679272 3.764268 0
M  V30 47 H -3.822796 2.495748 4.956377 0
M  V30 48 H -2.462042 0.627731 4.234223 0
M  V30 49 H -1.059063 0.868092 2.268763 0
M  V30 50 H 1.435070 -2.039261 -1.150798 0
M  V30 51 H 2.108840 -5.629469 0.994545 0
M  V30 52 H -1.155995 -6.312392 -3.751480 0
M  V30 53 H -2.393267 -5.427813 -2.691680 0
M  V30 54 H -1.163894 -4.557417 -3.616438 0
M  V30 END ATOM
M  V30 BEGIN BOND
M  V30 1 1 1 2
M  V30 2 2 2 3
M  V30 3 1 3 4
M  V30 4 2 4 5
M  V30 5 1 5 6
M  V30 6 2 6 7
M  V30 7 1 7 8
M  V30 8 1 8 9
M  V30 9 1 9 10
M  V30 10 1 10 11
M  V30 11 1 11 12
M  V30 12 1 11 13
M  V30 13 1 13 14
M  V30 14 2 14 15
M  V30 15 1 15 16
M  V30 16 1 16 17
M  V30 17 2 17 18
M  V30 18 1 18 19
M  V30 19 2 19 20
M  V30 20 1 20 21
M  V30 21 2 21 22
M  V30 22 2 8 23
M  V30 23 1 3 24
M  V30 24 2 24 25
M  V30 25 1 25 26
M  V30 26 3 26 27
M  V30 27 1 25 28
M  V30 28 2 28 29
M  V30 29 1 28 30
M  V30 30 1 30 31
M  V30 31 1 30 2
M  V30 32 1 23 4
M  V30 33 1 22 14
M  V30 34 1 22 17
M  V30 35 1 1 32
M  V30 36 1 1 33
M  V30 37 1 1 34
M  V30 38 1 5 35
M  V30 39 1 7 36
M  V30 40 1 10 37
M  V30 41 1 10 38
M  V30 42 1 11 39 CFG=1
M  V30 43 1 12 40
M  V30 44 1 12 41
M  V30 45 1 13 42
M  V30 46 1 13 43
M  V30 47 1 15 44
M  V30 48 1 16 45
M  V30 49 1 18 46
M  V30 50 1 19 47
M  V30 51 1 20 48
M  V30 52 1 21 49
M  V30 53 1 23 50
M  V30 54 1 24 51
M  V30 55 1 31 52
M  V30 56 1 31 53
M  V30 57 1 31 54
M  V30 END BOND
M  V30 END CTAB
M  END
>  <Dataset>  (225) 
ChEMBL_Kinases

>  <Ligand_Instance>  (225) 
nan

>  <PDB_ID>  (225) 
nan

>  <Standardized_SMILES>  (225) 
Cc1c(-c2cncc(OC[C@@H](N)Cc3c[nH]c4ccccc34)c2)cc(C#N)c(=O)n1C

>  <Name>  (225) 
nan

>  <Pocket>  (225) 
nan

>  <ATP_Site>  (225) 
nan

>  <Peripheral>  (225) 
nan

>  <Num_H_Atoms_ProtBoundConf>  (225) 
nan

>  <Num_Resolved_Atoms>  (225) 
nan

>  <Num_Not_Resolved_Atoms>  (225) 
nan

$$$$
CHEMBL267930
     RDKit          3D

  0  0  0  0  0  0  0  0  0  0999 V3000
M  V30 BEGIN CTAB
M  V30 COUNTS 55 58 0 0 0
M  V30 BEGIN ATOM
M  V30 1 O -0.806806 -5.093178 1.701051 0
M  V30 2 C -0.203404 -4.467430 0.755638 0
M  V30 3 C 0.285537 -3.307254 1.472599 0
M  V30 4 C 1.122593 -2.333392 0.634999 0
M  V30 5 C 1.489393 -1.233973 1.619932 0
M  V30 6 N 2.277333 -0.188515 1.110520 0
M  V30 7 C 2.571030 0.787349 2.122967 0
M  V30 8 C 1.348167 1.622593 2.419510 0
M  V30 9 C 0.844170 2.339686 1.201154 0
M  V30 10 C 1.204795 1.717462 -0.084804 0
M  V30 11 C 1.923858 0.436588 -0.098330 0
M  V30 12 C 1.381817 3.747499 1.306352 0
M  V30 13 O 2.656837 3.788132 1.254430 0
M  V30 14 N 0.293003 4.652677 1.436155 0
M  V30 15 C -0.641747 3.806066 2.150859 0
M  V30 16 N -0.571302 2.574429 1.360375 0
M  V30 17 C -1.728721 1.882354 0.914315 0
M  V30 18 C -1.760946 0.576108 0.478463 0
M  V30 19 C -2.878004 -0.094466 0.031340 0
M  V30 20 C -4.080943 0.571687 0.006433 0
M  V30 21 C -4.111776 1.882380 0.431214 0
M  V30 22 C -2.959121 2.499115 0.867646 0
M  V30 23 C -0.246087 -5.114741 -0.546198 0
M  V30 24 C -0.917472 -6.314450 -0.594470 0
M  V30 25 C -0.980500 -6.960194 -1.819744 0
M  V30 26 C -0.394695 -6.422669 -2.943778 0
M  V30 27 F -0.492186 -7.102073 -4.107422 0
M  V30 28 C 0.275917 -5.234079 -2.917992 0
M  V30 29 C 0.323694 -4.615935 -1.694817 0
M  V30 30 H 0.979142 -3.561532 2.332107 0
M  V30 31 H -0.559753 -2.678138 1.873575 0
M  V30 32 H 0.430123 -1.932087 -0.121633 0
M  V30 33 H 1.998121 -2.802451 0.191942 0
M  V30 34 H 2.104606 -1.769322 2.405152 0
M  V30 35 H 0.561662 -0.957869 2.141129 0
M  V30 36 H 3.449533 1.427450 1.880432 0
M  V30 37 H 2.810208 0.251888 3.081691 0
M  V30 38 H 0.580403 0.949464 2.851083 0
M  V30 39 H 1.621946 2.327221 3.231885 0
M  V30 40 H 0.272831 1.672526 -0.722988 0
M  V30 41 H 1.835846 2.484384 -0.640888 0
M  V30 42 H 1.348469 -0.260570 -0.790175 0
M  V30 43 H 2.896063 0.556714 -0.682173 0
M  V30 44 H 0.480392 5.604533 1.002808 0
M  V30 45 H -0.210125 3.543856 3.147616 0
M  V30 46 H -1.632995 4.234611 2.235606 0
M  V30 47 H -0.865741 -0.008362 0.475386 0
M  V30 48 H -2.848762 -1.114980 -0.298412 0
M  V30 49 H -4.966819 0.065894 -0.339577 0
M  V30 50 H -5.084412 2.351051 0.388064 0
M  V30 51 H -3.145270 3.519486 1.162360 0
M  V30 52 H -1.421355 -6.845064 0.216225 0
M  V30 53 H -1.499886 -7.915568 -1.919366 0
M  V30 54 H 0.738585 -4.805658 -3.796712 0
M  V30 55 H 0.847836 -3.680191 -1.666285 0
M  V30 END ATOM
M  V30 BEGIN BOND
M  V30 1 2 1 2
M  V30 2 1 2 3
M  V30 3 1 3 4
M  V30 4 1 4 5
M  V30 5 1 5 6
M  V30 6 1 6 7
M  V30 7 1 7 8
M  V30 8 1 8 9
M  V30 9 1 9 10
M  V30 10 1 10 11
M  V30 11 1 9 12
M  V30 12 2 12 13
M  V30 13 1 12 14
M  V30 14 1 14 15
M  V30 15 1 15 16
M  V30 16 1 16 17
M  V30 17 2 17 18
M  V30 18 1 18 19
M  V30 19 2 19 20
M  V30 20 1 20 21
M  V30 21 2 21 22
M  V30 22 1 2 23
M  V30 23 2 23 24
M  V30 24 1 24 25
M  V30 25 2 25 26
M  V30 26 1 26 27
M  V30 27 1 26 28
M  V30 28 2 28 29
M  V30 29 1 11 6
M  V30 30 1 22 17
M  V30 31 1 29 23
M  V30 32 1 16 9
M  V30 33 1 3 30
M  V30 34 1 3 31
M  V30 35 1 4 32
M  V30 36 1 4 33
M  V30 37 1 5 34
M  V30 38 1 5 35
M  V30 39 1 7 36
M  V30 40 1 7 37
M  V30 41 1 8 38
M  V30 42 1 8 39
M  V30 43 1 10 40
M  V30 44 1 10 41
M  V30 45 1 11 42
M  V30 46 1 11 43
M  V30 47 1 14 44
M  V30 48 1 15 45
M  V30 49 1 15 46
M  V30 50 1 18 47
M  V30 51 1 19 48
M  V30 52 1 20 49
M  V30 53 1 21 50
M  V30 54 1 22 51
M  V30 55 1 24 52
M  V30 56 1 25 53
M  V30 57 1 28 54
M  V30 58 1 29 55
M  V30 END BOND
M  V30 END CTAB
M  END
>  <Dataset>  (226) 
ChEMBL_Kinases

>  <Ligand_Instance>  (226) 
nan

>  <PDB_ID>  (226) 
nan

>  <Standardized_SMILES>  (226) 
O=C(CCCN1CCC2(CC1)C(=O)NCN2c1ccccc1)c1ccc(F)cc1

>  <Name>  (226) 
SPIPERONE

>  <Pocket>  (226) 
nan

>  <ATP_Site>  (226) 
nan

>  <Peripheral>  (226) 
nan

>  <Num_H_Atoms_ProtBoundConf>  (226) 
nan

>  <Num_Resolved_Atoms>  (226) 
nan

>  <Num_Not_Resolved_Atoms>  (226) 
nan

$$$$
CHEMBL267837
     RDKit          3D

  0  0  0  0  0  0  0  0  0  0999 V3000
M  V30 BEGIN CTAB
M  V30 COUNTS 41 44 0 0 0
M  V30 BEGIN ATOM
M  V30 1 N 4.713525 -2.479275 2.368827 0
M  V30 2 S 4.304561 -2.404452 0.693129 0
M  V30 3 O 5.075059 -3.443803 -0.059779 0
M  V30 4 O 4.528800 -1.013632 0.185295 0
M  V30 5 C 2.568409 -2.698934 0.580691 0
M  V30 6 C 2.234355 -4.052467 0.452799 0
M  V30 7 C 0.896698 -4.373144 0.358357 0
M  V30 8 C -0.111909 -3.432720 0.384055 0
M  V30 9 C 0.288140 -2.126434 0.511924 0
M  V30 10 C 1.594141 -1.736241 0.609501 0
M  V30 11 C -0.924465 -1.334507 0.504099 0
M  V30 12 C -0.978541 -0.032710 0.609556 0
M  V30 13 C 0.087295 0.944236 0.758094 0
M  V30 14 C 0.500088 1.741201 -0.294970 0
M  V30 15 C 1.458993 2.723312 -0.193653 0
M  V30 16 C 2.072994 2.964785 1.004105 0
M  V30 17 C 1.697508 2.198511 2.082678 0
M  V30 18 C 0.747062 1.230329 1.967441 0
M  V30 19 C -2.229457 0.757366 0.686137 0
M  V30 20 C -3.264159 0.478512 1.588955 0
M  V30 21 C -4.325621 1.369283 1.420541 0
M  V30 22 C -3.896613 2.185145 0.397607 0
M  V30 23 N -2.683034 1.805167 -0.003925 0
M  V30 24 C -2.049538 -2.214452 0.364606 0
M  V30 25 O -3.263342 -1.942814 0.309913 0
M  V30 26 N -1.526272 -3.521640 0.291683 0
M  V30 27 H 4.899424 -3.479258 2.597235 0
M  V30 28 H 5.529101 -1.853621 2.601331 0
M  V30 29 H 2.969732 -4.840350 0.425319 0
M  V30 30 H 0.626495 -5.415710 0.258957 0
M  V30 31 H 2.033565 -0.789793 0.695041 0
M  V30 32 H 0.091048 1.636423 -1.283913 0
M  V30 33 H 1.771523 3.340274 -1.028859 0
M  V30 34 H 2.827851 3.723571 1.128666 0
M  V30 35 H 2.167808 2.372315 3.036148 0
M  V30 36 H 0.430134 0.605891 2.812477 0
M  V30 37 H -3.371211 -0.280719 2.380372 0
M  V30 38 H -5.261034 1.425161 1.949591 0
M  V30 39 H -4.461784 3.014490 -0.019449 0
M  V30 40 H -2.139699 2.261541 -0.763660 0
M  V30 41 H -2.074794 -4.406887 0.188158 0
M  V30 END ATOM
M  V30 BEGIN BOND
M  V30 1 1 1 2
M  V30 2 2 2 3
M  V30 3 2 2 4
M  V30 4 1 2 5
M  V30 5 2 5 6
M  V30 6 1 6 7
M  V30 7 2 7 8
M  V30 8 1 8 9
M  V30 9 2 9 10
M  V30 10 1 9 11
M  V30 11 2 11 12
M  V30 12 1 12 13
M  V30 13 2 13 14
M  V30 14 1 14 15
M  V30 15 2 15 16
M  V30 16 1 16 17
M  V30 17 2 17 18
M  V30 18 1 12 19
M  V30 19 2 19 20
M  V30 20 1 20 21
M  V30 21 2 21 22
M  V30 22 1 22 23
M  V30 23 1 11 24
M  V30 24 2 24 25
M  V30 25 1 24 26
M  V30 26 1 10 5
M  V30 27 1 18 13
M  V30 28 1 23 19
M  V30 29 1 26 8
M  V30 30 1 1 27
M  V30 31 1 1 28
M  V30 32 1 6 29
M  V30 33 1 7 30
M  V30 34 1 10 31
M  V30 35 1 14 32
M  V30 36 1 15 33
M  V30 37 1 16 34
M  V30 38 1 17 35
M  V30 39 1 18 36
M  V30 40 1 20 37
M  V30 41 1 21 38
M  V30 42 1 22 39
M  V30 43 1 23 40
M  V30 44 1 26 41
M  V30 END BOND
M  V30 END CTAB
M  END
>  <Dataset>  (227) 
ChEMBL_Kinases

>  <Ligand_Instance>  (227) 
nan

>  <PDB_ID>  (227) 
nan

>  <Standardized_SMILES>  (227) 
NS(=O)(=O)c1ccc2c(c1)/C(=C(\c1ccccc1)c1ccc[nH]1)C(=O)N2

>  <Name>  (227) 
nan

>  <Pocket>  (227) 
nan

>  <ATP_Site>  (227) 
nan

>  <Peripheral>  (227) 
nan

>  <Num_H_Atoms_ProtBoundConf>  (227) 
nan

>  <Num_Resolved_Atoms>  (227) 
nan

>  <Num_Not_Resolved_Atoms>  (227) 
nan

$$$$
CHEMBL266664
     RDKit          3D

  0  0  0  0  0  0  0  0  0  0999 V3000
M  V30 BEGIN CTAB
M  V30 COUNTS 54 58 0 0 0
M  V30 BEGIN ATOM
M  V30 1 C -0.563369 -2.829559 4.463305 0
M  V30 2 C 0.373518 -3.510329 3.481342 0 CFG=1
M  V30 3 C 0.394815 -2.777224 2.180770 0
M  V30 4 C 1.863120 -2.468410 1.865265 0
M  V30 5 C 2.394368 -1.683786 3.020369 0 CFG=2
M  V30 6 N 3.442162 -0.779231 2.774952 0
M  V30 7 C 3.162836 0.463953 2.149674 0
M  V30 8 C 2.460919 0.423438 0.852554 0
M  V30 9 C 3.220418 0.260294 -0.313941 0
M  V30 10 C 2.534720 0.255119 -1.528209 0
M  V30 11 C 1.162022 0.405203 -1.572611 0
M  V30 12 C 0.471848 0.561904 -0.386649 0
M  V30 13 C 1.064274 0.580256 0.868660 0
M  V30 14 C -0.996171 0.708138 -0.645463 0
M  V30 15 C -1.110859 0.621733 -2.125555 0
M  V30 16 C -1.943329 0.640975 -3.223899 0
M  V30 17 C -3.393365 0.814852 -3.043092 0
M  V30 18 C -4.047388 0.091815 -2.054981 0
M  V30 19 C -5.418321 0.215941 -1.838681 0
M  V30 20 C -6.125840 1.088760 -2.641940 0
M  V30 21 F -7.465529 1.254896 -2.481391 0
M  V30 22 C -5.511793 1.825447 -3.635079 0
M  V30 23 C -4.144169 1.686491 -3.833763 0
M  V30 24 N -1.207952 0.483474 -4.347509 0
M  V30 25 N 0.079481 0.362556 -4.007538 0
M  V30 26 C 0.174132 0.443330 -2.646274 0
M  V30 27 C 2.682120 -2.697022 4.120806 0
M  V30 28 C 1.695746 -3.839144 4.075076 0
M  V30 29 H -0.198836 -2.908000 5.509248 0
M  V30 30 H -1.585642 -3.252111 4.437206 0
M  V30 31 H -0.663824 -1.771106 4.162046 0
M  V30 32 H -0.124824 -4.500420 3.259450 0
M  V30 33 H -0.092881 -3.301024 1.351343 0
M  V30 34 H -0.110214 -1.779927 2.275430 0
M  V30 35 H 1.991917 -2.061947 0.875163 0
M  V30 36 H 2.349476 -3.486355 1.891345 0
M  V30 37 H 1.515377 -1.080765 3.432635 0
M  V30 38 H 3.978263 -0.595874 3.647660 0
M  V30 39 H 4.118501 1.047473 1.943569 0
M  V30 40 H 2.590877 1.164607 2.816485 0
M  V30 41 H 4.290886 0.147872 -0.210679 0
M  V30 42 H 3.106496 0.130316 -2.436520 0
M  V30 43 H 0.546398 0.699837 1.787809 0
M  V30 44 H -1.516053 -0.116081 -0.124252 0
M  V30 45 H -1.371545 1.706483 -0.361725 0
M  V30 46 H -3.498909 -0.590767 -1.425470 0
M  V30 47 H -5.900467 -0.356917 -1.065139 0
M  V30 48 H -6.081056 2.519069 -4.271634 0
M  V30 49 H -3.635632 2.264273 -4.619736 0
M  V30 50 H 0.849464 0.229998 -4.700845 0
M  V30 51 H 2.759178 -2.225480 5.121838 0
M  V30 52 H 3.681554 -3.123395 3.893010 0
M  V30 53 H 1.510397 -4.155411 5.127023 0
M  V30 54 H 2.133643 -4.731669 3.567240 0
M  V30 END ATOM
M  V30 BEGIN BOND
M  V30 1 1 1 2
M  V30 2 1 2 3
M  V30 3 1 3 4
M  V30 4 1 4 5
M  V30 5 1 5 6
M  V30 6 1 6 7
M  V30 7 1 7 8
M  V30 8 2 8 9
M  V30 9 1 9 10
M  V30 10 2 10 11
M  V30 11 1 11 12
M  V30 12 2 12 13
M  V30 13 1 12 14
M  V30 14 1 14 15
M  V30 15 1 15 16
M  V30 16 1 16 17
M  V30 17 2 17 18
M  V30 18 1 18 19
M  V30 19 2 19 20
M  V30 20 1 20 21
M  V30 21 1 20 22
M  V30 22 2 22 23
M  V30 23 2 16 24
M  V30 24 1 24 25
M  V30 25 1 25 26
M  V30 26 1 5 27
M  V30 27 1 27 28
M  V30 28 1 28 2
M  V30 29 1 13 8
M  V30 30 2 26 15
M  V30 31 1 26 11
M  V30 32 1 23 17
M  V30 33 1 1 29
M  V30 34 1 1 30
M  V30 35 1 1 31
M  V30 36 1 2 32 CFG=3
M  V30 37 1 3 33
M  V30 38 1 3 34
M  V30 39 1 4 35
M  V30 40 1 4 36
M  V30 41 1 5 37 CFG=1
M  V30 42 1 6 38
M  V30 43 1 7 39
M  V30 44 1 7 40
M  V30 45 1 9 41
M  V30 46 1 10 42
M  V30 47 1 13 43
M  V30 48 1 14 44
M  V30 49 1 14 45
M  V30 50 1 18 46
M  V30 51 1 19 47
M  V30 52 1 22 48
M  V30 53 1 23 49
M  V30 54 1 25 50
M  V30 55 1 27 51
M  V30 56 1 27 52
M  V30 57 1 28 53
M  V30 58 1 28 54
M  V30 END BOND
M  V30 END CTAB
M  END
>  <Dataset>  (228) 
ChEMBL_Kinases

>  <Ligand_Instance>  (228) 
nan

>  <PDB_ID>  (228) 
nan

>  <Standardized_SMILES>  (228) 
C[C@H]1CC[C@H](NCc2ccc3c(c2)Cc2c(-c4ccc(F)cc4)n[nH]c2-3)CC1

>  <Name>  (228) 
nan

>  <Pocket>  (228) 
nan

>  <ATP_Site>  (228) 
nan

>  <Peripheral>  (228) 
nan

>  <Num_H_Atoms_ProtBoundConf>  (228) 
nan

>  <Num_Resolved_Atoms>  (228) 
nan

>  <Num_Not_Resolved_Atoms>  (228) 
nan

$$$$
CHEMBL266591
     RDKit          3D

  0  0  0  0  0  0  0  0  0  0999 V3000
M  V30 BEGIN CTAB
M  V30 COUNTS 28 29 0 0 0
M  V30 BEGIN ATOM
M  V30 1 C 1.911343 -2.981949 1.759078 0
M  V30 2 C 1.439412 -1.946341 0.796472 0
M  V30 3 N 1.698413 -1.887938 -0.522291 0
M  V30 4 C 1.096353 -0.795129 -1.012932 0
M  V30 5 C 1.014667 -0.236041 -2.294949 0
M  V30 6 C 0.310692 0.937573 -2.587217 0
M  V30 7 C -0.347439 1.586117 -1.534821 0
M  V30 8 O -1.043020 2.735873 -1.795324 0
M  V30 9 C -0.247218 1.013157 -0.294624 0
M  V30 10 C 0.438548 -0.132933 -0.002272 0
M  V30 11 C 0.655535 -0.866252 1.158399 0
M  V30 12 C 0.110474 -0.489285 2.461104 0
M  V30 13 C -1.128615 -1.272859 2.871847 0
M  V30 14 N -1.508914 -0.760967 4.172697 0
M  V30 15 H 1.279056 -3.879152 1.729524 0
M  V30 16 H 1.965991 -2.597489 2.793533 0
M  V30 17 H 2.930888 -3.273982 1.443725 0
M  V30 18 H 2.276553 -2.583064 -1.075617 0
M  V30 19 H 1.524295 -0.723051 -3.133117 0
M  V30 20 H 0.282196 1.324178 -3.591346 0
M  V30 21 H -1.286558 3.462693 -1.132931 0
M  V30 22 H -0.756595 1.514214 0.511051 0
M  V30 23 H 0.894187 -0.791068 3.227234 0
M  V30 24 H -0.000944 0.597079 2.617763 0
M  V30 25 H -1.962771 -1.090494 2.159562 0
M  V30 26 H -0.838994 -2.322314 2.985291 0
M  V30 27 H -0.731741 -0.226155 4.608675 0
M  V30 28 H -1.770190 -1.567408 4.784095 0
M  V30 END ATOM
M  V30 BEGIN BOND
M  V30 1 1 1 2
M  V30 2 1 2 3
M  V30 3 1 3 4
M  V30 4 2 4 5
M  V30 5 1 5 6
M  V30 6 2 6 7
M  V30 7 1 7 8
M  V30 8 1 7 9
M  V30 9 2 9 10
M  V30 10 1 10 11
M  V30 11 1 11 12
M  V30 12 1 12 13
M  V30 13 1 13 14
M  V30 14 2 11 2
M  V30 15 1 10 4
M  V30 16 1 1 15
M  V30 17 1 1 16
M  V30 18 1 1 17
M  V30 19 1 3 18
M  V30 20 1 5 19
M  V30 21 1 6 20
M  V30 22 1 8 21
M  V30 23 1 9 22
M  V30 24 1 12 23
M  V30 25 1 12 24
M  V30 26 1 13 25
M  V30 27 1 13 26
M  V30 28 1 14 27
M  V30 29 1 14 28
M  V30 END BOND
M  V30 END CTAB
M  END
>  <Dataset>  (229) 
ChEMBL_Kinases

>  <Ligand_Instance>  (229) 
nan

>  <PDB_ID>  (229) 
nan

>  <Standardized_SMILES>  (229) 
Cc1[nH]c2ccc(O)cc2c1CCN

>  <Name>  (229) 
nan

>  <Pocket>  (229) 
nan

>  <ATP_Site>  (229) 
nan

>  <Peripheral>  (229) 
nan

>  <Num_H_Atoms_ProtBoundConf>  (229) 
nan

>  <Num_Resolved_Atoms>  (229) 
nan

>  <Num_Not_Resolved_Atoms>  (229) 
nan

$$$$
CHEMBL266540
     RDKit          3D

  0  0  0  0  0  0  0  0  0  0999 V3000
M  V30 BEGIN CTAB
M  V30 COUNTS 17 18 0 0 0
M  V30 BEGIN ATOM
M  V30 1 O -1.006750 -1.137755 -0.185052 0
M  V30 2 C -0.115938 -0.952199 0.688685 0
M  V30 3 N 0.109464 -1.877505 1.627294 0
M  V30 4 C 1.031780 -1.810893 2.624561 0
M  V30 5 N 1.792507 -0.679528 2.652707 0
M  V30 6 C 1.620929 0.293630 1.739850 0
M  V30 7 C 2.400613 1.455471 1.767001 0
M  V30 8 C 2.170967 2.397742 0.811054 0
M  V30 9 C 1.226706 2.297300 -0.186138 0
M  V30 10 C 0.438885 1.149187 -0.232662 0
M  V30 11 C 0.675307 0.191149 0.742613 0
M  V30 12 H -0.453792 -2.748220 1.630828 0
M  V30 13 H 1.148239 -2.602737 3.341060 0
M  V30 14 H 3.158765 1.584844 2.531700 0
M  V30 15 H 2.777348 3.307856 0.827356 0
M  V30 16 H 1.063301 3.052118 -0.928577 0
M  V30 17 H -0.321380 0.986595 -0.975253 0
M  V30 END ATOM
M  V30 BEGIN BOND
M  V30 1 2 1 2
M  V30 2 1 2 3
M  V30 3 1 3 4
M  V30 4 2 4 5
M  V30 5 1 5 6
M  V30 6 2 6 7
M  V30 7 1 7 8
M  V30 8 2 8 9
M  V30 9 1 9 10
M  V30 10 2 10 11
M  V30 11 1 11 2
M  V30 12 1 11 6
M  V30 13 1 3 12
M  V30 14 1 4 13
M  V30 15 1 7 14
M  V30 16 1 8 15
M  V30 17 1 9 16
M  V30 18 1 10 17
M  V30 END BOND
M  V30 END CTAB
M  END
>  <Dataset>  (230) 
ChEMBL_Kinases

>  <Ligand_Instance>  (230) 
nan

>  <PDB_ID>  (230) 
nan

>  <Standardized_SMILES>  (230) 
O=c1[nH]cnc2ccccc12

>  <Name>  (230) 
QUINAZOLINONE

>  <Pocket>  (230) 
nan

>  <ATP_Site>  (230) 
nan

>  <Peripheral>  (230) 
nan

>  <Num_H_Atoms_ProtBoundConf>  (230) 
nan

>  <Num_Resolved_Atoms>  (230) 
nan

>  <Num_Not_Resolved_Atoms>  (230) 
nan

$$$$
CHEMBL265710
     RDKit          3D

  0  0  0  0  0  0  0  0  0  0999 V3000
M  V30 BEGIN CTAB
M  V30 COUNTS 65 69 0 0 0
M  V30 BEGIN ATOM
M  V30 1 C 4.740668 -4.137225 5.835417 0
M  V30 2 N 4.114680 -3.070032 5.048404 0
M  V30 3 C 4.831437 -1.915375 4.718399 0
M  V30 4 O 6.044994 -1.711353 5.066876 0
M  V30 5 C 4.273738 -0.818266 3.941904 0
M  V30 6 C 4.989637 0.314930 3.629806 0
M  V30 7 C 4.528250 1.391616 2.903179 0
M  V30 8 C 3.225728 1.281136 2.468866 0
M  V30 9 C 2.686819 2.437704 1.675226 0
M  V30 10 C 2.379675 0.191176 2.709426 0
M  V30 11 N 1.064063 0.116172 2.266706 0
M  V30 12 C 0.311004 0.086465 1.073324 0
M  V30 13 N -1.050087 0.075914 1.193099 0
M  V30 14 C -1.840555 0.045426 0.112028 0
M  V30 15 N -3.251972 0.032579 0.397882 0
M  V30 16 C -3.615280 -0.079006 1.795797 0
M  V30 17 C -4.664168 -1.130248 2.015812 0
M  V30 18 C -4.605663 -2.094026 0.855779 0
M  V30 19 N -5.551583 -1.733999 -0.180955 0
M  V30 20 C -5.185958 -2.453234 -1.377262 0
M  V30 21 C -5.507042 -0.313906 -0.478439 0
M  V30 22 C -4.090558 0.139607 -0.784322 0
M  V30 23 N -1.324230 0.023713 -1.124652 0
M  V30 24 C 0.005128 0.031289 -1.336081 0
M  V30 25 C 0.794353 0.062758 -0.212727 0
M  V30 26 C 2.071868 0.057905 -0.665306 0
M  V30 27 N 2.022696 0.025376 -2.014697 0
M  V30 28 N 0.778858 0.008932 -2.437376 0
M  V30 29 C 0.235598 -0.026202 -3.762292 0
M  V30 30 C -0.942022 -0.698210 -4.045291 0
M  V30 31 C -1.475411 -0.738879 -5.322287 0
M  V30 32 C -0.781248 -0.073286 -6.328211 0
M  V30 33 C 0.395916 0.616439 -6.123726 0
M  V30 34 C 0.885720 0.622966 -4.818710 0
M  V30 35 C 2.989166 -0.815508 3.456404 0
M  V30 36 H 5.826221 -4.188786 5.683995 0
M  V30 37 H 4.463492 -4.044105 6.917444 0
M  V30 38 H 4.275891 -5.088970 5.505771 0
M  V30 39 H 3.137993 -3.188133 4.744933 0
M  V30 40 H 6.024657 0.404076 3.974362 0
M  V30 41 H 5.116781 2.267797 2.675300 0
M  V30 42 H 2.781385 3.364808 2.253970 0
M  V30 43 H 1.614256 2.301200 1.454658 0
M  V30 44 H 3.218558 2.533168 0.704408 0
M  V30 45 H 0.547599 0.076418 3.178665 0
M  V30 46 H -2.679797 -0.386638 2.341855 0
M  V30 47 H -3.876802 0.905952 2.235307 0
M  V30 48 H -4.396351 -1.713366 2.920230 0
M  V30 49 H -5.665584 -0.676586 2.171462 0
M  V30 50 H -3.597921 -2.082818 0.427501 0
M  V30 51 H -4.860665 -3.100608 1.209842 0
M  V30 52 H -5.631558 -3.466238 -1.336826 0
M  V30 53 H -5.497617 -1.912971 -2.308907 0
M  V30 54 H -4.077648 -2.579660 -1.379045 0
M  V30 55 H -5.947568 0.294910 0.317306 0
M  V30 56 H -6.108273 -0.162596 -1.396849 0
M  V30 57 H -3.685141 -0.332651 -1.676439 0
M  V30 58 H -4.178388 1.248219 -0.962175 0
M  V30 59 H 2.969156 0.072309 -0.084399 0
M  V30 60 H -1.487980 -1.221815 -3.253739 0
M  V30 61 H -2.377915 -1.238837 -5.600161 0
M  V30 62 H -1.133258 -0.055812 -7.361024 0
M  V30 63 H 0.917109 1.125591 -6.922219 0
M  V30 64 H 1.806368 1.154897 -4.632259 0
M  V30 65 H 2.337716 -1.669911 3.649822 0
M  V30 END ATOM
M  V30 BEGIN BOND
M  V30 1 1 1 2
M  V30 2 1 2 3
M  V30 3 2 3 4
M  V30 4 1 3 5
M  V30 5 2 5 6
M  V30 6 1 6 7
M  V30 7 2 7 8
M  V30 8 1 8 9
M  V30 9 1 8 10
M  V30 10 1 10 11
M  V30 11 1 11 12
M  V30 12 2 12 13
M  V30 13 1 13 14
M  V30 14 1 14 15
M  V30 15 1 15 16
M  V30 16 1 16 17
M  V30 17 1 17 18
M  V30 18 1 18 19
M  V30 19 1 19 20
M  V30 20 1 19 21
M  V30 21 1 21 22
M  V30 22 2 14 23
M  V30 23 1 23 24
M  V30 24 2 24 25
M  V30 25 1 25 26
M  V30 26 2 26 27
M  V30 27 1 27 28
M  V30 28 1 28 29
M  V30 29 2 29 30
M  V30 30 1 30 31
M  V30 31 2 31 32
M  V30 32 1 32 33
M  V30 33 2 33 34
M  V30 34 2 10 35
M  V30 35 1 35 5
M  V30 36 1 25 12
M  V30 37 1 34 29
M  V30 38 1 22 15
M  V30 39 1 28 24
M  V30 40 1 1 36
M  V30 41 1 1 37
M  V30 42 1 1 38
M  V30 43 1 2 39
M  V30 44 1 6 40
M  V30 45 1 7 41
M  V30 46 1 9 42
M  V30 47 1 9 43
M  V30 48 1 9 44
M  V30 49 1 11 45
M  V30 50 1 16 46
M  V30 51 1 16 47
M  V30 52 1 17 48
M  V30 53 1 17 49
M  V30 54 1 18 50
M  V30 55 1 18 51
M  V30 56 1 20 52
M  V30 57 1 20 53
M  V30 58 1 20 54
M  V30 59 1 21 55
M  V30 60 1 21 56
M  V30 61 1 22 57
M  V30 62 1 22 58
M  V30 63 1 26 59
M  V30 64 1 30 60
M  V30 65 1 31 61
M  V30 66 1 32 62
M  V30 67 1 33 63
M  V30 68 1 34 64
M  V30 69 1 35 65
M  V30 END BOND
M  V30 END CTAB
M  END
>  <Dataset>  (231) 
ChEMBL_Kinases

>  <Ligand_Instance>  (231) 
nan

>  <PDB_ID>  (231) 
nan

>  <Standardized_SMILES>  (231) 
CNC(=O)c1ccc(C)c(Nc2nc(N3CCCN(C)CC3)nc3c2cnn3-c2ccccc2)c1

>  <Name>  (231) 
nan

>  <Pocket>  (231) 
nan

>  <ATP_Site>  (231) 
nan

>  <Peripheral>  (231) 
nan

>  <Num_H_Atoms_ProtBoundConf>  (231) 
nan

>  <Num_Resolved_Atoms>  (231) 
nan

>  <Num_Not_Resolved_Atoms>  (231) 
nan

$$$$
CHEMBL265478
     RDKit          3D

  0  0  0  0  0  0  0  0  0  0999 V3000
M  V30 BEGIN CTAB
M  V30 COUNTS 50 52 0 0 0
M  V30 BEGIN ATOM
M  V30 1 C 0.410169 0.495703 3.177321 0
M  V30 2 C 1.669051 -0.224205 2.661232 0
M  V30 3 C 1.271587 -1.649981 2.472336 0
M  V30 4 O 0.204662 -1.852770 1.618285 0
M  V30 5 N 2.071551 0.485352 1.499113 0
M  V30 6 C 3.078924 0.247554 0.767851 0
M  V30 7 N 3.764513 -0.866178 1.297697 0
M  V30 8 C 3.368878 1.061575 -0.393504 0
M  V30 9 C 4.469748 0.683583 -1.074573 0
M  V30 10 O 5.446258 -0.296142 -0.961144 0
M  V30 11 N 4.898532 1.329415 -2.221018 0
M  V30 12 S 3.567515 2.637062 -2.344152 0
M  V30 13 C 2.722589 2.143897 -0.949745 0
M  V30 14 N 1.534814 2.690876 -0.344225 0
M  V30 15 C 0.317229 1.959067 -0.536205 0
M  V30 16 C -0.837251 2.401470 0.036185 0
M  V30 17 C -2.025014 1.676394 -0.130327 0
M  V30 18 C -1.993772 0.519341 -0.879754 0
M  V30 19 O -3.097942 -0.319873 -1.137447 0
M  V30 20 C -3.253050 -1.334812 -0.167930 0
M  V30 21 C -4.044150 -1.102049 0.940223 0
M  V30 22 C -4.186131 -2.113401 1.887546 0
M  V30 23 C -3.514547 -3.292178 1.643953 0
M  V30 24 C -2.721443 -3.541851 0.545043 0
M  V30 25 C -2.024528 -4.850541 0.364051 0
M  V30 26 F -2.922592 -5.760735 -0.145067 0
M  V30 27 F -0.996104 -4.690960 -0.558978 0
M  V30 28 F -1.526296 -5.319693 1.563477 0
M  V30 29 C -2.587470 -2.518608 -0.397294 0
M  V30 30 C -0.846566 0.058643 -1.464257 0
M  V30 31 C 0.296169 0.796735 -1.276867 0
M  V30 32 H -0.065846 -0.121528 3.959749 0
M  V30 33 H 0.655832 1.490434 3.595059 0
M  V30 34 H -0.343988 0.607556 2.348760 0
M  V30 35 H 2.375865 -0.183268 3.517384 0
M  V30 36 H 2.107272 -2.310856 2.159923 0
M  V30 37 H 0.963958 -2.034077 3.476443 0
M  V30 38 H 0.241851 -1.373297 0.776019 0
M  V30 39 H 4.226034 -0.897894 2.240723 0
M  V30 40 H 3.641295 -1.525474 0.501076 0
M  V30 41 H 5.340314 -1.267890 -1.173825 0
M  V30 42 H 1.555763 3.559847 0.197077 0
M  V30 43 H -0.887570 3.313130 0.629686 0
M  V30 44 H -2.979262 1.957285 0.289819 0
M  V30 45 H -4.531763 -0.150475 1.050370 0
M  V30 46 H -4.804028 -1.944100 2.759367 0
M  V30 47 H -3.633987 -4.078106 2.390293 0
M  V30 48 H -1.964486 -2.748460 -1.236695 0
M  V30 49 H -0.749192 -0.847382 -2.071155 0
M  V30 50 H 1.238131 0.460424 -1.732635 0
M  V30 END ATOM
M  V30 BEGIN BOND
M  V30 1 1 1 2
M  V30 2 1 2 3
M  V30 3 1 3 4
M  V30 4 1 2 5
M  V30 5 2 5 6
M  V30 6 1 6 7
M  V30 7 1 6 8
M  V30 8 1 8 9
M  V30 9 1 9 10
M  V30 10 2 9 11
M  V30 11 1 11 12
M  V30 12 1 12 13
M  V30 13 1 13 14
M  V30 14 1 14 15
M  V30 15 2 15 16
M  V30 16 1 16 17
M  V30 17 2 17 18
M  V30 18 1 18 19
M  V30 19 1 19 20
M  V30 20 2 20 21
M  V30 21 1 21 22
M  V30 22 2 22 23
M  V30 23 1 23 24
M  V30 24 1 24 25
M  V30 25 1 25 26
M  V30 26 1 25 27
M  V30 27 1 25 28
M  V30 28 2 24 29
M  V30 29 1 18 30
M  V30 30 2 30 31
M  V30 31 2 13 8
M  V30 32 1 31 15
M  V30 33 1 29 20
M  V30 34 1 1 32
M  V30 35 1 1 33
M  V30 36 1 1 34
M  V30 37 1 2 35
M  V30 38 1 3 36
M  V30 39 1 3 37
M  V30 40 1 4 38
M  V30 41 1 7 39
M  V30 42 1 7 40
M  V30 43 1 10 41
M  V30 44 1 14 42
M  V30 45 1 16 43
M  V30 46 1 17 44
M  V30 47 1 21 45
M  V30 48 1 22 46
M  V30 49 1 23 47
M  V30 50 1 29 48
M  V30 51 1 30 49
M  V30 52 1 31 50
M  V30 END BOND
M  V30 END CTAB
M  END
>  <Dataset>  (232) 
ChEMBL_Kinases

>  <Ligand_Instance>  (232) 
nan

>  <PDB_ID>  (232) 
nan

>  <Standardized_SMILES>  (232) 
CC(CO)/N=C(\N)c1c(O)nsc1Nc1ccc(Oc2cccc(C(F)(F)F)c2)cc1

>  <Name>  (232) 
nan

>  <Pocket>  (232) 
nan

>  <ATP_Site>  (232) 
nan

>  <Peripheral>  (232) 
nan

>  <Num_H_Atoms_ProtBoundConf>  (232) 
nan

>  <Num_Resolved_Atoms>  (232) 
nan

>  <Num_Not_Resolved_Atoms>  (232) 
nan

$$$$
CHEMBL265446
     RDKit          3D

  0  0  0  0  0  0  0  0  0  0999 V3000
M  V30 BEGIN CTAB
M  V30 COUNTS 31 35 0 0 0
M  V30 BEGIN ATOM
M  V30 1 O -1.316842 -5.038429 1.486678 0
M  V30 2 C -0.339200 -4.303931 1.190394 0
M  V30 3 N 0.993008 -4.731282 0.943567 0
M  V30 4 C 1.761942 -3.548993 0.644231 0
M  V30 5 C 0.804648 -2.419256 0.731110 0
M  V30 6 C -0.460703 -2.857868 1.058327 0
M  V30 7 C -1.491128 -1.932339 1.183854 0
M  V30 8 C -1.247220 -0.598239 0.983472 0
M  V30 9 C 0.000756 -0.163434 0.660502 0
M  V30 10 C 1.025277 -1.072942 0.534524 0
M  V30 11 N 2.136398 -0.385689 0.213974 0
M  V30 12 C 1.796519 0.928196 0.144535 0
M  V30 13 C 2.637217 1.992407 -0.157815 0
M  V30 14 C 2.151868 3.284321 -0.192762 0
M  V30 15 C 0.806511 3.456342 0.085016 0
M  V30 16 C 0.013819 2.373171 0.378859 0
M  V30 17 C 0.457959 1.093474 0.421554 0
M  V30 18 C -2.519406 0.035097 1.194419 0
M  V30 19 O -2.915862 1.206673 1.153105 0
M  V30 20 N -3.508291 -0.925478 1.518040 0
M  V30 21 C -2.884059 -2.223402 1.523008 0
M  V30 22 O -3.397036 -3.347403 1.759644 0
M  V30 23 H 1.396015 -5.688414 0.959776 0
M  V30 24 H 2.638727 -3.409644 1.297901 0
M  V30 25 H 2.126931 -3.637164 -0.415560 0
M  V30 26 H 3.083646 -0.799317 0.050542 0
M  V30 27 H 3.682945 1.837380 -0.371380 0
M  V30 28 H 2.785110 4.123908 -0.424674 0
M  V30 29 H 0.458607 4.481370 0.049101 0
M  V30 30 H -0.986091 2.612164 0.573109 0
M  V30 31 H -4.537428 -0.865589 1.738413 0
M  V30 END ATOM
M  V30 BEGIN BOND
M  V30 1 2 1 2
M  V30 2 1 2 3
M  V30 3 1 3 4
M  V30 4 1 4 5
M  V30 5 2 5 6
M  V30 6 1 6 7
M  V30 7 2 7 8
M  V30 8 1 8 9
M  V30 9 2 9 10
M  V30 10 1 10 11
M  V30 11 1 11 12
M  V30 12 2 12 13
M  V30 13 1 13 14
M  V30 14 2 14 15
M  V30 15 1 15 16
M  V30 16 2 16 17
M  V30 17 1 8 18
M  V30 18 2 18 19
M  V30 19 1 18 20
M  V30 20 1 20 21
M  V30 21 2 21 22
M  V30 22 1 6 2
M  V30 23 1 21 7
M  V30 24 1 10 5
M  V30 25 1 17 12
M  V30 26 1 17 9
M  V30 27 1 3 23
M  V30 28 1 4 24
M  V30 29 1 4 25
M  V30 30 1 11 26
M  V30 31 1 13 27
M  V30 32 1 14 28
M  V30 33 1 15 29
M  V30 34 1 16 30
M  V30 35 1 20 31
M  V30 END BOND
M  V30 END CTAB
M  END
>  <Dataset>  (233) 
ChEMBL_Kinases

>  <Ligand_Instance>  (233) 
nan

>  <PDB_ID>  (233) 
nan

>  <Standardized_SMILES>  (233) 
O=C1NCc2c1c1c(c3c2[nH]c2ccccc23)C(=O)NC1=O

>  <Name>  (233) 
nan

>  <Pocket>  (233) 
nan

>  <ATP_Site>  (233) 
nan

>  <Peripheral>  (233) 
nan

>  <Num_H_Atoms_ProtBoundConf>  (233) 
nan

>  <Num_Resolved_Atoms>  (233) 
nan

>  <Num_Not_Resolved_Atoms>  (233) 
nan

$$$$
CHEMBL265130
     RDKit          3D

  0  0  0  0  0  0  0  0  0  0999 V3000
M  V30 BEGIN CTAB
M  V30 COUNTS 54 56 0 0 0
M  V30 BEGIN ATOM
M  V30 1 C 2.789638 -4.763600 2.225040 0
M  V30 2 C 3.519916 -4.558913 0.911582 0
M  V30 3 O 3.096200 -3.318078 0.405542 0
M  V30 4 C 3.536183 -2.768480 -0.783481 0
M  V30 5 O 4.374106 -3.365785 -1.514461 0
M  V30 6 C 3.054901 -1.471605 -1.253297 0
M  V30 7 C 3.534079 -0.978599 -2.449861 0
M  V30 8 C 3.065063 0.254305 -2.878801 0
M  V30 9 C 2.149075 1.019731 -2.184506 0
M  V30 10 N 1.712986 2.209776 -2.624060 0
M  V30 11 C 0.816183 2.922581 -1.910148 0
M  V30 12 C 0.347032 2.415467 -0.715849 0
M  V30 13 C -0.623054 3.188688 0.054436 0
M  V30 14 O -1.048348 4.314346 -0.341406 0
M  V30 15 O -1.125775 2.731193 1.253856 0
M  V30 16 C -2.080423 3.487705 2.016102 0
M  V30 17 C -1.387023 4.812052 2.341616 0
M  V30 18 C 0.761726 1.197670 -0.217520 0
M  V30 19 N 0.317209 0.635023 0.990648 0
M  V30 20 C -0.807398 -0.213592 1.106729 0
M  V30 21 C -1.153222 -0.706997 2.333114 0
M  V30 22 C -2.267141 -1.537436 2.396072 0
M  V30 23 C -2.960393 -1.820612 1.238341 0
M  V30 24 N -4.113454 -2.669039 1.246072 0
M  V30 25 C -3.662132 -4.005448 1.036944 0
M  V30 26 C -4.395448 -5.293677 0.949380 0
M  V30 27 O -2.415190 -4.226537 0.887942 0
M  V30 28 C -2.609315 -1.320490 -0.002677 0
M  V30 29 C -1.498625 -0.493973 -0.057691 0
M  V30 30 C 1.679625 0.509595 -0.986929 0
M  V30 31 C 2.145106 -0.719475 -0.556129 0
M  V30 32 H 2.088017 -3.938944 2.472067 0
M  V30 33 H 2.161183 -5.683573 2.219374 0
M  V30 34 H 3.513941 -4.852985 3.068459 0
M  V30 35 H 4.604337 -4.535768 1.055727 0
M  V30 36 H 3.176165 -5.329719 0.201220 0
M  V30 37 H 4.261570 -1.535603 -3.048781 0
M  V30 38 H 3.448560 0.644810 -3.832633 0
M  V30 39 H 0.456851 3.883511 -2.253981 0
M  V30 40 H -2.999884 3.702057 1.433395 0
M  V30 41 H -2.298659 3.003159 2.971278 0
M  V30 42 H -1.824514 5.642733 1.749351 0
M  V30 43 H -0.299867 4.765079 2.156447 0
M  V30 44 H -1.518215 5.071562 3.415705 0
M  V30 45 H 0.933774 0.933146 1.781969 0
M  V30 46 H -0.593733 -0.470784 3.228123 0
M  V30 47 H -2.592092 -1.959313 3.334568 0
M  V30 48 H -5.162592 -2.660597 1.349496 0
M  V30 49 H -5.453014 -5.179644 1.222094 0
M  V30 50 H -4.338617 -5.694067 -0.070390 0
M  V30 51 H -3.920753 -6.077067 1.597996 0
M  V30 52 H -3.116786 -1.513414 -0.923773 0
M  V30 53 H -1.176565 -0.071306 -1.011058 0
M  V30 54 H 1.789766 -1.132523 0.375449 0
M  V30 END ATOM
M  V30 BEGIN BOND
M  V30 1 1 1 2
M  V30 2 1 2 3
M  V30 3 1 3 4
M  V30 4 2 4 5
M  V30 5 1 4 6
M  V30 6 2 6 7
M  V30 7 1 7 8
M  V30 8 2 8 9
M  V30 9 1 9 10
M  V30 10 2 10 11
M  V30 11 1 11 12
M  V30 12 1 12 13
M  V30 13 2 13 14
M  V30 14 1 13 15
M  V30 15 1 15 16
M  V30 16 1 16 17
M  V30 17 2 12 18
M  V30 18 1 18 19
M  V30 19 1 19 20
M  V30 20 2 20 21
M  V30 21 1 21 22
M  V30 22 2 22 23
M  V30 23 1 23 24
M  V30 24 1 24 25
M  V30 25 1 25 26
M  V30 26 2 25 27
M  V30 27 1 23 28
M  V30 28 2 28 29
M  V30 29 1 18 30
M  V30 30 2 30 31
M  V30 31 1 31 6
M  V30 32 1 30 9
M  V30 33 1 29 20
M  V30 34 1 1 32
M  V30 35 1 1 33
M  V30 36 1 1 34
M  V30 37 1 2 35
M  V30 38 1 2 36
M  V30 39 1 7 37
M  V30 40 1 8 38
M  V30 41 1 11 39
M  V30 42 1 16 40
M  V30 43 1 16 41
M  V30 44 1 17 42
M  V30 45 1 17 43
M  V30 46 1 17 44
M  V30 47 1 19 45
M  V30 48 1 21 46
M  V30 49 1 22 47
M  V30 50 1 24 48
M  V30 51 1 26 49
M  V30 52 1 26 50
M  V30 53 1 26 51
M  V30 54 1 28 52
M  V30 55 1 29 53
M  V30 56 1 31 54
M  V30 END BOND
M  V30 END CTAB
M  END
>  <Dataset>  (234) 
ChEMBL_Kinases

>  <Ligand_Instance>  (234) 
nan

>  <PDB_ID>  (234) 
nan

>  <Standardized_SMILES>  (234) 
CCOC(=O)c1ccc2ncc(C(=O)OCC)c(Nc3ccc(NC(C)=O)cc3)c2c1

>  <Name>  (234) 
nan

>  <Pocket>  (234) 
nan

>  <ATP_Site>  (234) 
nan

>  <Peripheral>  (234) 
nan

>  <Num_H_Atoms_ProtBoundConf>  (234) 
nan

>  <Num_Resolved_Atoms>  (234) 
nan

>  <Num_Not_Resolved_Atoms>  (234) 
nan

$$$$
CHEMBL264938
     RDKit          3D

  0  0  0  0  0  0  0  0  0  0999 V3000
M  V30 BEGIN CTAB
M  V30 COUNTS 51 54 0 0 0
M  V30 BEGIN ATOM
M  V30 1 O 0.648203 -2.356483 -0.667710 0
M  V30 2 C 0.300318 -2.497087 0.554510 0
M  V30 3 O 0.325590 -1.496562 1.517350 0
M  V30 4 C 0.772607 -0.220121 1.109377 0 CFG=2
M  V30 5 C 2.111517 -0.036271 1.848005 0
M  V30 6 C 2.798385 1.070874 1.124461 0
M  V30 7 C 4.060925 1.062893 0.567743 0
M  V30 8 O 4.763445 -0.130977 0.708062 0
M  V30 9 C 4.492996 2.213516 -0.059131 0
M  V30 10 C 3.686424 3.334987 -0.125854 0
M  V30 11 O 4.183300 4.459397 -0.771604 0
M  V30 12 C 2.422842 3.349287 0.428943 0
M  V30 13 C 1.972498 2.187844 1.068003 0
M  V30 14 O 0.726891 2.077123 1.662138 0
M  V30 15 C -0.081043 0.922367 1.488771 0 CFG=1
M  V30 16 C -1.238650 1.209678 0.631742 0
M  V30 17 C -1.838429 2.415075 1.018371 0
M  V30 18 C -2.961000 2.899135 0.346791 0
M  V30 19 O -3.606455 4.077104 0.668837 0
M  V30 20 C -3.496605 2.196318 -0.708912 0
M  V30 21 O -4.611788 2.648643 -1.398466 0
M  V30 22 C -2.893173 0.995367 -1.088634 0
M  V30 23 O -3.362530 0.224318 -2.135903 0
M  V30 24 C -1.785136 0.533992 -0.412821 0
M  V30 25 C -0.170850 -3.825234 1.001800 0
M  V30 26 C -0.569440 -4.093900 2.291937 0
M  V30 27 C -0.997277 -5.368927 2.624966 0
M  V30 28 O -1.392059 -5.581204 3.959886 0
M  V30 29 C -1.040716 -6.399192 1.698520 0
M  V30 30 O -1.480203 -7.676850 2.075202 0
M  V30 31 C -0.646718 -6.158098 0.396924 0
M  V30 32 O -0.670566 -7.154538 -0.571047 0
M  V30 33 C -0.227645 -4.876476 0.105700 0
M  V30 34 H 1.048995 -0.170283 0.038147 0
M  V30 35 H 1.903477 0.341688 2.882207 0
M  V30 36 H 2.686274 -0.958190 1.907732 0
M  V30 37 H 4.995547 -0.562858 1.581743 0
M  V30 38 H 5.486721 2.165989 -0.481712 0
M  V30 39 H 4.838941 4.415931 -1.534217 0
M  V30 40 H 1.768856 4.229212 0.386694 0
M  V30 41 H -0.514425 0.675376 2.503149 0
M  V30 42 H -1.541180 3.078669 1.819605 0
M  V30 43 H -4.329588 4.093373 1.366354 0
M  V30 44 H -4.786258 2.436307 -2.375528 0
M  V30 45 H -3.950944 -0.609218 -1.988528 0
M  V30 46 H -1.259079 -0.377039 -0.637915 0
M  V30 47 H -0.537906 -3.283977 3.030625 0
M  V30 48 H -1.806123 -6.477583 4.223399 0
M  V30 49 H -1.214731 -8.489536 1.535740 0
M  V30 50 H -0.820042 -6.945476 -1.559240 0
M  V30 51 H 0.083512 -4.695088 -0.931551 0
M  V30 END ATOM
M  V30 BEGIN BOND
M  V30 1 2 1 2
M  V30 2 1 2 3
M  V30 3 1 3 4
M  V30 4 1 4 5
M  V30 5 1 5 6
M  V30 6 2 6 7
M  V30 7 1 7 8
M  V30 8 1 7 9
M  V30 9 2 9 10
M  V30 10 1 10 11
M  V30 11 1 10 12
M  V30 12 2 12 13
M  V30 13 1 13 14
M  V30 14 1 14 15
M  V30 15 1 15 16
M  V30 16 2 16 17
M  V30 17 1 17 18
M  V30 18 1 18 19
M  V30 19 2 18 20
M  V30 20 1 20 21
M  V30 21 1 20 22
M  V30 22 1 22 23
M  V30 23 2 22 24
M  V30 24 1 2 25
M  V30 25 2 25 26
M  V30 26 1 26 27
M  V30 27 1 27 28
M  V30 28 2 27 29
M  V30 29 1 29 30
M  V30 30 1 29 31
M  V30 31 1 31 32
M  V30 32 2 31 33
M  V30 33 1 15 4
M  V30 34 1 24 16
M  V30 35 1 33 25
M  V30 36 1 13 6
M  V30 37 1 4 34 CFG=3
M  V30 38 1 5 35
M  V30 39 1 5 36
M  V30 40 1 8 37
M  V30 41 1 9 38
M  V30 42 1 11 39
M  V30 43 1 12 40
M  V30 44 1 15 41 CFG=1
M  V30 45 1 17 42
M  V30 46 1 19 43
M  V30 47 1 21 44
M  V30 48 1 23 45
M  V30 49 1 24 46
M  V30 50 1 26 47
M  V30 51 1 28 48
M  V30 52 1 30 49
M  V30 53 1 32 50
M  V30 54 1 33 51
M  V30 END BOND
M  V30 END CTAB
M  END
>  <Dataset>  (235) 
ChEMBL_Kinases

>  <Ligand_Instance>  (235) 
nan

>  <PDB_ID>  (235) 
nan

>  <Standardized_SMILES>  (235) 
O=C(O[C@@H]1Cc2c(O)cc(O)cc2O[C@H]1c1cc(O)c(O)c(O)c1)c1cc(O)c(O)c(O)c1

>  <Name>  (235) 
GALLOCATECHIN GALLATE

>  <Pocket>  (235) 
nan

>  <ATP_Site>  (235) 
nan

>  <Peripheral>  (235) 
nan

>  <Num_H_Atoms_ProtBoundConf>  (235) 
nan

>  <Num_Resolved_Atoms>  (235) 
nan

>  <Num_Not_Resolved_Atoms>  (235) 
nan

$$$$
CHEMBL264903
     RDKit          3D

  0  0  0  0  0  0  0  0  0  0999 V3000
M  V30 BEGIN CTAB
M  V30 COUNTS 80 85 0 0 0
M  V30 BEGIN ATOM
M  V30 1 C 5.158397 -2.744236 2.908343 0
M  V30 2 O 3.799813 -3.182288 2.932134 0
M  V30 3 C 2.787138 -2.267015 3.269819 0
M  V30 4 C 3.184084 -0.948573 3.513083 0
M  V30 5 C 2.277343 0.031511 3.845286 0
M  V30 6 C 2.637958 1.357000 4.079267 0
M  V30 7 N 4.021506 1.747709 3.865775 0
M  V30 8 C 4.023688 1.994286 2.453956 0
M  V30 9 C 4.596436 1.347049 1.368341 0
M  V30 10 N 4.428646 1.808392 0.103853 0
M  V30 11 C 3.699658 2.906166 -0.131329 0
M  V30 12 N 3.373643 3.503088 -1.366130 0
M  V30 13 C 2.168111 2.693966 -1.624456 0
M  V30 14 O 1.670441 1.768503 -0.872435 0
M  V30 15 C 1.036523 2.423868 -2.572354 0
M  V30 16 C 0.077157 3.467471 -2.511415 0
M  V30 17 C -1.076653 3.443371 -3.326298 0
M  V30 18 C -1.114141 2.310437 -4.141970 0
M  V30 19 C -2.400357 2.283959 -4.922024 0
M  V30 20 C -3.374221 1.419701 -4.221154 0
M  V30 21 C -3.850152 0.160968 -4.262723 0
M  V30 22 C -4.767778 -0.430370 -3.446421 0
M  V30 23 C -5.305820 0.323237 -2.431874 0
M  V30 24 C -4.889359 1.654926 -2.282737 0
M  V30 25 C -3.941210 2.183282 -3.164432 0
M  V30 26 C -0.233096 1.285323 -4.249036 0
M  V30 27 Br -0.422061 -0.145504 -5.448728 0
M  V30 28 C 0.853757 1.384441 -3.423688 0
M  V30 29 N 3.097212 3.616339 0.875396 0
M  V30 30 C 3.283619 3.131908 2.143633 0
M  V30 31 N 1.661990 2.253990 4.402011 0
M  V30 32 C 0.388032 1.857906 4.485256 0
M  V30 33 N -0.005327 0.570160 4.257595 0
M  V30 34 C 0.949502 -0.340986 3.935501 0
M  V30 35 C 0.541448 -1.637353 3.701082 0
M  V30 36 C 1.431252 -2.628834 3.365064 0
M  V30 37 O 1.305737 -3.950111 3.074845 0
M  V30 38 C 0.161137 -4.715426 2.934239 0
M  V30 39 C -0.635231 -4.279906 1.684857 0
M  V30 40 C -1.834450 -5.130098 1.511142 0
M  V30 41 N -2.601758 -4.912533 0.357440 0
M  V30 42 C -3.355432 -3.754947 0.159808 0
M  V30 43 C -2.545530 -2.762718 -0.696402 0
M  V30 44 O -2.369399 -3.359280 -1.949619 0
M  V30 45 C -1.640846 -4.537172 -1.846250 0
M  V30 46 C -2.202738 -5.531278 -0.856331 0
M  V30 47 H 5.541387 -2.409092 3.860902 0
M  V30 48 H 5.760272 -3.612108 2.568551 0
M  V30 49 H 5.280514 -1.935668 2.146144 0
M  V30 50 H 4.247859 -0.689038 3.439779 0
M  V30 51 H 4.800555 1.907959 4.510230 0
M  V30 52 H 5.164432 0.481977 1.652271 0
M  V30 53 H 2.912983 3.702743 -2.220775 0
M  V30 54 H 0.198737 4.335483 -1.828328 0
M  V30 55 H -1.744086 4.265275 -3.228375 0
M  V30 56 H -2.764811 3.298986 -5.137232 0
M  V30 57 H -2.124479 1.846660 -5.932611 0
M  V30 58 H -3.404915 -0.371781 -5.083766 0
M  V30 59 H -5.002775 -1.450503 -3.664066 0
M  V30 60 H -6.025481 -0.121297 -1.764837 0
M  V30 61 H -5.375586 2.158677 -1.462995 0
M  V30 62 H -3.770700 3.209955 -2.872313 0
M  V30 63 H 1.643455 0.648352 -3.383595 0
M  V30 64 H 2.785572 3.731666 2.906272 0
M  V30 65 H -0.348398 2.614129 4.746428 0
M  V30 66 H -0.472262 -1.968326 3.766131 0
M  V30 67 H -0.512056 -4.523397 3.831035 0
M  V30 68 H 0.377293 -5.790659 2.942924 0
M  V30 69 H -0.895912 -3.238941 1.844275 0
M  V30 70 H 0.082622 -4.457475 0.850422 0
M  V30 71 H -1.633103 -6.226829 1.605455 0
M  V30 72 H -2.506092 -4.914904 2.404632 0
M  V30 73 H -4.320660 -3.943480 -0.406459 0
M  V30 74 H -3.615967 -3.187622 1.069017 0
M  V30 75 H -1.614470 -2.445091 -0.238810 0
M  V30 76 H -3.219428 -1.893290 -0.846064 0
M  V30 77 H -0.546785 -4.348718 -1.681992 0
M  V30 78 H -1.681907 -5.013302 -2.862292 0
M  V30 79 H -1.423667 -6.313343 -0.715669 0
M  V30 80 H -3.069396 -6.045877 -1.330399 0
M  V30 END ATOM
M  V30 BEGIN BOND
M  V30 1 1 1 2
M  V30 2 1 2 3
M  V30 3 2 3 4
M  V30 4 1 4 5
M  V30 5 2 5 6
M  V30 6 1 6 7
M  V30 7 1 7 8
M  V30 8 2 8 9
M  V30 9 1 9 10
M  V30 10 2 10 11
M  V30 11 1 11 12
M  V30 12 1 12 13
M  V30 13 2 13 14
M  V30 14 1 13 15
M  V30 15 2 15 16
M  V30 16 1 16 17
M  V30 17 2 17 18
M  V30 18 1 18 19
M  V30 19 1 19 20
M  V30 20 2 20 21
M  V30 21 1 21 22
M  V30 22 2 22 23
M  V30 23 1 23 24
M  V30 24 2 24 25
M  V30 25 1 18 26
M  V30 26 1 26 27
M  V30 27 2 26 28
M  V30 28 1 11 29
M  V30 29 2 29 30
M  V30 30 1 6 31
M  V30 31 2 31 32
M  V30 32 1 32 33
M  V30 33 2 33 34
M  V30 34 1 34 35
M  V30 35 2 35 36
M  V30 36 1 36 37
M  V30 37 1 37 38
M  V30 38 1 38 39
M  V30 39 1 39 40
M  V30 40 1 40 41
M  V30 41 1 41 42
M  V30 42 1 42 43
M  V30 43 1 43 44
M  V30 44 1 44 45
M  V30 45 1 45 46
M  V30 46 1 36 3
M  V30 47 1 46 41
M  V30 48 1 34 5
M  V30 49 1 30 8
M  V30 50 1 28 15
M  V30 51 1 25 20
M  V30 52 1 1 47
M  V30 53 1 1 48
M  V30 54 1 1 49
M  V30 55 1 4 50
M  V30 56 1 7 51
M  V30 57 1 9 52
M  V30 58 1 12 53
M  V30 59 1 16 54
M  V30 60 1 17 55
M  V30 61 1 19 56
M  V30 62 1 19 57
M  V30 63 1 21 58
M  V30 64 1 22 59
M  V30 65 1 23 60
M  V30 66 1 24 61
M  V30 67 1 25 62
M  V30 68 1 28 63
M  V30 69 1 30 64
M  V30 70 1 32 65
M  V30 71 1 35 66
M  V30 72 1 38 67
M  V30 73 1 38 68
M  V30 74 1 39 69
M  V30 75 1 39 70
M  V30 76 1 40 71
M  V30 77 1 40 72
M  V30 78 1 42 73
M  V30 79 1 42 74
M  V30 80 1 43 75
M  V30 81 1 43 76
M  V30 82 1 45 77
M  V30 83 1 45 78
M  V30 84 1 46 79
M  V30 85 1 46 80
M  V30 END BOND
M  V30 END CTAB
M  END
>  <Dataset>  (236) 
ChEMBL_Kinases

>  <Ligand_Instance>  (236) 
nan

>  <PDB_ID>  (236) 
nan

>  <Standardized_SMILES>  (236) 
COc1cc2c(Nc3cnc(NC(=O)c4ccc(Cc5ccccc5)c(Br)c4)nc3)ncnc2cc1OCCCN1CCOCC1

>  <Name>  (236) 
nan

>  <Pocket>  (236) 
nan

>  <ATP_Site>  (236) 
nan

>  <Peripheral>  (236) 
nan

>  <Num_H_Atoms_ProtBoundConf>  (236) 
nan

>  <Num_Resolved_Atoms>  (236) 
nan

>  <Num_Not_Resolved_Atoms>  (236) 
nan

$$$$
CHEMBL264803
     RDKit          3D

  0  0  0  0  0  0  0  0  0  0999 V3000
M  V30 BEGIN CTAB
M  V30 COUNTS 89 93 0 0 0
M  V30 BEGIN ATOM
M  V30 1 C -7.412372 -5.145370 1.008510 0
M  V30 2 O -6.590765 -4.341737 0.207422 0
M  V30 3 C -5.702001 -3.420120 0.703105 0
M  V30 4 C -5.361775 -3.029040 1.976229 0
M  V30 5 C -4.393424 -2.034165 2.187489 0
M  V30 6 C -3.767592 -1.434038 1.087662 0
M  V30 7 N -2.857693 -0.472109 1.592744 0
M  V30 8 C -3.521064 0.761175 1.732425 0
M  V30 9 O -4.689140 0.561781 1.355606 0
M  V30 10 O -3.071232 1.963250 2.173293 0
M  V30 11 C -3.705389 3.150298 2.309660 0
M  V30 12 C -3.681411 4.069102 1.280891 0
M  V30 13 C -2.978833 3.809104 0.014607 0
M  V30 14 C -4.329517 5.262026 1.446216 0
M  V30 15 C -5.037484 5.681071 2.566102 0
M  V30 16 C -5.013549 4.694550 3.560943 0
M  V30 17 C -4.389104 3.475869 3.476454 0
M  V30 18 C -4.447288 2.527422 4.619220 0
M  V30 19 C -1.507506 -0.735558 1.915415 0
M  V30 20 C -0.680387 0.201556 2.473630 0
M  V30 21 C 0.643594 -0.059814 2.791641 0
M  V30 22 N 1.028848 -1.327681 2.495357 0
M  V30 23 C 0.245361 -2.265575 1.948419 0
M  V30 24 N 1.116647 -3.374697 1.832903 0
M  V30 25 C 1.656485 -3.206321 0.505964 0
M  V30 26 C 0.991735 -3.092082 -0.691576 0
M  V30 27 C 1.681891 -2.865218 -1.858540 0
M  V30 28 O 1.010170 -2.757199 -3.042217 0
M  V30 29 C -0.373875 -2.855548 -3.252502 0
M  V30 30 C 3.080278 -2.738939 -1.887982 0
M  V30 31 O 3.668666 -2.507858 -3.131939 0
M  V30 32 C 3.720683 -1.220518 -3.703157 0
M  V30 33 C 4.427621 -0.182726 -2.918611 0
M  V30 34 N 5.811026 -0.408990 -2.650315 0
M  V30 35 C 6.675061 -0.341008 -3.783435 0
M  V30 36 C 7.854401 0.533386 -3.474812 0
M  V30 37 O 7.541177 1.829792 -3.148764 0
M  V30 38 C 6.538265 1.900305 -2.187424 0
M  V30 39 C 6.233286 0.516110 -1.624184 0
M  V30 40 C 3.764923 -2.853262 -0.680600 0
M  V30 41 O 5.132894 -2.731465 -0.695179 0
M  V30 42 C 6.008590 -2.805877 0.382757 0
M  V30 43 C 3.046697 -3.085280 0.497584 0
M  V30 44 N -1.058045 -1.989602 1.642169 0
M  V30 45 C -4.091778 -1.809645 -0.196147 0
M  V30 46 O -3.370563 -1.108774 -1.144817 0
M  V30 47 C -3.608692 -1.407106 -2.504499 0
M  V30 48 C -5.059070 -2.801540 -0.367652 0
M  V30 49 H -7.077765 -6.206979 1.036419 0
M  V30 50 H -7.368685 -4.769049 2.048175 0
M  V30 51 H -8.479834 -5.065325 0.691495 0
M  V30 52 H -5.913500 -3.564242 2.733120 0
M  V30 53 H -4.262597 -1.864511 3.245299 0
M  V30 54 H -2.335312 2.924103 0.039140 0
M  V30 55 H -2.326979 4.705187 -0.192851 0
M  V30 56 H -3.715914 3.807617 -0.799173 0
M  V30 57 H -4.295106 5.981893 0.608100 0
M  V30 58 H -5.538288 6.623421 2.675641 0
M  V30 59 H -5.547262 4.923127 4.498618 0
M  V30 60 H -4.122735 1.522851 4.344670 0
M  V30 61 H -3.963193 2.985749 5.484724 0
M  V30 62 H -5.540114 2.440616 4.863067 0
M  V30 63 H -1.012911 1.199114 2.697615 0
M  V30 64 H 1.247831 0.738211 3.237117 0
M  V30 65 H 1.356169 -4.146940 2.488763 0
M  V30 66 H -0.077562 -3.197702 -0.602437 0
M  V30 67 H -0.665173 -3.860818 -3.637229 0
M  V30 68 H -0.984333 -2.701671 -2.341713 0
M  V30 69 H -0.692741 -2.147346 -4.064936 0
M  V30 70 H 2.676158 -0.828824 -3.887121 0
M  V30 71 H 4.172571 -1.277228 -4.717956 0
M  V30 72 H 4.350608 0.777794 -3.496644 0
M  V30 73 H 3.935695 0.009922 -1.935471 0
M  V30 74 H 7.074770 -1.353383 -4.061739 0
M  V30 75 H 6.178150 0.039470 -4.710025 0
M  V30 76 H 8.473421 0.079080 -2.652989 0
M  V30 77 H 8.466533 0.590365 -4.421687 0
M  V30 78 H 5.620002 2.344679 -2.628317 0
M  V30 79 H 6.855743 2.534445 -1.360401 0
M  V30 80 H 7.147299 0.158911 -1.127095 0
M  V30 81 H 5.422818 0.663929 -0.870470 0
M  V30 82 H 6.516521 -3.792071 0.348123 0
M  V30 83 H 6.821060 -2.043805 0.193274 0
M  V30 84 H 5.578867 -2.629318 1.371520 0
M  V30 85 H 3.636341 -3.164268 1.393272 0
M  V30 86 H -4.528539 -0.984319 -2.915597 0
M  V30 87 H -2.709334 -1.021029 -3.063545 0
M  V30 88 H -3.575531 -2.512916 -2.690180 0
M  V30 89 H -5.195316 -2.976034 -1.430103 0
M  V30 END ATOM
M  V30 BEGIN BOND
M  V30 1 1 1 2
M  V30 2 1 2 3
M  V30 3 2 3 4
M  V30 4 1 4 5
M  V30 5 2 5 6
M  V30 6 1 6 7
M  V30 7 1 7 8
M  V30 8 2 8 9
M  V30 9 1 8 10
M  V30 10 1 10 11
M  V30 11 2 11 12
M  V30 12 1 12 13
M  V30 13 1 12 14
M  V30 14 2 14 15
M  V30 15 1 15 16
M  V30 16 2 16 17
M  V30 17 1 17 18
M  V30 18 1 7 19
M  V30 19 2 19 20
M  V30 20 1 20 21
M  V30 21 2 21 22
M  V30 22 1 22 23
M  V30 23 1 23 24
M  V30 24 1 24 25
M  V30 25 2 25 26
M  V30 26 1 26 27
M  V30 27 1 27 28
M  V30 28 1 28 29
M  V30 29 2 27 30
M  V30 30 1 30 31
M  V30 31 1 31 32
M  V30 32 1 32 33
M  V30 33 1 33 34
M  V30 34 1 34 35
M  V30 35 1 35 36
M  V30 36 1 36 37
M  V30 37 1 37 38
M  V30 38 1 38 39
M  V30 39 1 30 40
M  V30 40 1 40 41
M  V30 41 1 41 42
M  V30 42 2 40 43
M  V30 43 2 23 44
M  V30 44 1 6 45
M  V30 45 1 45 46
M  V30 46 1 46 47
M  V30 47 2 45 48
M  V30 48 1 48 3
M  V30 49 1 17 11
M  V30 50 1 44 19
M  V30 51 1 43 25
M  V30 52 1 39 34
M  V30 53 1 1 49
M  V30 54 1 1 50
M  V30 55 1 1 51
M  V30 56 1 4 52
M  V30 57 1 5 53
M  V30 58 1 13 54
M  V30 59 1 13 55
M  V30 60 1 13 56
M  V30 61 1 14 57
M  V30 62 1 15 58
M  V30 63 1 16 59
M  V30 64 1 18 60
M  V30 65 1 18 61
M  V30 66 1 18 62
M  V30 67 1 20 63
M  V30 68 1 21 64
M  V30 69 1 24 65
M  V30 70 1 26 66
M  V30 71 1 29 67
M  V30 72 1 29 68
M  V30 73 1 29 69
M  V30 74 1 32 70
M  V30 75 1 32 71
M  V30 76 1 33 72
M  V30 77 1 33 73
M  V30 78 1 35 74
M  V30 79 1 35 75
M  V30 80 1 36 76
M  V30 81 1 36 77
M  V30 82 1 38 78
M  V30 83 1 38 79
M  V30 84 1 39 80
M  V30 85 1 39 81
M  V30 86 1 42 82
M  V30 87 1 42 83
M  V30 88 1 42 84
M  V30 89 1 43 85
M  V30 90 1 47 86
M  V30 91 1 47 87
M  V30 92 1 47 88
M  V30 93 1 48 89
M  V30 END BOND
M  V30 END CTAB
M  END
>  <Dataset>  (237) 
ChEMBL_Kinases

>  <Ligand_Instance>  (237) 
nan

>  <PDB_ID>  (237) 
nan

>  <Standardized_SMILES>  (237) 
COc1ccc(N(C(=O)Oc2c(C)cccc2C)c2ccnc(Nc3cc(OC)c(OCCN4CCOCC4)c(OC)c3)n2)c(OC)c1

>  <Name>  (237) 
nan

>  <Pocket>  (237) 
nan

>  <ATP_Site>  (237) 
nan

>  <Peripheral>  (237) 
nan

>  <Num_H_Atoms_ProtBoundConf>  (237) 
nan

>  <Num_Resolved_Atoms>  (237) 
nan

>  <Num_Not_Resolved_Atoms>  (237) 
nan

$$$$
CHEMBL264627
     RDKit          3D

  0  0  0  0  0  0  0  0  0  0999 V3000
M  V30 BEGIN CTAB
M  V30 COUNTS 67 72 0 0 0
M  V30 BEGIN ATOM
M  V30 1 O 5.019779 -0.156610 2.717833 0
M  V30 2 C 3.923100 0.369113 2.400717 0
M  V30 3 N 3.894138 1.794513 2.321463 0
M  V30 4 C 2.764322 2.623385 2.000489 0
M  V30 5 C 1.559062 1.819416 1.701525 0
M  V30 6 C 0.394876 2.483047 1.344686 0
M  V30 7 C 0.413555 3.958408 1.263708 0
M  V30 8 C 0.766370 4.331466 -0.028697 0
M  V30 9 C 0.859066 5.683665 -0.381143 0
M  V30 10 C 0.591701 6.619646 0.586787 0
M  V30 11 F 0.651914 7.953741 0.349935 0
M  V30 12 C 0.240968 6.244231 1.872227 0
M  V30 13 C 0.149688 4.914582 2.218386 0
M  V30 14 Cl -0.273558 4.219898 3.767735 0
M  V30 15 C -0.783258 1.790990 1.052861 0
M  V30 16 C -0.792355 0.415167 1.119136 0
M  V30 17 C -2.067629 -0.278786 0.808253 0
M  V30 18 C -1.999818 -1.773380 0.970433 0
M  V30 19 C -1.281177 -2.332582 -0.216588 0
M  V30 20 N -2.237557 -2.412206 -1.309693 0
M  V30 21 C -3.068360 -3.564949 -1.300278 0
M  V30 22 C -2.311023 -4.843725 -1.592626 0
M  V30 23 C -1.634922 -4.817811 -2.968682 0
M  V30 24 C -2.128420 -6.235917 -3.154650 0
M  V30 25 C -3.270531 -5.863433 -2.204540 0
M  V30 26 C -3.030064 -1.223623 -1.295701 0
M  V30 27 C -2.278772 -0.043202 -0.704710 0
M  V30 28 C 0.367413 -0.234076 1.474085 0
M  V30 29 C 1.536797 0.460039 1.763698 0
M  V30 30 N 2.697287 -0.288289 2.109410 0
M  V30 31 C 2.725249 -1.728471 2.192311 0
M  V30 32 C 3.016588 -2.566985 1.136598 0
M  V30 33 Cl 3.363652 -1.820480 -0.415763 0
M  V30 34 C 3.026521 -3.949264 1.324770 0
M  V30 35 C 2.735561 -4.411504 2.594595 0
M  V30 36 C 2.437958 -3.630014 3.683798 0
M  V30 37 C 2.443490 -2.257234 3.433349 0
M  V30 38 Cl 2.068674 -1.208521 4.796318 0
M  V30 39 H 4.742315 2.407629 2.501837 0
M  V30 40 H 2.960458 3.324323 1.152046 0
M  V30 41 H 2.512953 3.266602 2.883874 0
M  V30 42 H 1.001110 3.686146 -0.880159 0
M  V30 43 H 1.131891 6.026369 -1.379951 0
M  V30 44 H 0.014839 6.913554 2.688603 0
M  V30 45 H -1.686117 2.353822 0.774117 0
M  V30 46 H -2.928005 0.174853 1.350321 0
M  V30 47 H -1.605246 -2.083485 1.954855 0
M  V30 48 H -3.065592 -2.124438 0.966841 0
M  V30 49 H -0.502018 -1.607645 -0.598892 0
M  V30 50 H -0.750439 -3.274791 -0.032880 0
M  V30 51 H -3.839564 -3.447486 -2.066344 0
M  V30 52 H -3.599520 -3.675400 -0.335607 0
M  V30 53 H -1.750423 -5.302695 -0.785978 0
M  V30 54 H -0.551340 -4.676677 -2.946223 0
M  V30 55 H -2.203983 -4.092620 -3.606533 0
M  V30 56 H -1.392749 -6.938375 -2.680165 0
M  V30 57 H -2.435682 -6.523429 -4.171577 0
M  V30 58 H -3.504698 -6.726480 -1.557335 0
M  V30 59 H -4.097992 -5.417133 -2.784043 0
M  V30 60 H -4.002997 -1.342312 -0.746191 0
M  V30 61 H -3.283182 -0.952362 -2.329211 0
M  V30 62 H -2.942219 0.829570 -0.783598 0
M  V30 63 H -1.346995 0.125899 -1.238533 0
M  V30 64 H 0.398134 -1.299037 1.546333 0
M  V30 65 H 3.260357 -4.568166 0.472503 0
M  V30 66 H 2.761212 -5.492814 2.676714 0
M  V30 67 H 2.225972 -4.103879 4.627915 0
M  V30 END ATOM
M  V30 BEGIN BOND
M  V30 1 2 1 2
M  V30 2 1 2 3
M  V30 3 1 3 4
M  V30 4 1 4 5
M  V30 5 2 5 6
M  V30 6 1 6 7
M  V30 7 2 7 8
M  V30 8 1 8 9
M  V30 9 2 9 10
M  V30 10 1 10 11
M  V30 11 1 10 12
M  V30 12 2 12 13
M  V30 13 1 13 14
M  V30 14 1 6 15
M  V30 15 2 15 16
M  V30 16 1 16 17
M  V30 17 1 17 18
M  V30 18 1 18 19
M  V30 19 1 19 20
M  V30 20 1 20 21
M  V30 21 1 21 22
M  V30 22 1 22 23
M  V30 23 1 23 24
M  V30 24 1 24 25
M  V30 25 1 20 26
M  V30 26 1 26 27
M  V30 27 1 16 28
M  V30 28 2 28 29
M  V30 29 1 29 30
M  V30 30 1 30 31
M  V30 31 2 31 32
M  V30 32 1 32 33
M  V30 33 1 32 34
M  V30 34 2 34 35
M  V30 35 1 35 36
M  V30 36 2 36 37
M  V30 37 1 37 38
M  V30 38 1 30 2
M  V30 39 1 37 31
M  V30 40 1 29 5
M  V30 41 1 13 7
M  V30 42 1 27 17
M  V30 43 1 25 22
M  V30 44 1 3 39
M  V30 45 1 4 40
M  V30 46 1 4 41
M  V30 47 1 8 42
M  V30 48 1 9 43
M  V30 49 1 12 44
M  V30 50 1 15 45
M  V30 51 1 17 46
M  V30 52 1 18 47
M  V30 53 1 18 48
M  V30 54 1 19 49
M  V30 55 1 19 50
M  V30 56 1 21 51
M  V30 57 1 21 52
M  V30 58 1 22 53
M  V30 59 1 23 54
M  V30 60 1 23 55
M  V30 61 1 24 56
M  V30 62 1 24 57
M  V30 63 1 25 58
M  V30 64 1 25 59
M  V30 65 1 26 60
M  V30 66 1 26 61
M  V30 67 1 27 62
M  V30 68 1 27 63
M  V30 69 1 28 64
M  V30 70 1 34 65
M  V30 71 1 35 66
M  V30 72 1 36 67
M  V30 END BOND
M  V30 END CTAB
M  END
>  <Dataset>  (238) 
ChEMBL_Kinases

>  <Ligand_Instance>  (238) 
nan

>  <PDB_ID>  (238) 
nan

>  <Standardized_SMILES>  (238) 
O=C1NCc2c(-c3ccc(F)cc3Cl)cc(C3CCN(CC4CCC4)CC3)cc2N1c1c(Cl)cccc1Cl

>  <Name>  (238) 
nan

>  <Pocket>  (238) 
nan

>  <ATP_Site>  (238) 
nan

>  <Peripheral>  (238) 
nan

>  <Num_H_Atoms_ProtBoundConf>  (238) 
nan

>  <Num_Resolved_Atoms>  (238) 
nan

>  <Num_Not_Resolved_Atoms>  (238) 
nan

$$$$
CHEMBL264502
     RDKit          3D

  0  0  0  0  0  0  0  0  0  0999 V3000
M  V30 BEGIN CTAB
M  V30 COUNTS 69 73 0 0 0
M  V30 BEGIN ATOM
M  V30 1 C 9.148485 -4.883848 2.556570 0
M  V30 2 C 8.703827 -3.463990 2.819534 0
M  V30 3 N 7.776543 -2.832264 2.681346 0
M  V30 4 C 7.508636 -1.582032 2.969811 0
M  V30 5 C 6.190614 -0.943807 2.696701 0
M  V30 6 O 6.166035 -0.346485 1.432821 0
M  V30 7 C 4.990405 0.289768 0.974697 0
M  V30 8 C 3.913144 0.269362 1.838052 0
M  V30 9 C 2.715349 0.856471 1.494444 0
M  V30 10 C 2.617401 1.464483 0.271747 0
M  V30 11 C 1.418917 2.085680 -0.173631 0
M  V30 12 O 0.432864 1.864417 0.644576 0
M  V30 13 N 0.845232 2.880062 -1.186608 0
M  V30 14 C -0.529150 3.203829 -1.076390 0
M  V30 15 C -1.378244 2.298947 -1.707219 0
M  V30 16 C -2.757276 2.501937 -1.656754 0
M  V30 17 N -3.671335 1.584712 -2.310467 0
M  V30 18 C -3.896220 0.540235 -1.365087 0
M  V30 19 O -3.292328 0.643753 -0.272204 0
M  V30 20 C -4.786362 -0.584656 -1.677257 0
M  V30 21 C -5.669164 -0.667381 -2.763285 0
M  V30 22 C -6.415361 -1.818293 -2.895109 0
M  V30 23 C -6.363077 -2.897186 -2.043057 0
M  V30 24 C -5.499370 -2.802189 -0.993358 0
M  V30 25 N -5.456828 -3.928955 -0.119591 0
M  V30 26 C -4.139236 -4.293156 0.310803 0
M  V30 27 C -4.036151 -4.876768 1.679187 0
M  V30 28 O -5.165709 -5.482223 2.165592 0
M  V30 29 C -6.324838 -4.779114 1.935424 0
M  V30 30 C -6.522916 -4.752828 0.408770 0
M  V30 31 C -4.724240 -1.666789 -0.811153 0
M  V30 32 C -3.253488 3.608062 -0.972795 0
M  V30 33 C -2.416341 4.517001 -0.339856 0
M  V30 34 C -1.075905 4.282892 -0.414991 0
M  V30 35 C -0.102988 5.209645 0.225383 0
M  V30 36 C 3.714674 1.481818 -0.597441 0
M  V30 37 C 4.926425 0.898121 -0.272410 0
M  V30 38 C 8.644480 -0.921525 3.579276 0
M  V30 39 S 9.939556 -2.261803 3.630609 0
M  V30 40 H 10.193732 -5.034339 2.903762 0
M  V30 41 H 8.460412 -5.501589 3.205745 0
M  V30 42 H 9.025314 -5.053072 1.488402 0
M  V30 43 H 5.341333 -1.656050 2.878823 0
M  V30 44 H 6.067504 -0.158079 3.505209 0
M  V30 45 H 3.955245 -0.195437 2.806475 0
M  V30 46 H 1.888731 0.817563 2.199603 0
M  V30 47 H 1.680694 3.075707 -1.849309 0
M  V30 48 H -1.060727 1.420545 -2.256621 0
M  V30 49 H -4.123045 1.586264 -3.251583 0
M  V30 50 H -5.667797 0.207441 -3.391169 0
M  V30 51 H -7.055419 -1.753542 -3.777433 0
M  V30 52 H -7.032322 -3.712484 -2.314528 0
M  V30 53 H -3.771092 -5.070232 -0.432241 0
M  V30 54 H -3.378280 -3.488686 0.235473 0
M  V30 55 H -3.656955 -4.168683 2.457465 0
M  V30 56 H -3.241913 -5.690925 1.643388 0
M  V30 57 H -7.170938 -5.309168 2.396997 0
M  V30 58 H -6.181910 -3.750589 2.326372 0
M  V30 59 H -7.541045 -4.378311 0.173206 0
M  V30 60 H -6.351708 -5.774191 0.030105 0
M  V30 61 H -4.047187 -1.610787 0.037773 0
M  V30 62 H -4.330488 3.692007 -0.983003 0
M  V30 63 H -2.859065 5.354213 0.173009 0
M  V30 64 H 0.927787 5.064936 -0.151854 0
M  V30 65 H -0.386650 6.243934 -0.134750 0
M  V30 66 H -0.193887 5.255403 1.307472 0
M  V30 67 H 3.627613 1.973359 -1.580700 0
M  V30 68 H 5.811653 0.877180 -0.887786 0
M  V30 69 H 8.503190 0.235930 3.879339 0
M  V30 END ATOM
M  V30 BEGIN BOND
M  V30 1 1 1 2
M  V30 2 2 2 3
M  V30 3 1 3 4
M  V30 4 1 4 5
M  V30 5 1 5 6
M  V30 6 1 6 7
M  V30 7 2 7 8
M  V30 8 1 8 9
M  V30 9 2 9 10
M  V30 10 1 10 11
M  V30 11 2 11 12
M  V30 12 1 11 13
M  V30 13 1 13 14
M  V30 14 2 14 15
M  V30 15 1 15 16
M  V30 16 1 16 17
M  V30 17 1 17 18
M  V30 18 2 18 19
M  V30 19 1 18 20
M  V30 20 2 20 21
M  V30 21 1 21 22
M  V30 22 2 22 23
M  V30 23 1 23 24
M  V30 24 1 24 25
M  V30 25 1 25 26
M  V30 26 1 26 27
M  V30 27 1 27 28
M  V30 28 1 28 29
M  V30 29 1 29 30
M  V30 30 2 24 31
M  V30 31 2 16 32
M  V30 32 1 32 33
M  V30 33 2 33 34
M  V30 34 1 34 35
M  V30 35 1 10 36
M  V30 36 2 36 37
M  V30 37 2 4 38
M  V30 38 1 38 39
M  V30 39 1 39 2
M  V30 40 1 37 7
M  V30 41 1 34 14
M  V30 42 1 31 20
M  V30 43 1 30 25
M  V30 44 1 1 40
M  V30 45 1 1 41
M  V30 46 1 1 42
M  V30 47 1 5 43
M  V30 48 1 5 44
M  V30 49 1 8 45
M  V30 50 1 9 46
M  V30 51 1 13 47
M  V30 52 1 15 48
M  V30 53 1 17 49
M  V30 54 1 21 50
M  V30 55 1 22 51
M  V30 56 1 23 52
M  V30 57 1 26 53
M  V30 58 1 26 54
M  V30 59 1 27 55
M  V30 60 1 27 56
M  V30 61 1 29 57
M  V30 62 1 29 58
M  V30 63 1 30 59
M  V30 64 1 30 60
M  V30 65 1 31 61
M  V30 66 1 32 62
M  V30 67 1 33 63
M  V30 68 1 35 64
M  V30 69 1 35 65
M  V30 70 1 35 66
M  V30 71 1 36 67
M  V30 72 1 37 68
M  V30 73 1 38 69
M  V30 END BOND
M  V30 END CTAB
M  END
>  <Dataset>  (239) 
ChEMBL_Kinases

>  <Ligand_Instance>  (239) 
nan

>  <PDB_ID>  (239) 
nan

>  <Standardized_SMILES>  (239) 
Cc1nc(COc2ccc(C(=O)Nc3cc(NC(=O)c4cccc(N5CCOCC5)c4)ccc3C)cc2)cs1

>  <Name>  (239) 
nan

>  <Pocket>  (239) 
nan

>  <ATP_Site>  (239) 
nan

>  <Peripheral>  (239) 
nan

>  <Num_H_Atoms_ProtBoundConf>  (239) 
nan

>  <Num_Resolved_Atoms>  (239) 
nan

>  <Num_Not_Resolved_Atoms>  (239) 
nan

$$$$
CHEMBL261186
     RDKit          3D

  0  0  0  0  0  0  0  0  0  0999 V3000
M  V30 BEGIN CTAB
M  V30 COUNTS 62 66 0 0 0
M  V30 BEGIN ATOM
M  V30 1 C 0.942531 0.004323 5.356782 0
M  V30 2 O 0.230693 0.590472 4.346570 0
M  V30 3 C -0.565792 0.181830 3.355310 0
M  V30 4 O -0.061531 -0.624901 4.122227 0
M  V30 5 C -1.423779 -0.006685 2.252516 0
M  V30 6 C -1.797274 1.213202 1.692173 0
M  V30 7 C -1.331423 2.513351 2.156392 0
M  V30 8 C -0.210621 3.064418 1.627487 0
M  V30 9 C 0.338186 4.290360 1.980337 0
M  V30 10 C -0.335518 4.998787 2.963599 0
M  V30 11 C -1.470918 4.460581 3.512302 0
M  V30 12 C -1.999816 3.242673 3.149125 0
M  V30 13 C -2.663077 1.253724 0.622329 0
M  V30 14 C -3.083658 2.413921 0.009875 0
M  V30 15 C -3.949674 2.449249 -1.057854 0
M  V30 16 Br -4.492608 4.088879 -1.858847 0
M  V30 17 C -4.378010 1.212423 -1.482993 0
M  V30 18 C -3.986021 0.030011 -0.903884 0
M  V30 19 C -3.105448 0.028533 0.178835 0
M  V30 20 C -2.690885 -1.132227 0.783443 0
M  V30 21 O -3.177350 -2.164390 0.271400 0
M  V30 22 N -1.841673 -1.201621 1.832663 0
M  V30 23 C -1.495078 -2.483306 2.359231 0
M  V30 24 C -0.349421 -3.092759 1.639620 0
M  V30 25 C -0.612907 -4.033075 0.631877 0
M  V30 26 C 0.325924 -4.683659 -0.133420 0
M  V30 27 C 1.658828 -4.414826 0.078923 0
M  V30 28 N 2.735115 -4.992963 -0.621976 0
M  V30 29 S 2.696744 -5.159585 -2.333765 0
M  V30 30 O 3.990608 -5.811612 -2.806055 0
M  V30 31 O 1.608147 -6.105377 -2.710943 0
M  V30 32 C 2.579283 -3.613329 -3.134123 0
M  V30 33 C 1.298043 -3.169012 -3.399974 0
M  V30 34 C 1.159889 -1.935628 -4.038011 0
M  V30 35 C 2.322060 -1.241919 -4.360901 0
M  V30 36 C 3.600347 -1.684356 -4.096430 0
M  V30 37 C 3.704826 -2.914313 -3.460729 0
M  V30 38 C 1.982364 -3.500666 1.055367 0
M  V30 39 C 0.999259 -2.884774 1.785504 0
M  V30 40 H 1.471271 0.774986 5.988779 0
M  V30 41 H 1.782717 -0.657221 5.012901 0
M  V30 42 H 0.370573 -0.607353 6.105040 0
M  V30 43 H 0.311715 2.503704 0.857827 0
M  V30 44 H 1.246183 4.662206 1.502748 0
M  V30 45 H 0.100358 5.949250 3.227918 0
M  V30 46 H -1.995409 5.024966 4.287113 0
M  V30 47 H -2.901133 2.827436 3.593695 0
M  V30 48 H -2.684518 3.324400 0.425929 0
M  V30 49 H -5.068372 1.162581 -2.327503 0
M  V30 50 H -4.363023 -0.893033 -1.292151 0
M  V30 51 H -1.272067 -2.416138 3.441372 0
M  V30 52 H -2.360217 -3.202961 2.243911 0
M  V30 53 H -1.621682 -4.365409 0.343300 0
M  V30 54 H 0.119468 -5.404848 -0.907127 0
M  V30 55 H 3.583770 -5.330120 -0.082633 0
M  V30 56 H 0.380085 -3.690404 -3.158739 0
M  V30 57 H 0.215187 -1.455451 -4.312538 0
M  V30 58 H 2.254402 -0.284257 -4.855910 0
M  V30 59 H 4.475621 -1.126993 -4.357035 0
M  V30 60 H 4.673974 -3.358952 -3.203900 0
M  V30 61 H 3.019473 -3.255581 1.259979 0
M  V30 62 H 1.310079 -2.188803 2.526748 0
M  V30 END ATOM
M  V30 BEGIN BOND
M  V30 1 1 1 2
M  V30 2 1 2 3
M  V30 3 2 3 4
M  V30 4 1 3 5
M  V30 5 2 5 6
M  V30 6 1 6 7
M  V30 7 2 7 8
M  V30 8 1 8 9
M  V30 9 2 9 10
M  V30 10 1 10 11
M  V30 11 2 11 12
M  V30 12 1 6 13
M  V30 13 2 13 14
M  V30 14 1 14 15
M  V30 15 1 15 16
M  V30 16 2 15 17
M  V30 17 1 17 18
M  V30 18 2 18 19
M  V30 19 1 19 20
M  V30 20 2 20 21
M  V30 21 1 20 22
M  V30 22 1 22 23
M  V30 23 1 23 24
M  V30 24 2 24 25
M  V30 25 1 25 26
M  V30 26 2 26 27
M  V30 27 1 27 28
M  V30 28 1 28 29
M  V30 29 2 29 30
M  V30 30 2 29 31
M  V30 31 1 29 32
M  V30 32 2 32 33
M  V30 33 1 33 34
M  V30 34 2 34 35
M  V30 35 1 35 36
M  V30 36 2 36 37
M  V30 37 1 27 38
M  V30 38 2 38 39
M  V30 39 1 22 5
M  V30 40 1 39 24
M  V30 41 1 12 7
M  V30 42 1 19 13
M  V30 43 1 37 32
M  V30 44 1 1 40
M  V30 45 1 1 41
M  V30 46 1 1 42
M  V30 47 1 8 43
M  V30 48 1 9 44
M  V30 49 1 10 45
M  V30 50 1 11 46
M  V30 51 1 12 47
M  V30 52 1 14 48
M  V30 53 1 17 49
M  V30 54 1 18 50
M  V30 55 1 23 51
M  V30 56 1 23 52
M  V30 57 1 25 53
M  V30 58 1 26 54
M  V30 59 1 28 55
M  V30 60 1 33 56
M  V30 61 1 34 57
M  V30 62 1 35 58
M  V30 63 1 36 59
M  V30 64 1 37 60
M  V30 65 1 38 61
M  V30 66 1 39 62
M  V30 END BOND
M  V30 END CTAB
M  END
>  <Dataset>  (240) 
ChEMBL_Kinases

>  <Ligand_Instance>  (240) 
nan

>  <PDB_ID>  (240) 
nan

>  <Standardized_SMILES>  (240) 
COC(=O)c1c(-c2ccccc2)c2cc(Br)ccc2c(=O)n1Cc1ccc(NS(=O)(=O)c2ccccc2)cc1

>  <Name>  (240) 
nan

>  <Pocket>  (240) 
nan

>  <ATP_Site>  (240) 
nan

>  <Peripheral>  (240) 
nan

>  <Num_H_Atoms_ProtBoundConf>  (240) 
nan

>  <Num_Resolved_Atoms>  (240) 
nan

>  <Num_Not_Resolved_Atoms>  (240) 
nan

$$$$
CHEMBL261235
     RDKit          3D

  0  0  0  0  0  0  0  0  0  0999 V3000
M  V30 BEGIN CTAB
M  V30 COUNTS 51 55 0 0 0
M  V30 BEGIN ATOM
M  V30 1 C -1.778935 1.269259 -1.111785 0
M  V30 2 C -0.549188 1.375606 -0.292127 0
M  V30 3 C 0.525839 1.948081 -0.951448 0
M  V30 4 C 1.727924 2.105548 -0.297353 0
M  V30 5 C 1.885496 1.701426 1.011720 0
M  V30 6 C 3.060078 1.783119 1.872373 0
M  V30 7 O 3.194174 1.374931 3.053038 0
M  V30 8 N 4.240346 2.389992 1.378122 0
M  V30 9 C 5.562611 2.702137 1.771162 0
M  V30 10 C 6.659500 1.879019 1.609379 0
M  V30 11 C 7.920988 2.255391 2.020917 0
M  V30 12 C 7.996079 3.513019 2.603051 0
M  V30 13 N 6.961621 4.355374 2.785406 0
M  V30 14 C 5.720832 3.960368 2.369680 0
M  V30 15 C 0.813689 1.131459 1.666890 0
M  V30 16 C -0.414796 0.964274 1.016946 0
M  V30 17 N -1.543869 0.401467 1.650131 0
M  V30 18 C -2.426550 -0.702511 1.578868 0
M  V30 19 N -3.474754 -0.705662 2.424124 0
M  V30 20 C -4.353611 -1.713739 2.428355 0
M  V30 21 N -4.193011 -2.742235 1.578097 0
M  V30 22 C -3.169379 -2.790868 0.717087 0
M  V30 23 C -2.236442 -1.743288 0.696785 0
M  V30 24 C -1.305457 -2.036033 -0.251033 0
M  V30 25 N -1.647124 -3.216435 -0.797489 0
M  V30 26 N -2.749558 -3.675310 -0.233901 0
M  V30 27 C -3.510756 -4.874830 -0.457032 0
M  V30 28 C -3.638429 -5.774533 0.564712 0
M  V30 29 C -4.361381 -6.953292 0.406326 0
M  V30 30 C -4.946814 -7.182644 -0.822726 0
M  V30 31 C -4.831657 -6.283594 -1.876740 0
M  V30 32 C -4.104372 -5.125271 -1.675710 0
M  V30 33 H -1.855431 2.135420 -1.836240 0
M  V30 34 H -2.713424 1.346172 -0.521001 0
M  V30 35 H -1.845215 0.383602 -1.742285 0
M  V30 36 H 0.574149 2.319457 -1.976015 0
M  V30 37 H 2.618743 2.537473 -0.720219 0
M  V30 38 H 4.300436 2.790421 0.397928 0
M  V30 39 H 6.499257 0.914404 1.144536 0
M  V30 40 H 8.791635 1.636397 1.907938 0
M  V30 41 H 8.931078 3.922582 2.965808 0
M  V30 42 H 4.890523 4.655380 2.523697 0
M  V30 43 H 0.798055 0.771003 2.693093 0
M  V30 44 H -1.699769 1.123811 2.413009 0
M  V30 45 H -5.171921 -1.639443 3.141237 0
M  V30 46 H -0.467689 -1.440931 -0.499734 0
M  V30 47 H -3.194408 -5.628497 1.539247 0
M  V30 48 H -4.488426 -7.692917 1.186933 0
M  V30 49 H -5.521024 -8.057536 -1.045788 0
M  V30 50 H -5.277322 -6.430707 -2.854745 0
M  V30 51 H -3.954639 -4.363021 -2.428568 0
M  V30 END ATOM
M  V30 BEGIN BOND
M  V30 1 1 1 2
M  V30 2 2 2 3
M  V30 3 1 3 4
M  V30 4 2 4 5
M  V30 5 1 5 6
M  V30 6 2 6 7
M  V30 7 1 6 8
M  V30 8 1 8 9
M  V30 9 2 9 10
M  V30 10 1 10 11
M  V30 11 2 11 12
M  V30 12 1 12 13
M  V30 13 2 13 14
M  V30 14 1 5 15
M  V30 15 2 15 16
M  V30 16 1 16 17
M  V30 17 1 17 18
M  V30 18 2 18 19
M  V30 19 1 19 20
M  V30 20 2 20 21
M  V30 21 1 21 22
M  V30 22 2 22 23
M  V30 23 1 23 24
M  V30 24 2 24 25
M  V30 25 1 25 26
M  V30 26 1 26 27
M  V30 27 2 27 28
M  V30 28 1 28 29
M  V30 29 2 29 30
M  V30 30 1 30 31
M  V30 31 2 31 32
M  V30 32 1 16 2
M  V30 33 1 23 18
M  V30 34 1 32 27
M  V30 35 1 14 9
M  V30 36 1 26 22
M  V30 37 1 1 33
M  V30 38 1 1 34
M  V30 39 1 1 35
M  V30 40 1 3 36
M  V30 41 1 4 37
M  V30 42 1 8 38
M  V30 43 1 10 39
M  V30 44 1 11 40
M  V30 45 1 12 41
M  V30 46 1 14 42
M  V30 47 1 15 43
M  V30 48 1 17 44
M  V30 49 1 20 45
M  V30 50 1 24 46
M  V30 51 1 28 47
M  V30 52 1 29 48
M  V30 53 1 30 49
M  V30 54 1 31 50
M  V30 55 1 32 51
M  V30 END BOND
M  V30 END CTAB
M  END
>  <Dataset>  (241) 
ChEMBL_Kinases

>  <Ligand_Instance>  (241) 
nan

>  <PDB_ID>  (241) 
nan

>  <Standardized_SMILES>  (241) 
Cc1ccc(C(=O)Nc2cccnc2)cc1Nc1ncnc2c1cnn2-c1ccccc1

>  <Name>  (241) 
nan

>  <Pocket>  (241) 
nan

>  <ATP_Site>  (241) 
nan

>  <Peripheral>  (241) 
nan

>  <Num_H_Atoms_ProtBoundConf>  (241) 
nan

>  <Num_Resolved_Atoms>  (241) 
nan

>  <Num_Not_Resolved_Atoms>  (241) 
nan

$$$$
CHEMBL261237
     RDKit          3D

  0  0  0  0  0  0  0  0  0  0999 V3000
M  V30 BEGIN CTAB
M  V30 COUNTS 35 36 0 0 0
M  V30 BEGIN ATOM
M  V30 1 N -3.138316 -2.571393 2.526476 0
M  V30 2 C -2.420482 -1.709207 2.257724 0
M  V30 3 C -1.510343 -0.651352 1.932873 0
M  V30 4 C -0.443333 -1.057453 1.214687 0
M  V30 5 N 0.633680 -0.272418 0.733607 0
M  V30 6 S -0.179609 -2.753495 0.697489 0
M  V30 7 C 1.312335 -2.770690 -0.281586 0
M  V30 8 C 2.633702 -2.960972 0.065908 0
M  V30 9 C 3.617031 -2.926085 -0.897694 0
M  V30 10 C 3.321829 -2.702968 -2.228775 0
M  V30 11 N 4.367114 -2.673835 -3.195904 0
M  V30 12 C 2.008595 -2.510725 -2.597917 0
M  V30 13 C 1.000403 -2.543436 -1.629552 0
M  V30 14 C -1.514161 0.763070 2.249512 0
M  V30 15 C -0.324150 1.329654 2.723829 0
M  V30 16 C -0.202302 2.664560 3.027336 0
M  V30 17 C -1.270241 3.494615 2.869005 0
M  V30 18 C -2.480584 3.011296 2.405631 0
M  V30 19 C -2.543344 1.664800 2.117648 0
M  V30 20 C -3.840284 1.156378 1.628583 0
M  V30 21 F -4.305745 0.227569 2.536733 0
M  V30 22 F -3.728430 0.522916 0.406876 0
M  V30 23 F -4.779621 2.155450 1.460311 0
M  V30 24 H 0.531730 0.309785 -0.135596 0
M  V30 25 H 1.617498 0.007063 0.901137 0
M  V30 26 H 2.717547 -3.123130 1.127751 0
M  V30 27 H 4.621872 -3.086067 -0.528500 0
M  V30 28 H 5.200939 -3.300858 -3.319849 0
M  V30 29 H 4.401841 -1.939586 -3.957446 0
M  V30 30 H 1.834667 -2.340499 -3.650767 0
M  V30 31 H 0.025070 -2.374472 -2.084303 0
M  V30 32 H 0.594151 0.770541 2.897532 0
M  V30 33 H 0.725651 3.105717 3.396993 0
M  V30 34 H -1.232828 4.567522 3.094195 0
M  V30 35 H -3.357719 3.646249 2.265345 0
M  V30 END ATOM
M  V30 BEGIN BOND
M  V30 1 3 1 2
M  V30 2 1 2 3
M  V30 3 2 3 4
M  V30 4 1 4 5
M  V30 5 1 4 6
M  V30 6 1 6 7
M  V30 7 2 7 8
M  V30 8 1 8 9
M  V30 9 2 9 10
M  V30 10 1 10 11
M  V30 11 1 10 12
M  V30 12 2 12 13
M  V30 13 1 3 14
M  V30 14 2 14 15
M  V30 15 1 15 16
M  V30 16 2 16 17
M  V30 17 1 17 18
M  V30 18 2 18 19
M  V30 19 1 19 20
M  V30 20 1 20 21
M  V30 21 1 20 22
M  V30 22 1 20 23
M  V30 23 1 13 7
M  V30 24 1 19 14
M  V30 25 1 5 24
M  V30 26 1 5 25
M  V30 27 1 8 26
M  V30 28 1 9 27
M  V30 29 1 11 28
M  V30 30 1 11 29
M  V30 31 1 12 30
M  V30 32 1 13 31
M  V30 33 1 15 32
M  V30 34 1 16 33
M  V30 35 1 17 34
M  V30 36 1 18 35
M  V30 END BOND
M  V30 END CTAB
M  END
>  <Dataset>  (242) 
ChEMBL_Kinases

>  <Ligand_Instance>  (242) 
nan

>  <PDB_ID>  (242) 
nan

>  <Standardized_SMILES>  (242) 
N#C/C(=C(/N)Sc1ccc(N)cc1)c1ccccc1C(F)(F)F

>  <Name>  (242) 
nan

>  <Pocket>  (242) 
nan

>  <ATP_Site>  (242) 
nan

>  <Peripheral>  (242) 
nan

>  <Num_H_Atoms_ProtBoundConf>  (242) 
nan

>  <Num_Resolved_Atoms>  (242) 
nan

>  <Num_Not_Resolved_Atoms>  (242) 
nan

$$$$
CHEMBL261425
     RDKit          3D

  0  0  0  0  0  0  0  0  0  0999 V3000
M  V30 BEGIN CTAB
M  V30 COUNTS 32 35 0 0 0
M  V30 BEGIN ATOM
M  V30 1 O 4.371458 0.576827 1.068838 0
M  V30 2 C 3.598582 -0.409508 1.089737 0
M  V30 3 N 3.864701 -1.803370 1.136072 0
M  V30 4 C 2.620091 -2.491322 1.143464 0
M  V30 5 C 2.367148 -3.843325 1.199090 0
M  V30 6 C 1.077528 -4.323968 1.218443 0
M  V30 7 C 0.008897 -3.421941 1.181429 0
M  V30 8 C 0.304948 -2.083892 1.125776 0
M  V30 9 C 1.577175 -1.599526 1.104210 0
M  V30 10 C 2.152586 -0.277768 1.067914 0
M  V30 11 C 1.401710 0.787596 1.066053 0
M  V30 12 C -0.019581 1.020254 1.036024 0
M  V30 13 C -0.624228 1.686446 2.110379 0
M  V30 14 Cl 0.112322 2.254492 3.617583 0
M  V30 15 N -1.935439 1.892256 1.911037 0
M  V30 16 C -2.256607 1.381757 0.716167 0
M  V30 17 C -3.393467 1.268228 -0.065420 0
M  V30 18 C -3.315031 0.644607 -1.314782 0
M  V30 19 C -2.137050 0.126430 -1.816975 0
M  V30 20 C -0.985067 0.218495 -1.071655 0
M  V30 21 C -1.113344 0.850072 0.170628 0
M  V30 22 H 4.826551 -2.189130 1.158798 0
M  V30 23 H 3.199562 -4.522806 1.227500 0
M  V30 24 H 0.965234 -5.378469 1.261544 0
M  V30 25 H -0.944193 -3.928096 1.202806 0
M  V30 26 H -0.616361 -1.555337 1.129772 0
M  V30 27 H 1.976156 1.731688 1.090389 0
M  V30 28 H -2.647097 2.342431 2.494910 0
M  V30 29 H -4.319044 1.669419 0.316983 0
M  V30 30 H -4.210916 0.551647 -1.937629 0
M  V30 31 H -2.151253 -0.341545 -2.790213 0
M  V30 32 H -0.058086 -0.176939 -1.441498 0
M  V30 END ATOM
M  V30 BEGIN BOND
M  V30 1 2 1 2
M  V30 2 1 2 3
M  V30 3 1 3 4
M  V30 4 2 4 5
M  V30 5 1 5 6
M  V30 6 2 6 7
M  V30 7 1 7 8
M  V30 8 2 8 9
M  V30 9 1 9 10
M  V30 10 2 10 11
M  V30 11 1 11 12
M  V30 12 2 12 13
M  V30 13 1 13 14
M  V30 14 1 13 15
M  V30 15 1 15 16
M  V30 16 2 16 17
M  V30 17 1 17 18
M  V30 18 2 18 19
M  V30 19 1 19 20
M  V30 20 2 20 21
M  V30 21 1 10 2
M  V30 22 1 21 12
M  V30 23 1 9 4
M  V30 24 1 21 16
M  V30 25 1 3 22
M  V30 26 1 5 23
M  V30 27 1 6 24
M  V30 28 1 7 25
M  V30 29 1 8 26
M  V30 30 1 11 27
M  V30 31 1 15 28
M  V30 32 1 17 29
M  V30 33 1 18 30
M  V30 34 1 19 31
M  V30 35 1 20 32
M  V30 END BOND
M  V30 END CTAB
M  END
>  <Dataset>  (243) 
ChEMBL_Kinases

>  <Ligand_Instance>  (243) 
nan

>  <PDB_ID>  (243) 
nan

>  <Standardized_SMILES>  (243) 
O=C1Nc2ccccc2/C1=C\c1c(Cl)[nH]c2ccccc12

>  <Name>  (243) 
nan

>  <Pocket>  (243) 
nan

>  <ATP_Site>  (243) 
nan

>  <Peripheral>  (243) 
nan

>  <Num_H_Atoms_ProtBoundConf>  (243) 
nan

>  <Num_Resolved_Atoms>  (243) 
nan

>  <Num_Not_Resolved_Atoms>  (243) 
nan

$$$$
CHEMBL261454
     RDKit          3D

  0  0  0  0  0  0  0  0  0  0999 V3000
M  V30 BEGIN CTAB
M  V30 COUNTS 33 36 0 0 0
M  V30 BEGIN ATOM
M  V30 1 C -0.580299 -1.505654 4.222072 0
M  V30 2 C 0.706685 -1.313478 3.765855 0
M  V30 3 C 0.933735 -1.729831 2.466290 0
M  V30 4 C -0.093225 -2.299564 1.702712 0
M  V30 5 C 0.136958 -2.744512 0.326474 0
M  V30 6 N 0.040731 -3.987248 -0.201888 0
M  V30 7 N 0.334523 -3.960805 -1.489960 0
M  V30 8 C 0.623621 -2.677214 -1.790135 0
M  V30 9 C 0.513881 -1.853286 -0.666590 0
M  V30 10 C 0.767265 -0.441232 -0.712676 0
M  V30 11 C 2.067656 -0.087253 -1.001826 0
M  V30 12 C 2.482088 1.222731 -1.085354 0
M  V30 13 N 1.567905 2.202755 -0.873101 0
M  V30 14 C 0.288093 1.920796 -0.588099 0
M  V30 15 C -0.613042 2.933617 -0.379554 0
M  V30 16 C -1.913670 2.540774 -0.091745 0
M  V30 17 C -2.347509 1.215290 -0.004458 0
M  V30 18 C -1.416290 0.222966 -0.219703 0
M  V30 19 C -0.120456 0.593315 -0.506164 0
M  V30 20 N -1.313306 -2.437648 2.254500 0
M  V30 21 C -1.617945 -2.060876 3.505807 0
M  V30 22 H -0.783054 -1.181195 5.254928 0
M  V30 23 H 1.489120 -0.875276 4.360343 0
M  V30 24 H 1.896469 -1.635847 1.988059 0
M  V30 25 H 0.347797 -4.757763 -2.164042 0
M  V30 26 H 0.902523 -2.360184 -2.786526 0
M  V30 27 H 2.849503 -0.795446 -1.182223 0
M  V30 28 H 3.497446 1.540544 -1.311408 0
M  V30 29 H -0.361301 3.982155 -0.427822 0
M  V30 30 H -2.651408 3.333330 0.079235 0
M  V30 31 H -3.375776 1.008282 0.224404 0
M  V30 32 H -1.711822 -0.814109 -0.163602 0
M  V30 33 H -2.605919 -2.180206 3.931304 0
M  V30 END ATOM
M  V30 BEGIN BOND
M  V30 1 2 1 2
M  V30 2 1 2 3
M  V30 3 2 3 4
M  V30 4 1 4 5
M  V30 5 2 5 6
M  V30 6 1 6 7
M  V30 7 1 7 8
M  V30 8 2 8 9
M  V30 9 1 9 10
M  V30 10 2 10 11
M  V30 11 1 11 12
M  V30 12 2 12 13
M  V30 13 1 13 14
M  V30 14 2 14 15
M  V30 15 1 15 16
M  V30 16 2 16 17
M  V30 17 1 17 18
M  V30 18 2 18 19
M  V30 19 1 4 20
M  V30 20 2 20 21
M  V30 21 1 21 1
M  V30 22 1 9 5
M  V30 23 1 19 10
M  V30 24 1 19 14
M  V30 25 1 1 22
M  V30 26 1 2 23
M  V30 27 1 3 24
M  V30 28 1 7 25
M  V30 29 1 8 26
M  V30 30 1 11 27
M  V30 31 1 12 28
M  V30 32 1 15 29
M  V30 33 1 16 30
M  V30 34 1 17 31
M  V30 35 1 18 32
M  V30 36 1 21 33
M  V30 END BOND
M  V30 END CTAB
M  END
>  <Dataset>  (244) 
ChEMBL_Kinases

>  <Ligand_Instance>  (244) 
nan

>  <PDB_ID>  (244) 
nan

>  <Standardized_SMILES>  (244) 
c1ccc(-c2n[nH]cc2-c2ccnc3ccccc23)nc1

>  <Name>  (244) 
nan

>  <Pocket>  (244) 
nan

>  <ATP_Site>  (244) 
nan

>  <Peripheral>  (244) 
nan

>  <Num_H_Atoms_ProtBoundConf>  (244) 
nan

>  <Num_Resolved_Atoms>  (244) 
nan

>  <Num_Not_Resolved_Atoms>  (244) 
nan

$$$$
CHEMBL261514
     RDKit          3D

  0  0  0  0  0  0  0  0  0  0999 V3000
M  V30 BEGIN CTAB
M  V30 COUNTS 54 57 0 0 0
M  V30 BEGIN ATOM
M  V30 1 C 1.813570 -1.419479 1.778499 0
M  V30 2 C 1.859751 -0.160582 0.960585 0 CFG=2
M  V30 3 C 3.245400 -0.077330 0.352403 0
M  V30 4 C 4.299349 0.065162 1.424535 0
M  V30 5 C 3.734279 0.337485 2.753100 0
M  V30 6 O 4.353327 -0.003095 3.758927 0
M  V30 7 C 2.431346 1.013451 3.016981 0
M  V30 8 C 1.655525 1.090109 1.729261 0 CFG=2
M  V30 9 C 0.233529 1.434142 2.038343 0
M  V30 10 C -0.530712 1.465865 0.726883 0
M  V30 11 C -0.512534 0.068702 0.232838 0 CFG=2
M  V30 12 C 0.904097 -0.280980 -0.225709 0 CFG=2
M  V30 13 C 0.992625 -1.586872 -0.901630 0
M  V30 14 C -0.232364 -2.393945 -1.055974 0
M  V30 15 C -1.540549 -1.740352 -0.855274 0 CFG=1
M  V30 16 C -2.138747 -2.150110 0.481766 0
M  V30 17 C -1.347741 -0.235531 -0.946876 0 CFG=1
M  V30 18 C -2.740473 0.267411 -0.968239 0
M  V30 19 C -3.349502 -0.663586 -2.018135 0
M  V30 20 C -2.592486 -1.983172 -1.890776 0 CFG=1
M  V30 21 C -2.067591 -2.468920 -3.205262 0
M  V30 22 O -3.536526 -2.922965 -1.456999 0
M  V30 23 H 0.955146 -2.052961 1.484940 0
M  V30 24 H 1.731685 -1.240930 2.865009 0
M  V30 25 H 2.715772 -2.056066 1.640941 0
M  V30 26 H 3.249769 0.906442 -0.202996 0
M  V30 27 H 3.468034 -0.913828 -0.324212 0
M  V30 28 H 5.071067 0.806652 1.200137 0
M  V30 29 H 4.837526 -0.922860 1.508545 0
M  V30 30 H 1.861499 0.540247 3.851186 0
M  V30 31 H 2.598570 2.070052 3.362247 0
M  V30 32 H 2.086398 1.952051 1.158632 0
M  V30 33 H 0.211182 2.433847 2.502635 0
M  V30 34 H -0.238510 0.656056 2.686189 0
M  V30 35 H 0.095169 2.094983 0.045790 0
M  V30 36 H -1.546071 1.870322 0.848555 0
M  V30 37 H -0.699556 -0.596937 1.108462 0
M  V30 38 H 1.182522 0.571116 -0.895693 0
M  V30 39 H 1.453394 -1.419738 -1.918556 0
M  V30 40 H 1.796857 -2.180316 -0.375236 0
M  V30 41 H -0.256169 -2.881674 -2.068562 0
M  V30 42 H -0.171378 -3.279971 -0.361159 0
M  V30 43 H -2.604698 -1.338253 1.035613 0
M  V30 44 H -2.922231 -2.939485 0.369913 0
M  V30 45 H -1.339340 -2.657995 1.092359 0
M  V30 46 H -0.877044 -0.027740 -1.907586 0
M  V30 47 H -3.293578 0.268255 -0.032128 0
M  V30 48 H -2.765583 1.323252 -1.342909 0
M  V30 49 H -3.046976 -0.248087 -3.010464 0
M  V30 50 H -4.435068 -0.777638 -1.904662 0
M  V30 51 H -1.206378 -1.908942 -3.593926 0
M  V30 52 H -2.910688 -2.405903 -3.933152 0
M  V30 53 H -1.881710 -3.567590 -3.099805 0
M  V30 54 H -4.086071 -3.126038 -2.261373 0
M  V30 END ATOM
M  V30 BEGIN BOND
M  V30 1 1 2 1 CFG=1
M  V30 2 1 2 3
M  V30 3 1 3 4
M  V30 4 1 4 5
M  V30 5 2 5 6
M  V30 6 1 5 7
M  V30 7 1 7 8
M  V30 8 1 8 9
M  V30 9 1 9 10
M  V30 10 1 10 11
M  V30 11 1 11 12
M  V30 12 1 12 13
M  V30 13 1 13 14
M  V30 14 1 14 15
M  V30 15 1 15 16 CFG=1
M  V30 16 1 15 17
M  V30 17 1 17 18
M  V30 18 1 18 19
M  V30 19 1 19 20
M  V30 20 1 20 21
M  V30 21 1 20 22 CFG=1
M  V30 22 1 8 2
M  V30 23 1 17 11
M  V30 24 1 12 2
M  V30 25 1 20 15
M  V30 26 1 1 23
M  V30 27 1 1 24
M  V30 28 1 1 25
M  V30 29 1 3 26
M  V30 30 1 3 27
M  V30 31 1 4 28
M  V30 32 1 4 29
M  V30 33 1 7 30
M  V30 34 1 7 31
M  V30 35 1 8 32 CFG=3
M  V30 36 1 9 33
M  V30 37 1 9 34
M  V30 38 1 10 35
M  V30 39 1 10 36
M  V30 40 1 11 37 CFG=1
M  V30 41 1 12 38 CFG=3
M  V30 42 1 13 39
M  V30 43 1 13 40
M  V30 44 1 14 41
M  V30 45 1 14 42
M  V30 46 1 16 43
M  V30 47 1 16 44
M  V30 48 1 16 45
M  V30 49 1 17 46 CFG=3
M  V30 50 1 18 47
M  V30 51 1 18 48
M  V30 52 1 19 49
M  V30 53 1 19 50
M  V30 54 1 21 51
M  V30 55 1 21 52
M  V30 56 1 21 53
M  V30 57 1 22 54
M  V30 END BOND
M  V30 END CTAB
M  END
>  <Dataset>  (245) 
ChEMBL_Kinases

>  <Ligand_Instance>  (245) 
nan

>  <PDB_ID>  (245) 
nan

>  <Standardized_SMILES>  (245) 
C[C@]12CCC(=O)C[C@@H]1CC[C@@H]1[C@@H]2CC[C@@]2(C)[C@H]1CC[C@]2(C)O

>  <Name>  (245) 
MESTANOLONE

>  <Pocket>  (245) 
nan

>  <ATP_Site>  (245) 
nan

>  <Peripheral>  (245) 
nan

>  <Num_H_Atoms_ProtBoundConf>  (245) 
nan

>  <Num_Resolved_Atoms>  (245) 
nan

>  <Num_Not_Resolved_Atoms>  (245) 
nan

$$$$
CHEMBL261557
     RDKit          3D

  0  0  0  0  0  0  0  0  0  0999 V3000
M  V30 BEGIN CTAB
M  V30 COUNTS 39 40 0 0 0
M  V30 BEGIN ATOM
M  V30 1 C 0.519975 -3.105023 3.879895 0
M  V30 2 C 0.182202 -3.223334 2.411934 0 CFG=2
M  V30 3 N 0.501180 -1.951194 1.744621 0
M  V30 4 C 1.487935 -1.782063 0.765589 0
M  V30 5 O 2.138177 -2.809708 0.447381 0
M  V30 6 C 1.781805 -0.509807 0.123189 0
M  V30 7 C 2.805870 -0.448048 -0.880341 0
M  V30 8 N 3.643806 -0.410724 -1.679462 0
M  V30 9 C 1.170358 0.620133 0.376949 0
M  V30 10 C 1.384351 1.940400 -0.201557 0
M  V30 11 C 0.254640 2.719510 -0.485723 0
M  V30 12 C 0.295166 3.975402 -1.021228 0
M  V30 13 C 1.546546 4.487423 -1.291002 0
M  V30 14 O 1.693531 5.771072 -1.843856 0
M  V30 15 C 2.729555 3.785501 -1.041720 0
M  V30 16 O 3.983177 4.270865 -1.300468 0
M  V30 17 C 2.571002 2.521588 -0.497626 0
M  V30 18 C -1.245344 -3.503230 2.144787 0
M  V30 19 C -1.561220 -3.291402 0.796473 0
M  V30 20 C -2.835464 -3.487932 0.308586 0
M  V30 21 C -3.822786 -3.902327 1.167473 0
M  V30 22 C -3.547003 -4.119707 2.500751 0
M  V30 23 C -2.271357 -3.917828 2.963658 0
M  V30 24 H 0.414448 -2.044882 4.254518 0
M  V30 25 H 1.599128 -3.394134 4.057040 0
M  V30 26 H -0.049754 -3.822917 4.499192 0
M  V30 27 H 0.840073 -4.033832 2.021190 0
M  V30 28 H -0.085863 -1.154987 2.068923 0
M  V30 29 H 0.375093 0.583100 1.137984 0
M  V30 30 H -0.729085 2.297489 -0.266038 0
M  V30 31 H -0.589555 4.553428 -1.229434 0
M  V30 32 H 0.994100 6.475547 -1.638257 0
M  V30 33 H 4.036849 5.200845 -1.707596 0
M  V30 34 H 3.459440 1.976013 -0.294928 0
M  V30 35 H -0.865987 -2.962491 0.020181 0
M  V30 36 H -3.147703 -3.345719 -0.714351 0
M  V30 37 H -4.860117 -4.091730 0.905429 0
M  V30 38 H -4.239518 -4.446343 3.273945 0
M  V30 39 H -1.970687 -4.059759 3.970012 0
M  V30 END ATOM
M  V30 BEGIN BOND
M  V30 1 1 1 2
M  V30 2 1 2 3
M  V30 3 1 3 4
M  V30 4 2 4 5
M  V30 5 1 4 6
M  V30 6 1 6 7
M  V30 7 3 7 8
M  V30 8 2 6 9
M  V30 9 1 9 10
M  V30 10 2 10 11
M  V30 11 1 11 12
M  V30 12 2 12 13
M  V30 13 1 13 14
M  V30 14 1 13 15
M  V30 15 1 15 16
M  V30 16 2 15 17
M  V30 17 1 2 18
M  V30 18 2 18 19
M  V30 19 1 19 20
M  V30 20 2 20 21
M  V30 21 1 21 22
M  V30 22 2 22 23
M  V30 23 1 17 10
M  V30 24 1 23 18
M  V30 25 1 1 24
M  V30 26 1 1 25
M  V30 27 1 1 26
M  V30 28 1 2 27 CFG=3
M  V30 29 1 3 28
M  V30 30 1 9 29
M  V30 31 1 11 30
M  V30 32 1 12 31
M  V30 33 1 14 32
M  V30 34 1 16 33
M  V30 35 1 17 34
M  V30 36 1 19 35
M  V30 37 1 20 36
M  V30 38 1 21 37
M  V30 39 1 22 38
M  V30 40 1 23 39
M  V30 END BOND
M  V30 END CTAB
M  END
>  <Dataset>  (246) 
ChEMBL_Kinases

>  <Ligand_Instance>  (246) 
nan

>  <PDB_ID>  (246) 
nan

>  <Standardized_SMILES>  (246) 
C[C@H](NC(=O)/C(C#N)=C/c1ccc(O)c(O)c1)c1ccccc1

>  <Name>  (246) 
nan

>  <Pocket>  (246) 
nan

>  <ATP_Site>  (246) 
nan

>  <Peripheral>  (246) 
nan

>  <Num_H_Atoms_ProtBoundConf>  (246) 
nan

>  <Num_Resolved_Atoms>  (246) 
nan

>  <Num_Not_Resolved_Atoms>  (246) 
nan

$$$$
CHEMBL261841
     RDKit          3D

  0  0  0  0  0  0  0  0  0  0999 V3000
M  V30 BEGIN CTAB
M  V30 COUNTS 55 58 0 0 0
M  V30 BEGIN ATOM
M  V30 1 C 0.573242 -2.545148 4.484370 0
M  V30 2 O 0.525599 -1.398301 3.669439 0
M  V30 3 C -0.480790 -1.182675 2.745275 0
M  V30 4 O -0.886221 -2.280533 3.177052 0
M  V30 5 C -0.577672 -0.020004 1.881159 0
M  V30 6 C 0.436261 0.894424 2.065038 0
M  V30 7 C 1.523390 0.706489 2.998636 0
M  V30 8 C 1.600131 1.075600 4.324607 0
M  V30 9 C 2.735325 0.807040 5.061044 0
M  V30 10 C 3.825868 0.160667 4.488508 0
M  V30 11 C 3.757235 -0.213146 3.158401 0
M  V30 12 C 2.616426 0.058866 2.425368 0
M  V30 13 C 0.384451 2.040339 1.303442 0
M  V30 14 C 1.364954 3.000549 1.434025 0
M  V30 15 C 1.329551 4.149125 0.683949 0
M  V30 16 Br 2.670458 5.472440 0.855524 0
M  V30 17 C 0.293872 4.328583 -0.206012 0
M  V30 18 C -0.666002 3.342733 -0.304877 0
M  V30 19 C -0.671738 2.168171 0.430686 0
M  V30 20 C -1.648620 1.202979 0.305719 0
M  V30 21 O -2.514145 1.496887 -0.527505 0
M  V30 22 N -1.618614 0.067713 1.042962 0
M  V30 23 C -2.667327 -0.900163 0.872453 0
M  V30 24 C -2.387877 -1.836838 -0.214144 0
M  V30 25 C -1.669355 -3.002873 -0.198183 0
M  V30 26 C -1.446373 -3.849873 -1.259292 0
M  V30 27 C -1.983405 -3.531803 -2.486731 0
M  V30 28 N -1.727161 -4.432073 -3.553287 0
M  V30 29 S -1.244976 -3.856990 -5.113286 0
M  V30 30 C 0.314426 -2.990418 -4.909886 0
M  V30 31 O -1.083657 -4.978978 -6.080332 0
M  V30 32 O -2.311356 -2.943077 -5.626450 0
M  V30 33 C -2.729556 -2.366507 -2.601531 0
M  V30 34 C -2.905406 -1.572885 -1.488826 0
M  V30 35 H 1.494235 -2.484083 5.136393 0
M  V30 36 H 0.722665 -3.472602 3.898387 0
M  V30 37 H -0.288437 -2.632311 5.189718 0
M  V30 38 H 0.712848 1.571164 4.690301 0
M  V30 39 H 2.730911 1.125884 6.105648 0
M  V30 40 H 4.713301 -0.037072 5.103808 0
M  V30 41 H 4.627401 -0.719024 2.732887 0
M  V30 42 H 2.678086 -0.278758 1.400344 0
M  V30 43 H 2.194903 2.895557 2.122458 0
M  V30 44 H 0.229083 5.228894 -0.821593 0
M  V30 45 H -1.477380 3.521220 -1.025595 0
M  V30 46 H -2.946566 -1.400359 1.826127 0
M  V30 47 H -3.597975 -0.322441 0.594943 0
M  V30 48 H -1.229397 -3.299694 0.733801 0
M  V30 49 H -0.862744 -4.747647 -1.137784 0
M  V30 50 H -1.845798 -5.461097 -3.344086 0
M  V30 51 H 0.433842 -2.177448 -5.632483 0
M  V30 52 H 1.106568 -3.760475 -5.121829 0
M  V30 53 H 0.446605 -2.671135 -3.861732 0
M  V30 54 H -3.116189 -2.180810 -3.576863 0
M  V30 55 H -3.511818 -0.709015 -1.742915 0
M  V30 END ATOM
M  V30 BEGIN BOND
M  V30 1 1 1 2
M  V30 2 1 2 3
M  V30 3 2 3 4
M  V30 4 1 3 5
M  V30 5 2 5 6
M  V30 6 1 6 7
M  V30 7 2 7 8
M  V30 8 1 8 9
M  V30 9 2 9 10
M  V30 10 1 10 11
M  V30 11 2 11 12
M  V30 12 1 6 13
M  V30 13 2 13 14
M  V30 14 1 14 15
M  V30 15 1 15 16
M  V30 16 2 15 17
M  V30 17 1 17 18
M  V30 18 2 18 19
M  V30 19 1 19 20
M  V30 20 2 20 21
M  V30 21 1 20 22
M  V30 22 1 22 23
M  V30 23 1 23 24
M  V30 24 2 24 25
M  V30 25 1 25 26
M  V30 26 2 26 27
M  V30 27 1 27 28
M  V30 28 1 28 29
M  V30 29 1 29 30
M  V30 30 2 29 31
M  V30 31 2 29 32
M  V30 32 1 27 33
M  V30 33 2 33 34
M  V30 34 1 22 5
M  V30 35 1 34 24
M  V30 36 1 12 7
M  V30 37 1 19 13
M  V30 38 1 1 35
M  V30 39 1 1 36
M  V30 40 1 1 37
M  V30 41 1 8 38
M  V30 42 1 9 39
M  V30 43 1 10 40
M  V30 44 1 11 41
M  V30 45 1 12 42
M  V30 46 1 14 43
M  V30 47 1 17 44
M  V30 48 1 18 45
M  V30 49 1 23 46
M  V30 50 1 23 47
M  V30 51 1 25 48
M  V30 52 1 26 49
M  V30 53 1 28 50
M  V30 54 1 30 51
M  V30 55 1 30 52
M  V30 56 1 30 53
M  V30 57 1 33 54
M  V30 58 1 34 55
M  V30 END BOND
M  V30 END CTAB
M  END
>  <Dataset>  (247) 
ChEMBL_Kinases

>  <Ligand_Instance>  (247) 
nan

>  <PDB_ID>  (247) 
nan

>  <Standardized_SMILES>  (247) 
COC(=O)c1c(-c2ccccc2)c2cc(Br)ccc2c(=O)n1Cc1ccc(NS(C)(=O)=O)cc1

>  <Name>  (247) 
nan

>  <Pocket>  (247) 
nan

>  <ATP_Site>  (247) 
nan

>  <Peripheral>  (247) 
nan

>  <Num_H_Atoms_ProtBoundConf>  (247) 
nan

>  <Num_Resolved_Atoms>  (247) 
nan

>  <Num_Not_Resolved_Atoms>  (247) 
nan

$$$$
CHEMBL263802
     RDKit          3D

  0  0  0  0  0  0  0  0  0  0999 V3000
M  V30 BEGIN CTAB
M  V30 COUNTS 69 73 0 0 0
M  V30 BEGIN ATOM
M  V30 1 C 5.292169 -2.234499 3.793764 0
M  V30 2 C 4.509560 -2.902335 2.713202 0
M  V30 3 C 4.252153 -4.342065 3.102867 0
M  V30 4 N 5.201975 -2.901666 1.440679 0
M  V30 5 C 5.484339 -1.564412 0.971316 0
M  V30 6 C 4.242173 -0.854507 0.485688 0
M  V30 7 C 3.505453 -1.694414 -0.533784 0
M  V30 8 O 4.310908 -1.887121 -1.644970 0
M  V30 9 C 2.223713 -1.049845 -0.902911 0
M  V30 10 C 1.498637 -1.791922 -1.842335 0
M  V30 11 N 0.311972 -1.296692 -2.251788 0
M  V30 12 C -0.194758 -0.142164 -1.804322 0
M  V30 13 C 0.473025 0.629607 -0.879957 0
M  V30 14 C 0.138578 1.914681 -0.211297 0
M  V30 15 N -0.450495 1.716138 1.073112 0
M  V30 16 C -1.660159 1.160470 1.555989 0
M  V30 17 C -1.941392 1.085391 2.915516 0
M  V30 18 C -3.112910 0.559550 3.396961 0
M  V30 19 Cl -3.368729 0.510413 5.108366 0
M  V30 20 C -4.062313 0.081408 2.523208 0
M  V30 21 N -5.177414 -0.415611 3.057420 0
M  V30 22 C -6.154153 -0.903450 2.240700 0
M  V30 23 C -5.984042 -0.880991 0.853906 0
M  V30 24 C -6.975819 -1.379064 -0.059206 0
M  V30 25 N -7.787792 -1.793158 -0.786721 0
M  V30 26 C -4.809057 -0.356641 0.308120 0
M  V30 27 N -4.537227 -0.286347 -1.086608 0
M  V30 28 C -4.907840 0.861200 -1.841539 0
M  V30 29 C -5.534671 1.897498 -1.149470 0
M  V30 30 C -5.902011 3.019999 -1.866946 0
M  V30 31 C -5.636130 3.066618 -3.220234 0
M  V30 32 F -5.993970 4.168216 -3.936765 0
M  V30 33 C -5.014119 2.028959 -3.886552 0
M  V30 34 Cl -4.700283 2.133671 -5.594257 0
M  V30 35 C -4.627396 0.878371 -3.199093 0
M  V30 36 C -3.841875 0.128332 1.163084 0
M  V30 37 C -2.645784 0.668505 0.749002 0
M  V30 38 C 1.700600 0.123539 -0.452785 0
M  V30 39 C 3.220126 -3.053128 0.065013 0
M  V30 40 C 4.510061 -3.695272 0.468727 0
M  V30 41 H 6.301711 -2.687270 3.937527 0
M  V30 42 H 5.303109 -1.136711 3.711446 0
M  V30 43 H 4.737169 -2.450559 4.753815 0
M  V30 44 H 3.519806 -2.409730 2.656407 0
M  V30 45 H 5.041692 -5.026182 2.774240 0
M  V30 46 H 3.290240 -4.685198 2.668922 0
M  V30 47 H 4.091729 -4.379130 4.214433 0
M  V30 48 H 6.209021 -1.635582 0.136821 0
M  V30 49 H 5.928892 -0.984239 1.777969 0
M  V30 50 H 4.571533 0.074034 -0.021694 0
M  V30 51 H 3.614519 -0.570780 1.336157 0
M  V30 52 H 4.069025 -2.749288 -2.067401 0
M  V30 53 H 1.712759 -2.738107 -2.333723 0
M  V30 54 H -1.129299 0.298908 -2.109273 0
M  V30 55 H -0.585320 2.489104 -0.882659 0
M  V30 56 H 1.036082 2.542004 -0.152755 0
M  V30 57 H 0.178718 2.074439 1.861341 0
M  V30 58 H -1.209591 1.455000 3.630503 0
M  V30 59 H -7.098130 -1.329512 2.562337 0
M  V30 60 H -4.068186 -1.119107 -1.454207 0
M  V30 61 H -5.714717 1.798798 -0.088280 0
M  V30 62 H -6.390075 3.843142 -1.363079 0
M  V30 63 H -4.140463 0.034465 -3.651150 0
M  V30 64 H -2.548306 0.677612 -0.306933 0
M  V30 65 H 2.350167 0.602935 0.265199 0
M  V30 66 H 2.495504 -2.932184 0.876370 0
M  V30 67 H 2.716308 -3.642821 -0.727866 0
M  V30 68 H 5.155578 -3.742800 -0.435013 0
M  V30 69 H 4.314255 -4.684284 0.899769 0
M  V30 END ATOM
M  V30 BEGIN BOND
M  V30 1 1 1 2
M  V30 2 1 2 3
M  V30 3 1 2 4
M  V30 4 1 4 5
M  V30 5 1 5 6
M  V30 6 1 6 7
M  V30 7 1 7 8
M  V30 8 1 7 9
M  V30 9 2 9 10
M  V30 10 1 10 11
M  V30 11 2 11 12
M  V30 12 1 12 13
M  V30 13 1 13 14
M  V30 14 1 14 15
M  V30 15 1 15 16
M  V30 16 2 16 17
M  V30 17 1 17 18
M  V30 18 1 18 19
M  V30 19 2 18 20
M  V30 20 1 20 21
M  V30 21 2 21 22
M  V30 22 1 22 23
M  V30 23 1 23 24
M  V30 24 3 24 25
M  V30 25 2 23 26
M  V30 26 1 26 27
M  V30 27 1 27 28
M  V30 28 2 28 29
M  V30 29 1 29 30
M  V30 30 2 30 31
M  V30 31 1 31 32
M  V30 32 1 31 33
M  V30 33 1 33 34
M  V30 34 2 33 35
M  V30 35 1 26 36
M  V30 36 2 36 37
M  V30 37 2 13 38
M  V30 38 1 7 39
M  V30 39 1 39 40
M  V30 40 1 40 4
M  V30 41 1 38 9
M  V30 42 1 37 16
M  V30 43 1 36 20
M  V30 44 1 35 28
M  V30 45 1 1 41
M  V30 46 1 1 42
M  V30 47 1 1 43
M  V30 48 1 2 44
M  V30 49 1 3 45
M  V30 50 1 3 46
M  V30 51 1 3 47
M  V30 52 1 5 48
M  V30 53 1 5 49
M  V30 54 1 6 50
M  V30 55 1 6 51
M  V30 56 1 8 52
M  V30 57 1 10 53
M  V30 58 1 12 54
M  V30 59 1 14 55
M  V30 60 1 14 56
M  V30 61 1 15 57
M  V30 62 1 17 58
M  V30 63 1 22 59
M  V30 64 1 27 60
M  V30 65 1 29 61
M  V30 66 1 30 62
M  V30 67 1 35 63
M  V30 68 1 37 64
M  V30 69 1 38 65
M  V30 70 1 39 66
M  V30 71 1 39 67
M  V30 72 1 40 68
M  V30 73 1 40 69
M  V30 END BOND
M  V30 END CTAB
M  END
>  <Dataset>  (248) 
ChEMBL_Kinases

>  <Ligand_Instance>  (248) 
nan

>  <PDB_ID>  (248) 
nan

>  <Standardized_SMILES>  (248) 
CC(C)N1CCC(O)(c2cncc(CNc3cc(Cl)c4ncc(C#N)c(Nc5ccc(F)c(Cl)c5)c4c3)c2)CC1

>  <Name>  (248) 
nan

>  <Pocket>  (248) 
nan

>  <ATP_Site>  (248) 
nan

>  <Peripheral>  (248) 
nan

>  <Num_H_Atoms_ProtBoundConf>  (248) 
nan

>  <Num_Resolved_Atoms>  (248) 
nan

>  <Num_Not_Resolved_Atoms>  (248) 
nan

$$$$
CHEMBL26218
     RDKit          3D

  0  0  0  0  0  0  0  0  0  0999 V3000
M  V30 BEGIN CTAB
M  V30 COUNTS 18 18 0 0 0
M  V30 BEGIN ATOM
M  V30 1 C 0.032171 2.469108 1.540526 0
M  V30 2 C 0.187384 1.136482 2.237674 0
M  V30 3 N 1.123500 0.252435 1.557861 0
M  V30 4 C 2.483669 0.331929 1.940423 0
M  V30 5 O 2.991932 1.060715 2.781772 0
M  V30 6 S 3.265479 -0.903267 0.880666 0
M  V30 7 N 1.772988 -1.379347 0.072350 0
M  V30 8 C 1.626238 -2.402191 -0.982163 0
M  V30 9 C 0.785668 -0.612766 0.618091 0
M  V30 10 O -0.391779 -0.759741 0.208690 0
M  V30 11 H 0.975054 2.847934 1.109098 0
M  V30 12 H -0.275787 3.218916 2.314937 0
M  V30 13 H -0.798237 2.447711 0.796141 0
M  V30 14 H -0.828448 0.668818 2.219594 0
M  V30 15 H 0.479855 1.321930 3.269881 0
M  V30 16 H 2.362704 -3.190848 -0.725550 0
M  V30 17 H 0.590053 -2.730431 -0.899960 0
M  V30 18 H 1.805532 -1.953994 -1.980575 0
M  V30 END ATOM
M  V30 BEGIN BOND
M  V30 1 1 1 2
M  V30 2 1 2 3
M  V30 3 1 3 4
M  V30 4 2 4 5
M  V30 5 1 4 6
M  V30 6 1 6 7
M  V30 7 1 7 8
M  V30 8 1 7 9
M  V30 9 2 9 10
M  V30 10 1 9 3
M  V30 11 1 1 11
M  V30 12 1 1 12
M  V30 13 1 1 13
M  V30 14 1 2 14
M  V30 15 1 2 15
M  V30 16 1 8 16
M  V30 17 1 8 17
M  V30 18 1 8 18
M  V30 END BOND
M  V30 END CTAB
M  END
>  <Dataset>  (249) 
ChEMBL_Kinases

>  <Ligand_Instance>  (249) 
nan

>  <PDB_ID>  (249) 
nan

>  <Standardized_SMILES>  (249) 
CCn1c(=O)sn(C)c1=O

>  <Name>  (249) 
nan

>  <Pocket>  (249) 
nan

>  <ATP_Site>  (249) 
nan

>  <Peripheral>  (249) 
nan

>  <Num_H_Atoms_ProtBoundConf>  (249) 
nan

>  <Num_Resolved_Atoms>  (249) 
nan

>  <Num_Not_Resolved_Atoms>  (249) 
nan

$$$$
CHEMBL262434
     RDKit          3D

  0  0  0  0  0  0  0  0  0  0999 V3000
M  V30 BEGIN CTAB
M  V30 COUNTS 75 79 0 0 0
M  V30 BEGIN ATOM
M  V30 1 C -0.704149 -5.006254 2.816153 0
M  V30 2 O -1.140332 -3.732063 3.150491 0
M  V30 3 C -1.739087 -2.769715 2.400889 0
M  V30 4 C -1.978585 -3.086908 1.088443 0
M  V30 5 C -2.593543 -2.097356 0.333163 0
M  V30 6 C -2.881312 -2.336541 -0.995855 0
M  V30 7 N -2.505847 -3.620857 -1.526977 0
M  V30 8 C -1.226675 -3.399474 -2.137845 0
M  V30 9 C -1.105034 -3.052677 -3.467098 0
M  V30 10 C 0.243672 -2.898262 -3.787904 0
M  V30 11 C 0.668365 -2.530270 -5.160656 0
M  V30 12 C 0.683975 -1.065317 -5.302216 0
M  V30 13 O 0.330462 -0.835490 -4.091619 0
M  V30 14 N 0.945780 -0.063593 -6.263983 0
M  V30 15 C 0.735001 1.189004 -5.604904 0
M  V30 16 C -0.507193 1.799765 -5.631554 0
M  V30 17 C -0.672682 3.018964 -4.971349 0
M  V30 18 F -1.878751 3.590789 -5.011555 0
M  V30 19 C 0.452324 3.513057 -4.336084 0
M  V30 20 C 1.681039 2.900836 -4.315154 0
M  V30 21 F 2.703184 3.498804 -3.644175 0
M  V30 22 C 1.847135 1.695344 -4.967517 0
M  V30 23 N 0.887742 -3.159509 -2.628223 0
M  V30 24 N 0.025736 -3.451031 -1.670247 0
M  V30 25 N -3.493500 -1.395950 -1.777355 0
M  V30 26 C -3.832938 -0.185914 -1.241068 0
M  V30 27 N -3.557466 0.072040 0.071216 0
M  V30 28 C -2.964716 -0.838730 0.831031 0
M  V30 29 C -2.669309 -0.641414 2.168330 0
M  V30 30 C -2.074576 -1.539987 2.988287 0
M  V30 31 O -1.733443 -1.472431 4.308085 0
M  V30 32 C -1.844638 -0.537946 5.270789 0
M  V30 33 C -1.212167 0.783502 5.248484 0
M  V30 34 C 0.239902 0.882702 5.317856 0
M  V30 35 N 1.095910 0.397763 4.348130 0
M  V30 36 C 1.398650 -0.918112 4.068462 0
M  V30 37 C 2.662189 -0.995080 3.169950 0
M  V30 38 C 2.532685 0.046951 2.104193 0
M  V30 39 C 1.238287 -0.016120 1.349631 0
M  V30 40 O 1.229165 1.008239 0.383346 0
M  V30 41 C 2.618847 1.416759 2.806675 0
M  V30 42 C 2.333701 1.221829 4.279873 0
M  V30 43 H 0.379173 -4.915979 2.503338 0
M  V30 44 H -0.755331 -5.691291 3.711058 0
M  V30 45 H -1.221243 -5.488136 1.965354 0
M  V30 46 H -1.714991 -4.036562 0.649131 0
M  V30 47 H -3.067151 -4.519555 -1.465405 0
M  V30 48 H -1.951988 -2.922051 -4.162370 0
M  V30 49 H 0.024083 -3.027667 -5.928484 0
M  V30 50 H 1.716101 -2.894451 -5.370285 0
M  V30 51 H 1.201054 -0.597078 -7.122034 0
M  V30 52 H -1.255796 1.267043 -6.172891 0
M  V30 53 H 0.240275 4.459628 -3.850334 0
M  V30 54 H 2.817519 1.243463 -4.935756 0
M  V30 55 H 1.927545 -3.115175 -2.592720 0
M  V30 56 H -4.317348 0.583652 -1.836226 0
M  V30 57 H -2.932362 0.290930 2.601360 0
M  V30 58 H -2.966424 -0.415109 5.543672 0
M  V30 59 H -1.389502 -1.037916 6.224410 0
M  V30 60 H -1.490214 1.248823 4.213029 0
M  V30 61 H -1.722593 1.483310 6.001209 0
M  V30 62 H 0.526668 0.405444 6.359586 0
M  V30 63 H 0.497401 1.984456 5.586524 0
M  V30 64 H 1.749933 -1.502594 4.987507 0
M  V30 65 H 0.648103 -1.589294 3.618980 0
M  V30 66 H 3.577471 -0.925434 3.730001 0
M  V30 67 H 2.662137 -1.982504 2.650164 0
M  V30 68 H 3.371992 -0.010695 1.416771 0
M  V30 69 H 1.103381 -0.948046 0.781890 0
M  V30 70 H 0.347137 0.134174 1.985098 0
M  V30 71 H 2.130111 1.158895 -0.019037 0
M  V30 72 H 1.874274 2.075414 2.329170 0
M  V30 73 H 3.616583 1.864784 2.631850 0
M  V30 74 H 2.106646 2.216631 4.745862 0
M  V30 75 H 3.185667 0.732425 4.750287 0
M  V30 END ATOM
M  V30 BEGIN BOND
M  V30 1 1 1 2
M  V30 2 1 2 3
M  V30 3 2 3 4
M  V30 4 1 4 5
M  V30 5 2 5 6
M  V30 6 1 6 7
M  V30 7 1 7 8
M  V30 8 1 8 9
M  V30 9 2 9 10
M  V30 10 1 10 11
M  V30 11 1 11 12
M  V30 12 2 12 13
M  V30 13 1 12 14
M  V30 14 1 14 15
M  V30 15 2 15 16
M  V30 16 1 16 17
M  V30 17 1 17 18
M  V30 18 2 17 19
M  V30 19 1 19 20
M  V30 20 1 20 21
M  V30 21 2 20 22
M  V30 22 1 10 23
M  V30 23 1 23 24
M  V30 24 1 6 25
M  V30 25 2 25 26
M  V30 26 1 26 27
M  V30 27 2 27 28
M  V30 28 1 28 29
M  V30 29 2 29 30
M  V30 30 1 30 31
M  V30 31 1 31 32
M  V30 32 1 32 33
M  V30 33 1 33 34
M  V30 34 1 34 35
M  V30 35 1 35 36
M  V30 36 1 36 37
M  V30 37 1 37 38
M  V30 38 1 38 39
M  V30 39 1 39 40
M  V30 40 1 38 41
M  V30 41 1 41 42
M  V30 42 1 30 3
M  V30 43 1 42 35
M  V30 44 1 28 5
M  V30 45 2 24 8
M  V30 46 1 22 15
M  V30 47 1 1 43
M  V30 48 1 1 44
M  V30 49 1 1 45
M  V30 50 1 4 46
M  V30 51 1 7 47
M  V30 52 1 9 48
M  V30 53 1 11 49
M  V30 54 1 11 50
M  V30 55 1 14 51
M  V30 56 1 16 52
M  V30 57 1 19 53
M  V30 58 1 22 54
M  V30 59 1 23 55
M  V30 60 1 26 56
M  V30 61 1 29 57
M  V30 62 1 32 58
M  V30 63 1 32 59
M  V30 64 1 33 60
M  V30 65 1 33 61
M  V30 66 1 34 62
M  V30 67 1 34 63
M  V30 68 1 36 64
M  V30 69 1 36 65
M  V30 70 1 37 66
M  V30 71 1 37 67
M  V30 72 1 38 68
M  V30 73 1 39 69
M  V30 74 1 39 70
M  V30 75 1 40 71
M  V30 76 1 41 72
M  V30 77 1 41 73
M  V30 78 1 42 74
M  V30 79 1 42 75
M  V30 END BOND
M  V30 END CTAB
M  END
>  <Dataset>  (250) 
ChEMBL_Kinases

>  <Ligand_Instance>  (250) 
nan

>  <PDB_ID>  (250) 
nan

>  <Standardized_SMILES>  (250) 
COc1cc2c(Nc3cc(CC(=O)Nc4cc(F)cc(F)c4)[nH]n3)ncnc2cc1OCCCN1CCC(CO)CC1

>  <Name>  (250) 
nan

>  <Pocket>  (250) 
nan

>  <ATP_Site>  (250) 
nan

>  <Peripheral>  (250) 
nan

>  <Num_H_Atoms_ProtBoundConf>  (250) 
nan

>  <Num_Resolved_Atoms>  (250) 
nan

>  <Num_Not_Resolved_Atoms>  (250) 
nan

$$$$
CHEMBL26274
     RDKit          3D

  0  0  0  0  0  0  0  0  0  0999 V3000
M  V30 BEGIN CTAB
M  V30 COUNTS 28 30 0 0 0
M  V30 BEGIN ATOM
M  V30 1 C -1.978682 -1.990117 4.394015 0
M  V30 2 N -0.814951 -1.620103 3.656377 0
M  V30 3 S 0.656805 -0.981329 4.504447 0
M  V30 4 C 1.584706 -0.786132 2.875033 0
M  V30 5 O 2.737729 -0.356496 2.801232 0
M  V30 6 N 0.700595 -1.207834 1.969579 0
M  V30 7 C 1.122998 -1.178724 0.605051 0
M  V30 8 C 1.968568 -2.143734 0.082914 0
M  V30 9 C 2.342856 -2.060847 -1.249562 0
M  V30 10 C 1.847360 -1.003050 -2.006663 0
M  V30 11 C 1.004130 -0.031079 -1.506773 0
M  V30 12 C 0.551483 0.993460 -2.324103 0
M  V30 13 C -0.298778 1.955089 -1.780207 0
M  V30 14 C -0.677436 1.875098 -0.440502 0
M  V30 15 C -0.208294 0.835134 0.359307 0
M  V30 16 C 0.636093 -0.123906 -0.172087 0
M  V30 17 C -0.504720 -1.625122 2.378766 0
M  V30 18 O -1.395510 -2.038088 1.590827 0
M  V30 19 H -2.868582 -1.784506 3.731970 0
M  V30 20 H -2.026294 -3.036603 4.722062 0
M  V30 21 H -2.095099 -1.299084 5.278946 0
M  V30 22 H 2.310980 -2.934235 0.734642 0
M  V30 23 H 2.999663 -2.814524 -1.646308 0
M  V30 24 H 2.184631 -1.003525 -3.045038 0
M  V30 25 H 0.895722 0.977389 -3.350289 0
M  V30 26 H -0.641653 2.750788 -2.441705 0
M  V30 27 H -1.337383 2.623344 -0.022329 0
M  V30 28 H -0.491333 0.755751 1.403009 0
M  V30 END ATOM
M  V30 BEGIN BOND
M  V30 1 1 1 2
M  V30 2 1 2 3
M  V30 3 1 3 4
M  V30 4 2 4 5
M  V30 5 1 4 6
M  V30 6 1 6 7
M  V30 7 2 7 8
M  V30 8 1 8 9
M  V30 9 2 9 10
M  V30 10 1 10 11
M  V30 11 2 11 12
M  V30 12 1 12 13
M  V30 13 2 13 14
M  V30 14 1 14 15
M  V30 15 2 15 16
M  V30 16 1 6 17
M  V30 17 2 17 18
M  V30 18 1 17 2
M  V30 19 1 16 7
M  V30 20 1 16 11
M  V30 21 1 1 19
M  V30 22 1 1 20
M  V30 23 1 1 21
M  V30 24 1 8 22
M  V30 25 1 9 23
M  V30 26 1 10 24
M  V30 27 1 12 25
M  V30 28 1 13 26
M  V30 29 1 14 27
M  V30 30 1 15 28
M  V30 END BOND
M  V30 END CTAB
M  END
>  <Dataset>  (251) 
ChEMBL_Kinases

>  <Ligand_Instance>  (251) 
nan

>  <PDB_ID>  (251) 
nan

>  <Standardized_SMILES>  (251) 
Cn1sc(=O)n(-c2cccc3ccccc23)c1=O

>  <Name>  (251) 
nan

>  <Pocket>  (251) 
nan

>  <ATP_Site>  (251) 
nan

>  <Peripheral>  (251) 
nan

>  <Num_H_Atoms_ProtBoundConf>  (251) 
nan

>  <Num_Resolved_Atoms>  (251) 
nan

>  <Num_Not_Resolved_Atoms>  (251) 
nan

$$$$
CHEMBL263039
     RDKit          3D

  0  0  0  0  0  0  0  0  0  0999 V3000
M  V30 BEGIN CTAB
M  V30 COUNTS 51 53 0 0 0
M  V30 BEGIN ATOM
M  V30 1 N 1.449868 2.641687 2.901576 0
M  V30 2 C 1.023475 2.204858 1.639227 0
M  V30 3 N 1.187132 0.973861 1.334247 0
M  V30 4 C 1.773447 -0.013123 2.177112 0
M  V30 5 C 2.371244 -1.075313 1.277790 0
M  V30 6 C 3.415135 -0.547521 0.337554 0
M  V30 7 O 3.920430 -1.604645 -0.459055 0
M  V30 8 C 4.533371 0.057953 1.155151 0
M  V30 9 O 5.558016 0.561397 0.350708 0
M  V30 10 C 0.393639 2.977117 0.601684 0
M  V30 11 C 0.202212 4.267301 0.862897 0
M  V30 12 O 0.441618 5.200098 1.901838 0
M  V30 13 N -0.424860 5.241474 -0.020847 0
M  V30 14 S -0.744595 4.034114 -1.389566 0
M  V30 15 C -0.075459 2.665069 -0.622427 0
M  V30 16 N 0.064700 1.317743 -1.052287 0
M  V30 17 C -0.878466 0.334289 -0.640822 0
M  V30 18 C -0.735599 -0.990185 -1.047685 0
M  V30 19 C -1.676945 -1.895894 -0.602625 0
M  V30 20 C -2.721618 -1.515657 0.213353 0
M  V30 21 O -3.691437 -2.400346 0.686717 0
M  V30 22 C -3.529411 -3.757652 0.437282 0
M  V30 23 C -4.296020 -4.644872 -0.261650 0
M  V30 24 C -3.902642 -5.963963 -0.358592 0
M  V30 25 Cl -4.937159 -7.032550 -1.269640 0
M  V30 26 C -2.745617 -6.386229 0.243859 0
M  V30 27 C -1.940651 -5.521136 0.961226 0
M  V30 28 C -2.350488 -4.192721 1.050908 0
M  V30 29 Cl -1.224755 -3.217627 2.015687 0
M  V30 30 C -2.872098 -0.208590 0.621010 0
M  V30 31 C -1.940332 0.710353 0.185338 0
M  V30 32 H 1.672694 2.929210 3.853203 0
M  V30 33 H 0.747816 2.499318 3.655216 0
M  V30 34 H 1.003460 -0.486756 2.850138 0
M  V30 35 H 2.556657 0.337440 2.863926 0
M  V30 36 H 2.815246 -1.902800 1.888102 0
M  V30 37 H 1.550392 -1.592840 0.702012 0
M  V30 38 H 3.013266 0.202096 -0.366417 0
M  V30 39 H 3.528172 -2.456681 -0.122996 0
M  V30 40 H 4.068326 0.947217 1.677339 0
M  V30 41 H 4.865129 -0.694004 1.884716 0
M  V30 42 H 5.265528 0.729076 -0.564117 0
M  V30 43 H 0.520649 4.850772 2.832740 0
M  V30 44 H 0.852152 1.031069 -1.669406 0
M  V30 45 H 0.097133 -1.207381 -1.676660 0
M  V30 46 H -1.579263 -2.921732 -0.915796 0
M  V30 47 H -5.171083 -4.183190 -0.679632 0
M  V30 48 H -2.476681 -7.419676 0.144123 0
M  V30 49 H -1.052324 -5.936190 1.400775 0
M  V30 50 H -3.664750 0.180918 1.262356 0
M  V30 51 H -2.010954 1.748135 0.475069 0
M  V30 END ATOM
M  V30 BEGIN BOND
M  V30 1 1 1 2
M  V30 2 2 2 3
M  V30 3 1 3 4
M  V30 4 1 4 5
M  V30 5 1 5 6
M  V30 6 1 6 7
M  V30 7 1 6 8
M  V30 8 1 8 9
M  V30 9 1 2 10
M  V30 10 1 10 11
M  V30 11 1 11 12
M  V30 12 2 11 13
M  V30 13 1 13 14
M  V30 14 1 14 15
M  V30 15 1 15 16
M  V30 16 1 16 17
M  V30 17 2 17 18
M  V30 18 1 18 19
M  V30 19 2 19 20
M  V30 20 1 20 21
M  V30 21 1 21 22
M  V30 22 2 22 23
M  V30 23 1 23 24
M  V30 24 1 24 25
M  V30 25 2 24 26
M  V30 26 1 26 27
M  V30 27 2 27 28
M  V30 28 1 28 29
M  V30 29 1 20 30
M  V30 30 2 30 31
M  V30 31 2 15 10
M  V30 32 1 31 17
M  V30 33 1 28 22
M  V30 34 1 1 32
M  V30 35 1 1 33
M  V30 36 1 4 34
M  V30 37 1 4 35
M  V30 38 1 5 36
M  V30 39 1 5 37
M  V30 40 1 6 38
M  V30 41 1 7 39
M  V30 42 1 8 40
M  V30 43 1 8 41
M  V30 44 1 9 42
M  V30 45 1 12 43
M  V30 46 1 16 44
M  V30 47 1 18 45
M  V30 48 1 19 46
M  V30 49 1 23 47
M  V30 50 1 26 48
M  V30 51 1 27 49
M  V30 52 1 30 50
M  V30 53 1 31 51
M  V30 END BOND
M  V30 END CTAB
M  END
>  <Dataset>  (252) 
ChEMBL_Kinases

>  <Ligand_Instance>  (252) 
nan

>  <PDB_ID>  (252) 
nan

>  <Standardized_SMILES>  (252) 
N/C(=N\CCC(O)CO)c1c(O)nsc1Nc1ccc(Oc2cc(Cl)ccc2Cl)cc1

>  <Name>  (252) 
nan

>  <Pocket>  (252) 
nan

>  <ATP_Site>  (252) 
nan

>  <Peripheral>  (252) 
nan

>  <Num_H_Atoms_ProtBoundConf>  (252) 
nan

>  <Num_Resolved_Atoms>  (252) 
nan

>  <Num_Not_Resolved_Atoms>  (252) 
nan

$$$$
CHEMBL263067
     RDKit          3D

  0  0  0  0  0  0  0  0  0  0999 V3000
M  V30 BEGIN CTAB
M  V30 COUNTS 75 79 0 0 0
M  V30 BEGIN ATOM
M  V30 1 C 2.715952 -2.811332 1.604292 0
M  V30 2 O 1.652385 -2.238304 2.349545 0
M  V30 3 C 0.339117 -2.554981 2.089200 0
M  V30 4 C 0.110664 -3.448949 1.075600 0
M  V30 5 C -1.199446 -3.780537 0.797599 0
M  V30 6 C -1.444578 -4.659741 -0.217087 0
M  V30 7 N -0.465556 -5.291408 -1.021386 0
M  V30 8 C 0.061264 -4.407584 -2.009192 0
M  V30 9 C -0.212427 -3.059879 -2.195037 0
M  V30 10 C 0.516333 -2.564936 -3.281845 0
M  V30 11 C 0.466015 -1.170878 -3.734368 0
M  V30 12 C -0.672295 -0.946026 -4.659535 0
M  V30 13 O -1.446466 -1.856002 -4.973969 0
M  V30 14 N -0.907113 0.351466 -5.221070 0
M  V30 15 C -1.912050 0.776600 -6.100504 0
M  V30 16 C -2.941965 0.025816 -6.617074 0
M  V30 17 C -3.882169 0.537546 -7.484225 0
M  V30 18 C -3.852466 1.840282 -7.892248 0
M  V30 19 C -2.835726 2.592100 -7.385786 0
M  V30 20 F -2.762865 3.898195 -7.763640 0
M  V30 21 C -1.893904 2.088448 -6.520356 0
M  V30 22 F -0.920240 2.957237 -6.083997 0
M  V30 23 N 1.191823 -3.639342 -3.696510 0
M  V30 24 N 0.949488 -4.716145 -2.981777 0
M  V30 25 N -2.709103 -5.000228 -0.526040 0
M  V30 26 C -3.737254 -4.467635 0.173460 0
M  V30 27 N -3.530814 -3.585533 1.193810 0
M  V30 28 C -2.252257 -3.238145 1.508983 0
M  V30 29 C -1.938361 -2.345160 2.514718 0
M  V30 30 C -0.658321 -1.976001 2.837291 0
M  V30 31 O -0.424526 -1.053378 3.879192 0
M  V30 32 C -1.582330 -0.575735 4.522978 0
M  V30 33 C -1.289009 0.419205 5.605137 0
M  V30 34 C -0.587078 1.617764 5.050402 0
M  V30 35 N 0.691069 1.339892 4.437034 0
M  V30 36 C 1.684629 0.950759 5.379558 0
M  V30 37 C 2.917798 0.471305 4.646039 0
M  V30 38 C 3.371375 1.474328 3.614893 0
M  V30 39 C 3.163968 0.975176 2.208189 0
M  V30 40 O 3.605732 1.953447 1.292125 0
M  V30 41 C 2.552942 2.751502 3.820223 0
M  V30 42 C 1.087115 2.472562 3.674256 0
M  V30 43 H 2.558789 -2.566125 0.542918 0
M  V30 44 H 3.681784 -2.353232 1.889299 0
M  V30 45 H 2.762417 -3.913890 1.742625 0
M  V30 46 H 0.915924 -3.886678 0.505459 0
M  V30 47 H -0.104120 -6.262914 -0.983073 0
M  V30 48 H -0.885272 -2.453068 -1.602649 0
M  V30 49 H 1.422300 -0.934224 -4.253642 0
M  V30 50 H 0.354443 -0.485608 -2.843216 0
M  V30 51 H -0.194798 1.057053 -4.895219 0
M  V30 52 H -3.030186 -1.009102 -6.338698 0
M  V30 53 H -4.673077 -0.126610 -7.852569 0
M  V30 54 H -4.576794 2.265817 -8.570803 0
M  V30 55 H 1.847533 -3.618302 -4.511839 0
M  V30 56 H -4.803024 -4.638906 0.049062 0
M  V30 57 H -2.810029 -1.960892 3.029496 0
M  V30 58 H -2.304728 -0.144819 3.791590 0
M  V30 59 H -2.103495 -1.447516 5.005834 0
M  V30 60 H -2.254189 0.782292 6.022098 0
M  V30 61 H -0.756262 -0.030285 6.466802 0
M  V30 62 H -0.479953 2.382470 5.863925 0
M  V30 63 H -1.246253 2.028560 4.247195 0
M  V30 64 H 1.962192 1.771746 6.090091 0
M  V30 65 H 1.364336 0.096230 6.018646 0
M  V30 66 H 3.739417 0.368137 5.396729 0
M  V30 67 H 2.753530 -0.499102 4.143328 0
M  V30 68 H 4.432230 1.716237 3.788008 0
M  V30 69 H 3.767508 0.061078 2.040617 0
M  V30 70 H 2.119677 0.721498 2.013312 0
M  V30 71 H 3.619344 1.619194 0.376479 0
M  V30 72 H 2.912315 3.469252 3.055815 0
M  V30 73 H 2.783786 3.188435 4.813897 0
M  V30 74 H 0.874640 2.248538 2.591800 0
M  V30 75 H 0.486783 3.367851 3.958655 0
M  V30 END ATOM
M  V30 BEGIN BOND
M  V30 1 1 1 2
M  V30 2 1 2 3
M  V30 3 2 3 4
M  V30 4 1 4 5
M  V30 5 2 5 6
M  V30 6 1 6 7
M  V30 7 1 7 8
M  V30 8 1 8 9
M  V30 9 2 9 10
M  V30 10 1 10 11
M  V30 11 1 11 12
M  V30 12 2 12 13
M  V30 13 1 12 14
M  V30 14 1 14 15
M  V30 15 2 15 16
M  V30 16 1 16 17
M  V30 17 2 17 18
M  V30 18 1 18 19
M  V30 19 1 19 20
M  V30 20 2 19 21
M  V30 21 1 21 22
M  V30 22 1 10 23
M  V30 23 1 23 24
M  V30 24 1 6 25
M  V30 25 2 25 26
M  V30 26 1 26 27
M  V30 27 2 27 28
M  V30 28 1 28 29
M  V30 29 2 29 30
M  V30 30 1 30 31
M  V30 31 1 31 32
M  V30 32 1 32 33
M  V30 33 1 33 34
M  V30 34 1 34 35
M  V30 35 1 35 36
M  V30 36 1 36 37
M  V30 37 1 37 38
M  V30 38 1 38 39
M  V30 39 1 39 40
M  V30 40 1 38 41
M  V30 41 1 41 42
M  V30 42 1 30 3
M  V30 43 1 42 35
M  V30 44 1 28 5
M  V30 45 2 24 8
M  V30 46 1 21 15
M  V30 47 1 1 43
M  V30 48 1 1 44
M  V30 49 1 1 45
M  V30 50 1 4 46
M  V30 51 1 7 47
M  V30 52 1 9 48
M  V30 53 1 11 49
M  V30 54 1 11 50
M  V30 55 1 14 51
M  V30 56 1 16 52
M  V30 57 1 17 53
M  V30 58 1 18 54
M  V30 59 1 23 55
M  V30 60 1 26 56
M  V30 61 1 29 57
M  V30 62 1 32 58
M  V30 63 1 32 59
M  V30 64 1 33 60
M  V30 65 1 33 61
M  V30 66 1 34 62
M  V30 67 1 34 63
M  V30 68 1 36 64
M  V30 69 1 36 65
M  V30 70 1 37 66
M  V30 71 1 37 67
M  V30 72 1 38 68
M  V30 73 1 39 69
M  V30 74 1 39 70
M  V30 75 1 40 71
M  V30 76 1 41 72
M  V30 77 1 41 73
M  V30 78 1 42 74
M  V30 79 1 42 75
M  V30 END BOND
M  V30 END CTAB
M  END
>  <Dataset>  (253) 
ChEMBL_Kinases

>  <Ligand_Instance>  (253) 
nan

>  <PDB_ID>  (253) 
nan

>  <Standardized_SMILES>  (253) 
COc1cc2c(Nc3cc(CC(=O)Nc4cccc(F)c4F)[nH]n3)ncnc2cc1OCCCN1CCC(CO)CC1

>  <Name>  (253) 
nan

>  <Pocket>  (253) 
nan

>  <ATP_Site>  (253) 
nan

>  <Peripheral>  (253) 
nan

>  <Num_H_Atoms_ProtBoundConf>  (253) 
nan

>  <Num_Resolved_Atoms>  (253) 
nan

>  <Num_Not_Resolved_Atoms>  (253) 
nan

$$$$
CHEMBL263510
     RDKit          3D

  0  0  0  0  0  0  0  0  0  0999 V3000
M  V30 BEGIN CTAB
M  V30 COUNTS 52 56 0 0 0
M  V30 BEGIN ATOM
M  V30 1 C 2.631992 -6.067229 -0.807420 0
M  V30 2 C 2.514098 -5.556310 0.594381 0
M  V30 3 N 2.434704 -6.269181 1.730145 0
M  V30 4 N 2.341216 -5.432621 2.770957 0
M  V30 5 C 2.364020 -4.171241 2.257272 0
M  V30 6 C 2.297194 -2.950657 2.890773 0
M  V30 7 C 2.330286 -1.735323 2.253984 0
M  V30 8 C 2.440123 -1.798578 0.867531 0
M  V30 9 C 2.494461 -0.653018 -0.033408 0
M  V30 10 C 3.148626 -0.549375 -1.242062 0
M  V30 11 N 3.083088 0.606656 -1.949441 0
M  V30 12 C 2.364583 1.659975 -1.451160 0
M  V30 13 C 1.677977 1.609108 -0.224003 0
M  V30 14 O 1.087549 2.811515 -0.053571 0
M  V30 15 C 0.292112 3.330282 0.943254 0
M  V30 16 C -1.019489 2.624909 1.187628 0 CFG=1
M  V30 17 N -1.693720 3.304930 2.237005 0
M  V30 18 C -1.833406 2.536262 -0.069855 0
M  V30 19 C -3.134194 1.849981 0.114654 0
M  V30 20 C -4.346418 2.729904 0.176739 0
M  V30 21 S -5.727420 1.586407 0.402639 0
M  V30 22 C -4.695249 0.085644 0.404181 0
M  V30 23 C -5.082442 -1.214730 0.538280 0
M  V30 24 C -4.156818 -2.216035 0.514749 0
M  V30 25 C -2.862865 -1.773973 0.348719 0
M  V30 26 C -2.446236 -0.470072 0.211270 0
M  V30 27 C -3.402768 0.516335 0.239042 0
M  V30 28 C 1.775171 0.415772 0.455676 0
M  V30 29 C 2.509980 -3.006905 0.193435 0
M  V30 30 C 2.471292 -4.196759 0.897033 0
M  V30 31 H 2.299422 -5.290912 -1.527506 0
M  V30 32 H 3.708217 -6.269786 -1.044901 0
M  V30 33 H 2.040935 -6.979616 -0.986517 0
M  V30 34 H 2.265049 -5.690122 3.784112 0
M  V30 35 H 2.212271 -2.932155 3.968505 0
M  V30 36 H 2.282902 -0.765339 2.686558 0
M  V30 37 H 3.683271 -1.441587 -1.535997 0
M  V30 38 H 2.458461 2.461862 -2.183193 0
M  V30 39 H 0.890178 3.270806 1.900794 0
M  V30 40 H 0.117575 4.435556 0.796247 0
M  V30 41 H -0.806466 1.604778 1.557798 0
M  V30 42 H -1.530592 3.011732 3.192767 0
M  V30 43 H -2.401775 3.992010 2.011337 0
M  V30 44 H -1.936454 3.525076 -0.506988 0
M  V30 45 H -1.232985 1.943410 -0.824353 0
M  V30 46 H -4.356503 3.793491 0.100889 0
M  V30 47 H -6.129877 -1.412383 0.661279 0
M  V30 48 H -4.410972 -3.259446 0.616622 0
M  V30 49 H -2.083810 -2.558167 0.325010 0
M  V30 50 H -1.388300 -0.288449 0.088271 0
M  V30 51 H 1.230927 0.468338 1.375693 0
M  V30 52 H 2.595416 -3.121312 -0.871160 0
M  V30 END ATOM
M  V30 BEGIN BOND
M  V30 1 1 1 2
M  V30 2 2 2 3
M  V30 3 1 3 4
M  V30 4 1 4 5
M  V30 5 2 5 6
M  V30 6 1 6 7
M  V30 7 2 7 8
M  V30 8 1 8 9
M  V30 9 2 9 10
M  V30 10 1 10 11
M  V30 11 2 11 12
M  V30 12 1 12 13
M  V30 13 1 13 14
M  V30 14 1 14 15
M  V30 15 1 15 16
M  V30 16 1 16 17
M  V30 17 1 16 18
M  V30 18 1 18 19
M  V30 19 2 19 20
M  V30 20 1 20 21
M  V30 21 1 21 22
M  V30 22 2 22 23
M  V30 23 1 23 24
M  V30 24 2 24 25
M  V30 25 1 25 26
M  V30 26 2 26 27
M  V30 27 2 13 28
M  V30 28 1 8 29
M  V30 29 2 29 30
M  V30 30 1 30 2
M  V30 31 1 30 5
M  V30 32 1 28 9
M  V30 33 1 27 19
M  V30 34 1 27 22
M  V30 35 1 1 31
M  V30 36 1 1 32
M  V30 37 1 1 33
M  V30 38 1 4 34
M  V30 39 1 6 35
M  V30 40 1 7 36
M  V30 41 1 10 37
M  V30 42 1 12 38
M  V30 43 1 15 39
M  V30 44 1 15 40
M  V30 45 1 16 41 CFG=1
M  V30 46 1 17 42
M  V30 47 1 17 43
M  V30 48 1 18 44
M  V30 49 1 18 45
M  V30 50 1 20 46
M  V30 51 1 23 47
M  V30 52 1 24 48
M  V30 53 1 25 49
M  V30 54 1 26 50
M  V30 55 1 28 51
M  V30 56 1 29 52
M  V30 END BOND
M  V30 END CTAB
M  END
>  <Dataset>  (254) 
ChEMBL_Kinases

>  <Ligand_Instance>  (254) 
nan

>  <PDB_ID>  (254) 
nan

>  <Standardized_SMILES>  (254) 
Cc1n[nH]c2ccc(-c3cncc(OC[C@@H](N)Cc4csc5ccccc45)c3)cc12

>  <Name>  (254) 
nan

>  <Pocket>  (254) 
nan

>  <ATP_Site>  (254) 
nan

>  <Peripheral>  (254) 
nan

>  <Num_H_Atoms_ProtBoundConf>  (254) 
nan

>  <Num_Resolved_Atoms>  (254) 
nan

>  <Num_Not_Resolved_Atoms>  (254) 
nan

$$$$
CHEMBL263664
     RDKit          3D

  0  0  0  0  0  0  0  0  0  0999 V3000
M  V30 BEGIN CTAB
M  V30 COUNTS 44 47 0 0 0
M  V30 BEGIN ATOM
M  V30 1 N -0.286790 -2.537604 1.526538 0
M  V30 2 C 0.718783 -1.850705 0.685807 0
M  V30 3 C 1.542023 -2.972578 0.111364 0
M  V30 4 C 2.629397 -2.566880 -0.776121 0
M  V30 5 C 3.937572 -2.309565 -0.423752 0
M  V30 6 C 4.931320 -1.923719 -1.298188 0
M  V30 7 C 4.620160 -1.776702 -2.633072 0
M  V30 8 Cl 5.891410 -1.286959 -3.728137 0
M  V30 9 C 3.326489 -2.021344 -3.042657 0
M  V30 10 C 2.358395 -2.405495 -2.140575 0
M  V30 11 C -0.068080 -1.177090 -0.389746 0
M  V30 12 C -0.870142 0.003392 0.083406 0
M  V30 13 N -0.434364 0.424585 1.427774 0
M  V30 14 C -1.338494 0.826384 2.477648 0
M  V30 15 N -1.331907 0.127020 3.616775 0
M  V30 16 C -2.161116 0.471643 4.619010 0
M  V30 17 N -3.007040 1.529819 4.477930 0
M  V30 18 C -3.046444 2.251942 3.363458 0
M  V30 19 N -3.735107 3.314409 2.917626 0
M  V30 20 C -3.352222 3.643243 1.651360 0
M  V30 21 C -2.379587 2.762268 1.260783 0
M  V30 22 C -2.199872 1.906454 2.329775 0
M  V30 23 C 0.990037 0.435542 1.708530 0
M  V30 24 C 1.467198 -0.986415 1.605437 0
M  V30 25 H -1.129206 -1.920251 1.582647 0
M  V30 26 H -0.617085 -3.353754 0.934891 0
M  V30 27 H 0.840235 -3.617529 -0.494980 0
M  V30 28 H 1.907824 -3.659977 0.927210 0
M  V30 29 H 4.213902 -2.419325 0.594335 0
M  V30 30 H 5.926731 -1.741395 -0.947797 0
M  V30 31 H 3.154328 -1.887075 -4.099839 0
M  V30 32 H 1.403189 -2.561377 -2.604782 0
M  V30 33 H 0.600115 -0.808784 -1.194641 0
M  V30 34 H -0.776250 -1.878480 -0.873692 0
M  V30 35 H -0.711757 0.878260 -0.573815 0
M  V30 36 H -1.949134 -0.208243 0.073392 0
M  V30 37 H -2.224038 -0.040333 5.581135 0
M  V30 38 H -4.467641 3.801762 3.501828 0
M  V30 39 H -3.805102 4.483310 1.125387 0
M  V30 40 H -1.891288 2.785403 0.298324 0
M  V30 41 H 1.186926 0.806305 2.718992 0
M  V30 42 H 1.482231 1.098964 0.948538 0
M  V30 43 H 1.520375 -1.391698 2.651353 0
M  V30 44 H 2.531910 -0.918252 1.298130 0
M  V30 END ATOM
M  V30 BEGIN BOND
M  V30 1 1 1 2
M  V30 2 1 2 3
M  V30 3 1 3 4
M  V30 4 2 4 5
M  V30 5 1 5 6
M  V30 6 2 6 7
M  V30 7 1 7 8
M  V30 8 1 7 9
M  V30 9 2 9 10
M  V30 10 1 2 11
M  V30 11 1 11 12
M  V30 12 1 12 13
M  V30 13 1 13 14
M  V30 14 2 14 15
M  V30 15 1 15 16
M  V30 16 2 16 17
M  V30 17 1 17 18
M  V30 18 1 18 19
M  V30 19 1 19 20
M  V30 20 2 20 21
M  V30 21 1 21 22
M  V30 22 1 13 23
M  V30 23 1 23 24
M  V30 24 1 24 2
M  V30 25 1 10 4
M  V30 26 1 22 14
M  V30 27 2 22 18
M  V30 28 1 1 25
M  V30 29 1 1 26
M  V30 30 1 3 27
M  V30 31 1 3 28
M  V30 32 1 5 29
M  V30 33 1 6 30
M  V30 34 1 9 31
M  V30 35 1 10 32
M  V30 36 1 11 33
M  V30 37 1 11 34
M  V30 38 1 12 35
M  V30 39 1 12 36
M  V30 40 1 16 37
M  V30 41 1 19 38
M  V30 42 1 20 39
M  V30 43 1 21 40
M  V30 44 1 23 41
M  V30 45 1 23 42
M  V30 46 1 24 43
M  V30 47 1 24 44
M  V30 END BOND
M  V30 END CTAB
M  END
>  <Dataset>  (255) 
ChEMBL_Kinases

>  <Ligand_Instance>  (255) 
nan

>  <PDB_ID>  (255) 
nan

>  <Standardized_SMILES>  (255) 
NC1(Cc2ccc(Cl)cc2)CCN(c2ncnc3[nH]ccc23)CC1

>  <Name>  (255) 
nan

>  <Pocket>  (255) 
nan

>  <ATP_Site>  (255) 
nan

>  <Peripheral>  (255) 
nan

>  <Num_H_Atoms_ProtBoundConf>  (255) 
nan

>  <Num_Resolved_Atoms>  (255) 
nan

>  <Num_Not_Resolved_Atoms>  (255) 
nan

$$$$
CHEMBL263769
     RDKit          3D

  0  0  0  0  0  0  0  0  0  0999 V3000
M  V30 BEGIN CTAB
M  V30 COUNTS 80 84 0 0 0
M  V30 BEGIN ATOM
M  V30 1 C 1.617672 -0.380228 4.643941 0
M  V30 2 C 1.020870 -1.558332 3.982097 0
M  V30 3 C -0.135526 -2.206692 4.366958 0
M  V30 4 C -0.648345 -3.304123 3.707849 0
M  V30 5 C 0.069462 -3.742917 2.606602 0
M  V30 6 C 1.218966 -3.114059 2.208285 0
M  V30 7 C 1.860857 -3.719188 1.006562 0
M  V30 8 C 1.717101 -2.012389 2.885375 0
M  V30 9 O 2.887325 -1.529354 2.319580 0
M  V30 10 C 2.888363 -0.578958 1.317883 0
M  V30 11 O 1.631229 -0.468298 1.266923 0
M  V30 12 N 3.340392 0.325093 0.340784 0
M  V30 13 C 2.122578 0.829647 -0.122519 0
M  V30 14 C 1.687143 1.964114 0.572056 0
M  V30 15 C 0.491241 2.604935 0.244940 0
M  V30 16 N -0.236915 2.086622 -0.773176 0
M  V30 17 C 0.185208 0.987812 -1.444596 0
M  V30 18 N -0.729751 0.624937 -2.460589 0
M  V30 19 C -1.783765 -0.255333 -2.029989 0
M  V30 20 C -1.819334 -0.744578 -0.741852 0
M  V30 21 C -2.809965 -1.578466 -0.274344 0
M  V30 22 C -3.830321 -1.959760 -1.115100 0
M  V30 23 N -4.912870 -2.826650 -0.740319 0
M  V30 24 C -6.108705 -3.120665 -1.530185 0
M  V30 25 C -7.356095 -3.121965 -0.635281 0
M  V30 26 N -7.035263 -2.428285 0.558080 0
M  V30 27 C -7.211752 -1.028622 0.592110 0
M  V30 28 C -6.069259 -3.006714 1.415336 0
M  V30 29 C -4.953454 -3.548831 0.516163 0
M  V30 30 C -3.817806 -1.483526 -2.411396 0
M  V30 31 C -2.817913 -0.645684 -2.871820 0
M  V30 32 N 1.326819 0.377991 -1.131557 0
M  V30 33 C 4.715998 0.530318 0.053802 0
M  V30 34 C 5.565747 -0.232410 0.864434 0
M  V30 35 C 6.919796 -0.077026 0.629509 0
M  V30 36 C 7.436913 0.770525 -0.339115 0
M  V30 37 F 8.747405 0.960682 -0.606657 0
M  V30 38 C 6.520172 1.472157 -1.078995 0
M  V30 39 C 5.158492 1.396570 -0.931996 0
M  V30 40 O 4.087812 1.990477 -1.546446 0
M  V30 41 C 4.294084 2.914388 -2.591000 0
M  V30 42 C 3.711758 2.370831 -3.901855 0
M  V30 43 C 3.590297 4.226447 -2.314765 0
M  V30 44 H 2.726663 -0.469047 4.647359 0
M  V30 45 H 1.285280 0.592541 4.193502 0
M  V30 46 H 1.310700 -0.353225 5.719708 0
M  V30 47 H -0.649319 -1.814468 5.232515 0
M  V30 48 H -1.555819 -3.789030 4.034794 0
M  V30 49 H -0.355004 -4.611673 2.102896 0
M  V30 50 H 1.506832 -3.218179 0.077937 0
M  V30 51 H 2.962273 -3.574691 1.124233 0
M  V30 52 H 1.673149 -4.787530 0.921600 0
M  V30 53 H 2.249422 2.413124 1.402437 0
M  V30 54 H 0.174641 3.481878 0.796064 0
M  V30 55 H -0.740919 0.906487 -3.468437 0
M  V30 56 H -1.049566 -0.479560 -0.036995 0
M  V30 57 H -2.803548 -1.935282 0.733746 0
M  V30 58 H -6.233844 -2.431741 -2.374101 0
M  V30 59 H -6.014300 -4.152430 -1.964294 0
M  V30 60 H -8.187268 -2.554891 -1.123773 0
M  V30 61 H -7.659294 -4.173693 -0.422169 0
M  V30 62 H -6.191744 -0.558828 0.617920 0
M  V30 63 H -7.678172 -0.691709 -0.354828 0
M  V30 64 H -7.853626 -0.647860 1.410607 0
M  V30 65 H -5.673903 -2.236921 2.107765 0
M  V30 66 H -6.454104 -3.816985 2.070272 0
M  V30 67 H -3.980156 -3.545753 1.058592 0
M  V30 68 H -5.169271 -4.618720 0.266863 0
M  V30 69 H -4.539813 -1.689019 -3.185326 0
M  V30 70 H -2.757519 -0.242301 -3.880075 0
M  V30 71 H 5.215649 -0.908214 1.633309 0
M  V30 72 H 7.666802 -0.625472 1.209097 0
M  V30 73 H 6.819538 2.156952 -1.858585 0
M  V30 74 H 5.367234 3.125381 -2.804113 0
M  V30 75 H 4.455673 2.302450 -4.701172 0
M  V30 76 H 3.203782 1.384006 -3.712390 0
M  V30 77 H 2.910412 3.045162 -4.220771 0
M  V30 78 H 4.295213 5.042366 -2.486272 0
M  V30 79 H 2.750124 4.390844 -3.035783 0
M  V30 80 H 3.208556 4.296989 -1.274040 0
M  V30 END ATOM
M  V30 BEGIN BOND
M  V30 1 1 1 2
M  V30 2 2 2 3
M  V30 3 1 3 4
M  V30 4 2 4 5
M  V30 5 1 5 6
M  V30 6 1 6 7
M  V30 7 2 6 8
M  V30 8 1 8 9
M  V30 9 1 9 10
M  V30 10 2 10 11
M  V30 11 1 10 12
M  V30 12 1 12 13
M  V30 13 2 13 14
M  V30 14 1 14 15
M  V30 15 2 15 16
M  V30 16 1 16 17
M  V30 17 1 17 18
M  V30 18 1 18 19
M  V30 19 2 19 20
M  V30 20 1 20 21
M  V30 21 2 21 22
M  V30 22 1 22 23
M  V30 23 1 23 24
M  V30 24 1 24 25
M  V30 25 1 25 26
M  V30 26 1 26 27
M  V30 27 1 26 28
M  V30 28 1 28 29
M  V30 29 1 22 30
M  V30 30 2 30 31
M  V30 31 2 17 32
M  V30 32 1 12 33
M  V30 33 2 33 34
M  V30 34 1 34 35
M  V30 35 2 35 36
M  V30 36 1 36 37
M  V30 37 1 36 38
M  V30 38 2 38 39
M  V30 39 1 39 40
M  V30 40 1 40 41
M  V30 41 1 41 42
M  V30 42 1 41 43
M  V30 43 1 8 2
M  V30 44 1 32 13
M  V30 45 1 39 33
M  V30 46 1 31 19
M  V30 47 1 29 23
M  V30 48 1 1 44
M  V30 49 1 1 45
M  V30 50 1 1 46
M  V30 51 1 3 47
M  V30 52 1 4 48
M  V30 53 1 5 49
M  V30 54 1 7 50
M  V30 55 1 7 51
M  V30 56 1 7 52
M  V30 57 1 14 53
M  V30 58 1 15 54
M  V30 59 1 18 55
M  V30 60 1 20 56
M  V30 61 1 21 57
M  V30 62 1 24 58
M  V30 63 1 24 59
M  V30 64 1 25 60
M  V30 65 1 25 61
M  V30 66 1 27 62
M  V30 67 1 27 63
M  V30 68 1 27 64
M  V30 69 1 28 65
M  V30 70 1 28 66
M  V30 71 1 29 67
M  V30 72 1 29 68
M  V30 73 1 30 69
M  V30 74 1 31 70
M  V30 75 1 34 71
M  V30 76 1 35 72
M  V30 77 1 38 73
M  V30 78 1 41 74
M  V30 79 1 42 75
M  V30 80 1 42 76
M  V30 81 1 42 77
M  V30 82 1 43 78
M  V30 83 1 43 79
M  V30 84 1 43 80
M  V30 END BOND
M  V30 END CTAB
M  END
>  <Dataset>  (256) 
ChEMBL_Kinases

>  <Ligand_Instance>  (256) 
nan

>  <PDB_ID>  (256) 
nan

>  <Standardized_SMILES>  (256) 
Cc1cccc(C)c1OC(=O)N(c1ccnc(Nc2ccc(N3CCN(C)CC3)cc2)n1)c1ccc(F)cc1OC(C)C

>  <Name>  (256) 
nan

>  <Pocket>  (256) 
nan

>  <ATP_Site>  (256) 
nan

>  <Peripheral>  (256) 
nan

>  <Num_H_Atoms_ProtBoundConf>  (256) 
nan

>  <Num_Resolved_Atoms>  (256) 
nan

>  <Num_Not_Resolved_Atoms>  (256) 
nan

$$$$
CHEMBL261919
     RDKit          3D

  0  0  0  0  0  0  0  0  0  0999 V3000
M  V30 BEGIN CTAB
M  V30 COUNTS 32 32 0 0 0
M  V30 BEGIN ATOM
M  V30 1 C -1.937001 -1.579396 2.808969 0
M  V30 2 C -0.468950 -1.760743 2.578163 0
M  V30 3 O -0.172004 -1.486195 1.248704 0
M  V30 4 P 1.437678 -1.648307 0.846551 0
M  V30 5 S 2.346589 -1.389951 2.306521 0
M  V30 6 O 1.839940 -3.176704 0.295371 0
M  V30 7 C 0.747529 -3.920037 -0.122256 0
M  V30 8 C 1.092228 -5.298344 -0.620897 0
M  V30 9 O 1.864520 -0.410295 -0.236566 0
M  V30 10 C 1.186600 0.798432 -0.134851 0
M  V30 11 C 1.796747 2.023007 0.142215 0
M  V30 12 C 1.022972 3.181369 0.223046 0
M  V30 13 C -0.342949 3.140814 0.033316 0
M  V30 14 N -1.068368 4.353832 0.129352 0 CHG=1 VAL=4
M  V30 15 O -2.322995 4.331925 -0.042462 0
M  V30 16 O -0.504023 5.578282 0.400245 0 CHG=-1 VAL=1
M  V30 17 C -0.955848 1.929171 -0.242055 0
M  V30 18 C -0.181091 0.786388 -0.320271 0
M  V30 19 H -2.552261 -1.923642 1.955105 0
M  V30 20 H -2.144984 -0.502306 2.967163 0
M  V30 21 H -2.267220 -2.114505 3.735574 0
M  V30 22 H 0.050217 -0.999210 3.221463 0
M  V30 23 H -0.082970 -2.767848 2.814606 0
M  V30 24 H 0.123059 -3.427261 -0.879998 0
M  V30 25 H 0.108974 -4.053390 0.788141 0
M  V30 26 H 2.062690 -5.655135 -0.261549 0
M  V30 27 H 1.065411 -5.299723 -1.745695 0
M  V30 28 H 0.317756 -6.028284 -0.285719 0
M  V30 29 H 2.878103 2.012127 0.285565 0
M  V30 30 H 1.542481 4.127025 0.443485 0
M  V30 31 H -2.025527 1.934188 -0.384767 0
M  V30 32 H -0.759417 -0.099583 -0.539093 0
M  V30 END ATOM
M  V30 BEGIN BOND
M  V30 1 1 1 2
M  V30 2 1 2 3
M  V30 3 1 3 4
M  V30 4 2 4 5
M  V30 5 1 4 6
M  V30 6 1 6 7
M  V30 7 1 7 8
M  V30 8 1 4 9
M  V30 9 1 9 10
M  V30 10 2 10 11
M  V30 11 1 11 12
M  V30 12 2 12 13
M  V30 13 1 13 14
M  V30 14 2 14 15
M  V30 15 1 14 16
M  V30 16 1 13 17
M  V30 17 2 17 18
M  V30 18 1 18 10
M  V30 19 1 1 19
M  V30 20 1 1 20
M  V30 21 1 1 21
M  V30 22 1 2 22
M  V30 23 1 2 23
M  V30 24 1 7 24
M  V30 25 1 7 25
M  V30 26 1 8 26
M  V30 27 1 8 27
M  V30 28 1 8 28
M  V30 29 1 11 29
M  V30 30 1 12 30
M  V30 31 1 17 31
M  V30 32 1 18 32
M  V30 END BOND
M  V30 END CTAB
M  END
>  <Dataset>  (257) 
ChEMBL_Kinases

>  <Ligand_Instance>  (257) 
nan

>  <PDB_ID>  (257) 
nan

>  <Standardized_SMILES>  (257) 
CCOP(=S)(OCC)Oc1ccc([N+](=O)[O-])cc1

>  <Name>  (257) 
PARATHION

>  <Pocket>  (257) 
nan

>  <ATP_Site>  (257) 
nan

>  <Peripheral>  (257) 
nan

>  <Num_H_Atoms_ProtBoundConf>  (257) 
nan

>  <Num_Resolved_Atoms>  (257) 
nan

>  <Num_Not_Resolved_Atoms>  (257) 
nan

$$$$
CHEMBL3086699
     RDKit          3D

  0  0  0  0  0  0  0  0  0  0999 V3000
M  V30 BEGIN CTAB
M  V30 COUNTS 44 47 0 0 0
M  V30 BEGIN ATOM
M  V30 1 C 2.173484 -7.288950 -2.356222 0
M  V30 2 O 0.913577 -7.013296 -1.780598 0
M  V30 3 C 0.633489 -5.769248 -1.277413 0
M  V30 4 C -0.649788 -5.666566 -0.747628 0
M  V30 5 C -1.132149 -4.482862 -0.185213 0
M  V30 6 C -0.257857 -3.392404 -0.178022 0
M  V30 7 C 1.020313 -3.479423 -0.700860 0
M  V30 8 C 1.472702 -4.661387 -1.251111 0
M  V30 9 C 2.072457 -2.484439 -0.792823 0
M  V30 10 O 1.760240 -1.158242 -0.611706 0
M  V30 11 C 0.847543 -0.427989 0.121368 0
M  V30 12 C 1.304013 0.859533 0.318439 0
M  V30 13 C 0.464162 1.664244 1.038286 0
M  V30 14 N 0.863316 3.008087 1.284374 0
M  V30 15 C 0.290237 4.111235 1.976558 0
M  V30 16 C -0.019334 5.316121 1.372591 0
M  V30 17 C -0.574262 6.369271 2.070072 0
M  V30 18 C -0.828046 6.201242 3.434106 0
M  V30 19 C -0.523884 4.993079 4.066713 0
M  V30 20 C 0.030156 3.968594 3.326970 0
M  V30 21 N 0.288551 2.809011 4.081618 0
M  V30 22 C -0.748481 1.232133 1.533944 0
M  V30 23 C -1.164047 -0.072565 1.309329 0
M  V30 24 C -0.350616 -0.929957 0.585547 0
M  V30 25 C -0.946480 -2.255450 0.449481 0
M  V30 26 O -2.110710 -2.403079 0.901752 0
M  V30 27 H 2.341036 -8.373265 -2.501934 0
M  V30 28 H 2.156085 -6.776216 -3.359479 0
M  V30 29 H 2.955300 -6.787807 -1.781361 0
M  V30 30 H -1.367017 -6.475741 -0.726457 0
M  V30 31 H -2.127359 -4.400142 0.226667 0
M  V30 32 H 2.451763 -4.812173 -1.678308 0
M  V30 33 H 2.863779 -2.763867 -0.041374 0
M  V30 34 H 2.602406 -2.638623 -1.778236 0
M  V30 35 H 2.244400 1.218041 -0.057918 0
M  V30 36 H 1.763034 3.395558 0.928358 0
M  V30 37 H 0.201706 5.385337 0.308603 0
M  V30 38 H -0.811733 7.304489 1.588956 0
M  V30 39 H -1.264933 7.011207 4.014133 0
M  V30 40 H -0.754197 4.947998 5.131849 0
M  V30 41 H -0.353042 1.996685 4.305356 0
M  V30 42 H 1.216324 2.649330 4.516266 0
M  V30 43 H -1.437727 1.837642 2.105607 0
M  V30 44 H -2.110525 -0.435968 1.687306 0
M  V30 END ATOM
M  V30 BEGIN BOND
M  V30 1 1 1 2
M  V30 2 1 2 3
M  V30 3 2 3 4
M  V30 4 1 4 5
M  V30 5 2 5 6
M  V30 6 1 6 7
M  V30 7 2 7 8
M  V30 8 1 7 9
M  V30 9 1 9 10
M  V30 10 1 10 11
M  V30 11 2 11 12
M  V30 12 1 12 13
M  V30 13 1 13 14
M  V30 14 1 14 15
M  V30 15 2 15 16
M  V30 16 1 16 17
M  V30 17 2 17 18
M  V30 18 1 18 19
M  V30 19 2 19 20
M  V30 20 1 20 21
M  V30 21 2 13 22
M  V30 22 1 22 23
M  V30 23 2 23 24
M  V30 24 1 24 25
M  V30 25 2 25 26
M  V30 26 1 8 3
M  V30 27 1 24 11
M  V30 28 1 25 6
M  V30 29 1 20 15
M  V30 30 1 1 27
M  V30 31 1 1 28
M  V30 32 1 1 29
M  V30 33 1 4 30
M  V30 34 1 5 31
M  V30 35 1 8 32
M  V30 36 1 9 33
M  V30 37 1 9 34
M  V30 38 1 12 35
M  V30 39 1 14 36
M  V30 40 1 16 37
M  V30 41 1 17 38
M  V30 42 1 18 39
M  V30 43 1 19 40
M  V30 44 1 21 41
M  V30 45 1 21 42
M  V30 46 1 22 43
M  V30 47 1 23 44
M  V30 END BOND
M  V30 END CTAB
M  END
>  <Dataset>  (258) 
ChEMBL_Kinases

>  <Ligand_Instance>  (258) 
nan

>  <PDB_ID>  (258) 
nan

>  <Standardized_SMILES>  (258) 
COc1ccc2c(c1)COc1cc(Nc3ccccc3N)ccc1C2=O

>  <Name>  (258) 
nan

>  <Pocket>  (258) 
nan

>  <ATP_Site>  (258) 
nan

>  <Peripheral>  (258) 
nan

>  <Num_H_Atoms_ProtBoundConf>  (258) 
nan

>  <Num_Resolved_Atoms>  (258) 
nan

>  <Num_Not_Resolved_Atoms>  (258) 
nan

$$$$
CHEMBL3086698
     RDKit          3D

  0  0  0  0  0  0  0  0  0  0999 V3000
M  V30 BEGIN CTAB
M  V30 COUNTS 60 64 0 0 0
M  V30 BEGIN ATOM
M  V30 1 N 4.792700 -1.274858 6.302491 0
M  V30 2 C 5.361304 -0.260003 5.491972 0
M  V30 3 C 6.469673 0.376566 6.006759 0
M  V30 4 C 7.040279 1.366473 5.238568 0
M  V30 5 C 6.583045 1.759573 4.003287 0
M  V30 6 C 5.465915 1.117806 3.485228 0
M  V30 7 N 4.923702 1.434851 2.212647 0
M  V30 8 C 3.657194 1.286831 1.588571 0
M  V30 9 C 3.542670 1.262386 0.207611 0
M  V30 10 C 2.289847 1.132977 -0.346485 0
M  V30 11 C 1.149802 1.027355 0.420838 0
M  V30 12 C 1.262800 1.052083 1.795658 0
M  V30 13 C 2.517384 1.181885 2.357123 0
M  V30 14 O 0.170879 0.952368 2.644918 0
M  V30 15 C -1.183710 1.341416 2.565419 0
M  V30 16 C -1.875304 0.846187 1.346732 0
M  V30 17 C -3.202322 0.538024 1.561955 0
M  V30 18 C -3.996870 0.058463 0.513066 0
M  V30 19 C -3.485275 -0.124637 -0.774856 0
M  V30 20 O -4.466902 -0.594899 -1.583761 0
M  V30 21 C -4.457751 -0.933950 -2.921895 0
M  V30 22 C -3.532994 -2.034091 -3.332560 0
M  V30 23 N -3.846584 -3.269672 -2.643326 0
M  V30 24 C -5.109945 -3.840959 -3.044915 0
M  V30 25 C -5.001249 -5.284484 -3.481381 0
M  V30 26 O -4.017214 -5.462445 -4.444793 0
M  V30 27 C -2.783992 -4.997608 -4.048696 0
M  V30 28 C -2.829293 -4.268504 -2.722273 0
M  V30 29 C -2.158281 0.192253 -0.956700 0
M  V30 30 C -1.373424 0.664309 0.073339 0
M  V30 31 C -0.027652 0.901016 -0.442221 0
M  V30 32 O 0.091313 0.995904 -1.690862 0
M  V30 33 C 4.888125 0.125522 4.246438 0
M  V30 34 H 5.347285 -2.149490 6.224769 0
M  V30 35 H 3.952057 -1.258836 6.921380 0
M  V30 36 H 6.955987 0.196708 6.948655 0
M  V30 37 H 7.919609 1.919094 5.572133 0
M  V30 38 H 7.060892 2.550325 3.419137 0
M  V30 39 H 5.652586 1.894379 1.582935 0
M  V30 40 H 4.420587 1.343842 -0.383542 0
M  V30 41 H 2.196964 1.113855 -1.425271 0
M  V30 42 H 2.483197 1.199732 3.430975 0
M  V30 43 H -1.699555 0.923540 3.454279 0
M  V30 44 H -1.299211 2.450786 2.647799 0
M  V30 45 H -3.539119 0.698181 2.570476 0
M  V30 46 H -5.012533 -0.128531 0.874849 0
M  V30 47 H -4.237143 -0.030792 -3.536628 0
M  V30 48 H -5.498472 -1.296781 -3.175391 0
M  V30 49 H -3.754320 -2.219751 -4.428713 0
M  V30 50 H -2.463080 -1.798776 -3.312336 0
M  V30 51 H -5.662179 -3.233562 -3.792691 0
M  V30 52 H -5.757876 -3.853151 -2.126075 0
M  V30 53 H -5.977526 -5.533995 -3.963139 0
M  V30 54 H -4.881017 -5.975520 -2.625934 0
M  V30 55 H -2.426357 -4.277599 -4.824753 0
M  V30 56 H -2.017536 -5.797627 -3.984208 0
M  V30 57 H -1.814182 -3.893291 -2.501638 0
M  V30 58 H -3.040395 -5.021637 -1.925995 0
M  V30 59 H -1.835751 0.031545 -1.973536 0
M  V30 60 H 4.025891 -0.465754 3.969435 0
M  V30 END ATOM
M  V30 BEGIN BOND
M  V30 1 1 1 2
M  V30 2 2 2 3
M  V30 3 1 3 4
M  V30 4 2 4 5
M  V30 5 1 5 6
M  V30 6 1 6 7
M  V30 7 1 7 8
M  V30 8 2 8 9
M  V30 9 1 9 10
M  V30 10 2 10 11
M  V30 11 1 11 12
M  V30 12 2 12 13
M  V30 13 1 12 14
M  V30 14 1 14 15
M  V30 15 1 15 16
M  V30 16 2 16 17
M  V30 17 1 17 18
M  V30 18 2 18 19
M  V30 19 1 19 20
M  V30 20 1 20 21
M  V30 21 1 21 22
M  V30 22 1 22 23
M  V30 23 1 23 24
M  V30 24 1 24 25
M  V30 25 1 25 26
M  V30 26 1 26 27
M  V30 27 1 27 28
M  V30 28 1 19 29
M  V30 29 2 29 30
M  V30 30 1 30 31
M  V30 31 2 31 32
M  V30 32 2 6 33
M  V30 33 1 33 2
M  V30 34 1 13 8
M  V30 35 1 30 16
M  V30 36 1 31 11
M  V30 37 1 28 23
M  V30 38 1 1 34
M  V30 39 1 1 35
M  V30 40 1 3 36
M  V30 41 1 4 37
M  V30 42 1 5 38
M  V30 43 1 7 39
M  V30 44 1 9 40
M  V30 45 1 10 41
M  V30 46 1 13 42
M  V30 47 1 15 43
M  V30 48 1 15 44
M  V30 49 1 17 45
M  V30 50 1 18 46
M  V30 51 1 21 47
M  V30 52 1 21 48
M  V30 53 1 22 49
M  V30 54 1 22 50
M  V30 55 1 24 51
M  V30 56 1 24 52
M  V30 57 1 25 53
M  V30 58 1 25 54
M  V30 59 1 27 55
M  V30 60 1 27 56
M  V30 61 1 28 57
M  V30 62 1 28 58
M  V30 63 1 29 59
M  V30 64 1 33 60
M  V30 END BOND
M  V30 END CTAB
M  END
>  <Dataset>  (259) 
ChEMBL_Kinases

>  <Ligand_Instance>  (259) 
nan

>  <PDB_ID>  (259) 
nan

>  <Standardized_SMILES>  (259) 
Nc1cccc(Nc2ccc3c(c2)OCc2ccc(OCCN4CCOCC4)cc2C3=O)c1

>  <Name>  (259) 
nan

>  <Pocket>  (259) 
nan

>  <ATP_Site>  (259) 
nan

>  <Peripheral>  (259) 
nan

>  <Num_H_Atoms_ProtBoundConf>  (259) 
nan

>  <Num_Resolved_Atoms>  (259) 
nan

>  <Num_Not_Resolved_Atoms>  (259) 
nan

$$$$
CHEMBL3086697
     RDKit          3D

  0  0  0  0  0  0  0  0  0  0999 V3000
M  V30 BEGIN CTAB
M  V30 COUNTS 60 64 0 0 0
M  V30 BEGIN ATOM
M  V30 1 N 5.087086 0.998272 1.007002 0
M  V30 2 C 5.300017 2.293095 1.539617 0
M  V30 3 C 5.964105 2.327411 2.738572 0
M  V30 4 C 6.284379 3.482779 3.440649 0
M  V30 5 C 5.883582 4.680297 2.849757 0
M  V30 6 C 5.203647 4.696307 1.628032 0
M  V30 7 C 4.922528 3.505644 0.992480 0
M  V30 8 N 4.238749 3.428693 -0.256280 0
M  V30 9 C 2.985025 2.753695 -0.455633 0
M  V30 10 C 2.399654 2.612581 -1.714307 0
M  V30 11 C 1.191467 1.958977 -1.847571 0
M  V30 12 C 0.583229 1.453011 -0.712146 0
M  V30 13 C 1.148316 1.582704 0.549374 0
M  V30 14 C 2.345277 2.231392 0.673838 0
M  V30 15 O 0.579652 1.094668 1.714987 0
M  V30 16 C -0.735081 0.807164 2.098930 0
M  V30 17 C -1.554998 0.062036 1.153651 0
M  V30 18 C -2.453014 -0.726059 1.842725 0
M  V30 19 C -3.355323 -1.539744 1.193479 0
M  V30 20 C -3.399680 -1.601907 -0.181141 0
M  V30 21 O -4.149558 -2.287043 -1.115392 0
M  V30 22 C -5.157459 -3.201969 -0.863864 0
M  V30 23 C -4.842074 -4.471279 -0.177662 0
M  V30 24 N -3.948437 -5.333018 -0.881811 0
M  V30 25 C -2.600453 -4.925608 -1.024197 0
M  V30 26 C -1.830728 -4.989672 0.287144 0
M  V30 27 O -2.166221 -6.155040 0.986622 0
M  V30 28 C -2.711932 -7.113842 0.139673 0
M  V30 29 C -4.058113 -6.718325 -0.418459 0
M  V30 30 C -2.490922 -0.803961 -0.897903 0
M  V30 31 C -1.576534 0.020905 -0.224718 0
M  V30 32 C -0.687141 0.798405 -1.083127 0
M  V30 33 O -1.111359 0.882493 -2.268078 0
M  V30 34 H 4.810993 0.222169 1.628423 0
M  V30 35 H 5.169493 0.681093 0.020565 0
M  V30 36 H 6.302793 1.419402 3.249753 0
M  V30 37 H 6.815290 3.461462 4.393755 0
M  V30 38 H 6.109793 5.612660 3.360422 0
M  V30 39 H 4.892489 5.625762 1.169012 0
M  V30 40 H 4.641601 3.882454 -1.116093 0
M  V30 41 H 2.926208 3.033651 -2.584782 0
M  V30 42 H 0.742639 1.852975 -2.828069 0
M  V30 43 H 2.711079 2.290454 1.674867 0
M  V30 44 H -0.730658 0.341665 3.107796 0
M  V30 45 H -1.253158 1.800994 2.241520 0
M  V30 46 H -2.511618 -0.761030 2.914854 0
M  V30 47 H -4.093237 -2.179987 1.620372 0
M  V30 48 H -5.722116 -3.394732 -1.818375 0
M  V30 49 H -5.904965 -2.666698 -0.182733 0
M  V30 50 H -4.489719 -4.357053 0.869652 0
M  V30 51 H -5.796336 -5.085576 -0.049392 0
M  V30 52 H -2.091383 -5.662765 -1.730244 0
M  V30 53 H -2.533008 -3.922606 -1.454716 0
M  V30 54 H -0.766731 -4.887282 0.065764 0
M  V30 55 H -2.144404 -4.132286 0.907504 0
M  V30 56 H -2.037888 -7.411789 -0.684010 0
M  V30 57 H -2.883903 -8.014581 0.764473 0
M  V30 58 H -4.874409 -6.858528 0.303541 0
M  V30 59 H -4.265874 -7.338624 -1.312444 0
M  V30 60 H -2.353981 -0.699228 -1.980792 0
M  V30 END ATOM
M  V30 BEGIN BOND
M  V30 1 1 1 2
M  V30 2 2 2 3
M  V30 3 1 3 4
M  V30 4 2 4 5
M  V30 5 1 5 6
M  V30 6 2 6 7
M  V30 7 1 7 8
M  V30 8 1 8 9
M  V30 9 2 9 10
M  V30 10 1 10 11
M  V30 11 2 11 12
M  V30 12 1 12 13
M  V30 13 2 13 14
M  V30 14 1 13 15
M  V30 15 1 15 16
M  V30 16 1 16 17
M  V30 17 2 17 18
M  V30 18 1 18 19
M  V30 19 2 19 20
M  V30 20 1 20 21
M  V30 21 1 21 22
M  V30 22 1 22 23
M  V30 23 1 23 24
M  V30 24 1 24 25
M  V30 25 1 25 26
M  V30 26 1 26 27
M  V30 27 1 27 28
M  V30 28 1 28 29
M  V30 29 1 20 30
M  V30 30 2 30 31
M  V30 31 1 31 32
M  V30 32 2 32 33
M  V30 33 1 7 2
M  V30 34 1 14 9
M  V30 35 1 31 17
M  V30 36 1 32 12
M  V30 37 1 29 24
M  V30 38 1 1 34
M  V30 39 1 1 35
M  V30 40 1 3 36
M  V30 41 1 4 37
M  V30 42 1 5 38
M  V30 43 1 6 39
M  V30 44 1 8 40
M  V30 45 1 10 41
M  V30 46 1 11 42
M  V30 47 1 14 43
M  V30 48 1 16 44
M  V30 49 1 16 45
M  V30 50 1 18 46
M  V30 51 1 19 47
M  V30 52 1 22 48
M  V30 53 1 22 49
M  V30 54 1 23 50
M  V30 55 1 23 51
M  V30 56 1 25 52
M  V30 57 1 25 53
M  V30 58 1 26 54
M  V30 59 1 26 55
M  V30 60 1 28 56
M  V30 61 1 28 57
M  V30 62 1 29 58
M  V30 63 1 29 59
M  V30 64 1 30 60
M  V30 END BOND
M  V30 END CTAB
M  END
>  <Dataset>  (260) 
ChEMBL_Kinases

>  <Ligand_Instance>  (260) 
nan

>  <PDB_ID>  (260) 
nan

>  <Standardized_SMILES>  (260) 
Nc1ccccc1Nc1ccc2c(c1)OCc1ccc(OCCN3CCOCC3)cc1C2=O

>  <Name>  (260) 
nan

>  <Pocket>  (260) 
nan

>  <ATP_Site>  (260) 
nan

>  <Peripheral>  (260) 
nan

>  <Num_H_Atoms_ProtBoundConf>  (260) 
nan

>  <Num_Resolved_Atoms>  (260) 
nan

>  <Num_Not_Resolved_Atoms>  (260) 
nan

$$$$
CHEMBL3086696
     RDKit          3D

  0  0  0  0  0  0  0  0  0  0999 V3000
M  V30 BEGIN CTAB
M  V30 COUNTS 58 62 0 0 0
M  V30 BEGIN ATOM
M  V30 1 O -0.319829 0.565913 0.146008 0
M  V30 2 C -0.423064 -0.671883 0.344319 0
M  V30 3 C 0.454927 -1.261353 1.352055 0
M  V30 4 C 1.438017 -0.360338 1.637452 0
M  V30 5 C 2.427042 -0.631694 2.560088 0
M  V30 6 O 3.506888 0.037825 3.048327 0
M  V30 7 C 4.008045 1.289903 2.782864 0
M  V30 8 C 3.071379 2.394043 3.121317 0
M  V30 9 N 3.654162 3.711973 2.817414 0
M  V30 10 C 3.754951 3.806728 1.372022 0
M  V30 11 C 3.976588 5.197181 0.870203 0
M  V30 12 O 3.397825 6.192753 1.650626 0
M  V30 13 C 2.269853 5.655402 2.258607 0
M  V30 14 C 2.716775 4.691082 3.337309 0
M  V30 15 C 2.354131 -1.887815 3.179812 0
M  V30 16 C 1.370442 -2.830400 2.916207 0
M  V30 17 C 0.394258 -2.492702 1.968382 0
M  V30 18 C -0.610999 -3.561202 1.757914 0
M  V30 19 O -1.035633 -3.696115 0.421456 0
M  V30 20 C -1.700838 -2.788805 -0.425636 0
M  V30 21 C -2.668689 -3.334351 -1.244308 0
M  V30 22 C -3.360756 -2.511543 -2.098697 0
M  V30 23 N -4.365301 -3.048834 -2.958936 0
M  V30 24 C -4.579958 -4.454578 -3.015431 0
M  V30 25 C -5.709060 -5.188782 -2.718013 0
M  V30 26 C -5.667245 -6.556597 -2.859248 0
M  V30 27 C -4.545873 -7.234143 -3.285853 0
M  V30 28 F -4.564363 -8.577784 -3.404599 0
M  V30 29 C -3.400224 -6.489091 -3.587622 0
M  V30 30 C -3.439150 -5.114741 -3.446754 0
M  V30 31 F -2.236231 -4.542509 -3.786503 0
M  V30 32 C -3.063579 -1.165372 -2.108523 0
M  V30 33 C -2.102708 -0.578852 -1.305681 0
M  V30 34 C -1.414117 -1.435693 -0.447235 0
M  V30 35 H 1.568604 0.616984 1.202425 0
M  V30 36 H 4.337576 1.302415 1.717620 0
M  V30 37 H 4.928303 1.442738 3.419620 0
M  V30 38 H 2.957496 2.383769 4.246983 0
M  V30 39 H 2.100070 2.389287 2.634484 0
M  V30 40 H 2.847884 3.327232 0.956928 0
M  V30 41 H 4.638584 3.209363 1.064644 0
M  V30 42 H 3.653265 5.247822 -0.194514 0
M  V30 43 H 5.078230 5.443884 0.841568 0
M  V30 44 H 1.695864 5.075861 1.500623 0
M  V30 45 H 1.590784 6.394935 2.704071 0
M  V30 46 H 3.184599 5.324984 4.129016 0
M  V30 47 H 1.801620 4.225057 3.742275 0
M  V30 48 H 3.034269 -2.307050 3.939048 0
M  V30 49 H 1.259568 -3.795043 3.348950 0
M  V30 50 H -0.149694 -4.529400 2.041884 0
M  V30 51 H -1.447198 -3.399797 2.478911 0
M  V30 52 H -2.838653 -4.399151 -1.170998 0
M  V30 53 H -4.924787 -2.390390 -3.532055 0
M  V30 54 H -6.534133 -4.573289 -2.393281 0
M  V30 55 H -6.593052 -7.085919 -2.608858 0
M  V30 56 H -2.543261 -7.064264 -3.919005 0
M  V30 57 H -3.594535 -0.494184 -2.772276 0
M  V30 58 H -1.894462 0.488682 -1.340138 0
M  V30 END ATOM
M  V30 BEGIN BOND
M  V30 1 2 1 2
M  V30 2 1 2 3
M  V30 3 2 3 4
M  V30 4 1 4 5
M  V30 5 1 5 6
M  V30 6 1 6 7
M  V30 7 1 7 8
M  V30 8 1 8 9
M  V30 9 1 9 10
M  V30 10 1 10 11
M  V30 11 1 11 12
M  V30 12 1 12 13
M  V30 13 1 13 14
M  V30 14 2 5 15
M  V30 15 1 15 16
M  V30 16 2 16 17
M  V30 17 1 17 18
M  V30 18 1 18 19
M  V30 19 1 19 20
M  V30 20 2 20 21
M  V30 21 1 21 22
M  V30 22 1 22 23
M  V30 23 1 23 24
M  V30 24 2 24 25
M  V30 25 1 25 26
M  V30 26 2 26 27
M  V30 27 1 27 28
M  V30 28 1 27 29
M  V30 29 2 29 30
M  V30 30 1 30 31
M  V30 31 2 22 32
M  V30 32 1 32 33
M  V30 33 2 33 34
M  V30 34 1 34 2
M  V30 35 1 17 3
M  V30 36 1 34 20
M  V30 37 1 14 9
M  V30 38 1 30 24
M  V30 39 1 4 35
M  V30 40 1 7 36
M  V30 41 1 7 37
M  V30 42 1 8 38
M  V30 43 1 8 39
M  V30 44 1 10 40
M  V30 45 1 10 41
M  V30 46 1 11 42
M  V30 47 1 11 43
M  V30 48 1 13 44
M  V30 49 1 13 45
M  V30 50 1 14 46
M  V30 51 1 14 47
M  V30 52 1 15 48
M  V30 53 1 16 49
M  V30 54 1 18 50
M  V30 55 1 18 51
M  V30 56 1 21 52
M  V30 57 1 23 53
M  V30 58 1 25 54
M  V30 59 1 26 55
M  V30 60 1 29 56
M  V30 61 1 32 57
M  V30 62 1 33 58
M  V30 END BOND
M  V30 END CTAB
M  END
>  <Dataset>  (261) 
ChEMBL_Kinases

>  <Ligand_Instance>  (261) 
nan

>  <PDB_ID>  (261) 
nan

>  <Standardized_SMILES>  (261) 
O=C1c2cc(OCCN3CCOCC3)ccc2COc2cc(Nc3ccc(F)cc3F)ccc21

>  <Name>  (261) 
nan

>  <Pocket>  (261) 
nan

>  <ATP_Site>  (261) 
nan

>  <Peripheral>  (261) 
nan

>  <Num_H_Atoms_ProtBoundConf>  (261) 
nan

>  <Num_Resolved_Atoms>  (261) 
nan

>  <Num_Not_Resolved_Atoms>  (261) 
nan

$$$$
CHEMBL3086695
     RDKit          3D

  0  0  0  0  0  0  0  0  0  0999 V3000
M  V30 BEGIN CTAB
M  V30 COUNTS 39 42 0 0 0
M  V30 BEGIN ATOM
M  V30 1 O 1.406549 -3.274807 3.223012 0
M  V30 2 C 1.447614 -2.607435 2.158125 0
M  V30 3 C 2.443251 -3.082801 1.172531 0
M  V30 4 C 3.501581 -3.737165 1.800131 0
M  V30 5 C 4.517618 -4.240682 1.005207 0
M  V30 6 O 5.575809 -4.894460 1.627096 0
M  V30 7 C 4.425098 -4.066459 -0.361032 0
M  V30 8 C 3.369599 -3.415287 -0.970951 0
M  V30 9 C 2.337368 -2.901264 -0.191339 0
M  V30 10 C 1.307838 -2.245794 -1.023370 0
M  V30 11 O 0.827407 -1.030008 -0.487852 0
M  V30 12 C 0.301834 -0.784027 0.771635 0
M  V30 13 C -0.592630 0.292912 0.803980 0
M  V30 14 C -1.162256 0.606234 2.019014 0
M  V30 15 N -2.077077 1.689508 2.104912 0
M  V30 16 C -2.545571 2.540475 1.069695 0
M  V30 17 C -2.384577 3.910665 1.020179 0
M  V30 18 C -2.875155 4.660348 -0.026329 0
M  V30 19 C -3.545033 4.025139 -1.052001 0
M  V30 20 F -4.023254 4.777417 -2.077409 0
M  V30 21 C -3.716884 2.649821 -1.020325 0
M  V30 22 C -3.221470 1.882861 0.038948 0
M  V30 23 F -3.475557 0.571783 -0.087627 0
M  V30 24 C -0.914194 -0.062770 3.197741 0
M  V30 25 C -0.024955 -1.137425 3.178604 0
M  V30 26 C 0.545755 -1.456096 1.976391 0
M  V30 27 H 3.467357 -3.815488 2.894737 0
M  V30 28 H 6.290840 -4.349610 2.133230 0
M  V30 29 H 5.242111 -4.474499 -0.964771 0
M  V30 30 H 3.334764 -3.299242 -2.050669 0
M  V30 31 H 0.450962 -2.966247 -1.065620 0
M  V30 32 H 1.701027 -2.101688 -2.049289 0
M  V30 33 H -0.791907 0.823314 -0.116848 0
M  V30 34 H -2.537678 2.011613 2.961996 0
M  V30 35 H -1.857831 4.360789 1.838691 0
M  V30 36 H -2.729748 5.744735 -0.033816 0
M  V30 37 H -4.256600 2.237111 -1.870808 0
M  V30 38 H -1.381661 0.214635 4.129954 0
M  V30 39 H 0.206622 -1.696909 4.070361 0
M  V30 END ATOM
M  V30 BEGIN BOND
M  V30 1 2 1 2
M  V30 2 1 2 3
M  V30 3 2 3 4
M  V30 4 1 4 5
M  V30 5 1 5 6
M  V30 6 2 5 7
M  V30 7 1 7 8
M  V30 8 2 8 9
M  V30 9 1 9 10
M  V30 10 1 10 11
M  V30 11 1 11 12
M  V30 12 2 12 13
M  V30 13 1 13 14
M  V30 14 1 14 15
M  V30 15 1 15 16
M  V30 16 2 16 17
M  V30 17 1 17 18
M  V30 18 2 18 19
M  V30 19 1 19 20
M  V30 20 1 19 21
M  V30 21 2 21 22
M  V30 22 1 22 23
M  V30 23 2 14 24
M  V30 24 1 24 25
M  V30 25 2 25 26
M  V30 26 1 26 2
M  V30 27 1 9 3
M  V30 28 1 26 12
M  V30 29 1 22 16
M  V30 30 1 4 27
M  V30 31 1 6 28
M  V30 32 1 7 29
M  V30 33 1 8 30
M  V30 34 1 10 31
M  V30 35 1 10 32
M  V30 36 1 13 33
M  V30 37 1 15 34
M  V30 38 1 17 35
M  V30 39 1 18 36
M  V30 40 1 21 37
M  V30 41 1 24 38
M  V30 42 1 25 39
M  V30 END BOND
M  V30 END CTAB
M  END
>  <Dataset>  (262) 
ChEMBL_Kinases

>  <Ligand_Instance>  (262) 
nan

>  <PDB_ID>  (262) 
nan

>  <Standardized_SMILES>  (262) 
O=C1c2cc(O)ccc2COc2cc(Nc3ccc(F)cc3F)ccc21

>  <Name>  (262) 
nan

>  <Pocket>  (262) 
nan

>  <ATP_Site>  (262) 
nan

>  <Peripheral>  (262) 
nan

>  <Num_H_Atoms_ProtBoundConf>  (262) 
nan

>  <Num_Resolved_Atoms>  (262) 
nan

>  <Num_Not_Resolved_Atoms>  (262) 
nan

$$$$
CHEMBL3086694
     RDKit          3D

  0  0  0  0  0  0  0  0  0  0999 V3000
M  V30 BEGIN CTAB
M  V30 COUNTS 42 45 0 0 0
M  V30 BEGIN ATOM
M  V30 1 C -1.579482 -7.044903 -2.448422 0
M  V30 2 O -1.410270 -5.666242 -2.738136 0
M  V30 3 C -0.758654 -4.899021 -1.779838 0
M  V30 4 C -0.285227 -5.428899 -0.587108 0
M  V30 5 C 0.360799 -4.648703 0.354046 0
M  V30 6 C 0.550409 -3.301558 0.119708 0
M  V30 7 C 0.068133 -2.800777 -1.077509 0
M  V30 8 C -0.586979 -3.537245 -2.056879 0
M  V30 9 C 0.166067 -1.408885 -1.516350 0
M  V30 10 O 0.072190 -1.149744 -2.750918 0
M  V30 11 C 0.368116 -0.236214 -0.656852 0
M  V30 12 C 0.238367 0.974231 -1.335909 0
M  V30 13 C 0.387071 2.203432 -0.727084 0
M  V30 14 C 0.678003 2.167053 0.622152 0
M  V30 15 N 0.844001 3.401356 1.310513 0
M  V30 16 C 1.140686 3.707831 2.669294 0
M  V30 17 C 2.253585 4.419890 3.082313 0
M  V30 18 C 2.478370 4.682165 4.433009 0
M  V30 19 C 1.567384 4.217941 5.364317 0
M  V30 20 F 1.818481 4.491503 6.665572 0
M  V30 21 C 0.448019 3.500648 4.937160 0
M  V30 22 C 0.237077 3.246332 3.581957 0
M  V30 23 F -0.884347 2.548950 3.380742 0
M  V30 24 C 0.816229 0.995578 1.337920 0
M  V30 25 C 0.660246 -0.215649 0.694215 0
M  V30 26 O 0.820264 -1.332157 1.507281 0
M  V30 27 C 1.251549 -2.652087 1.231300 0
M  V30 28 H -0.583396 -7.499354 -2.344514 0
M  V30 29 H -2.244628 -7.544731 -3.178487 0
M  V30 30 H -2.054535 -7.097603 -1.425108 0
M  V30 31 H -0.418566 -6.476611 -0.376505 0
M  V30 32 H 0.731110 -5.061626 1.286281 0
M  V30 33 H -0.925282 -3.051175 -2.958237 0
M  V30 34 H 0.009733 0.973792 -2.394325 0
M  V30 35 H 0.278856 3.113575 -1.286920 0
M  V30 36 H 0.752802 4.319935 0.824340 0
M  V30 37 H 2.923781 4.750735 2.282998 0
M  V30 38 H 3.377348 5.252160 4.711104 0
M  V30 39 H -0.194786 3.189789 5.773048 0
M  V30 40 H 1.043112 0.937647 2.391896 0
M  V30 41 H 1.109072 -3.252085 2.151126 0
M  V30 42 H 2.340187 -2.581819 0.958525 0
M  V30 END ATOM
M  V30 BEGIN BOND
M  V30 1 1 1 2
M  V30 2 1 2 3
M  V30 3 2 3 4
M  V30 4 1 4 5
M  V30 5 2 5 6
M  V30 6 1 6 7
M  V30 7 2 7 8
M  V30 8 1 7 9
M  V30 9 2 9 10
M  V30 10 1 9 11
M  V30 11 2 11 12
M  V30 12 1 12 13
M  V30 13 2 13 14
M  V30 14 1 14 15
M  V30 15 1 15 16
M  V30 16 2 16 17
M  V30 17 1 17 18
M  V30 18 2 18 19
M  V30 19 1 19 20
M  V30 20 1 19 21
M  V30 21 2 21 22
M  V30 22 1 22 23
M  V30 23 1 14 24
M  V30 24 2 24 25
M  V30 25 1 25 26
M  V30 26 1 26 27
M  V30 27 1 8 3
M  V30 28 1 25 11
M  V30 29 1 27 6
M  V30 30 1 22 16
M  V30 31 1 1 28
M  V30 32 1 1 29
M  V30 33 1 1 30
M  V30 34 1 4 31
M  V30 35 1 5 32
M  V30 36 1 8 33
M  V30 37 1 12 34
M  V30 38 1 13 35
M  V30 39 1 15 36
M  V30 40 1 17 37
M  V30 41 1 18 38
M  V30 42 1 21 39
M  V30 43 1 24 40
M  V30 44 1 27 41
M  V30 45 1 27 42
M  V30 END BOND
M  V30 END CTAB
M  END
>  <Dataset>  (263) 
ChEMBL_Kinases

>  <Ligand_Instance>  (263) 
nan

>  <PDB_ID>  (263) 
nan

>  <Standardized_SMILES>  (263) 
COc1ccc2c(c1)C(=O)c1ccc(Nc3ccc(F)cc3F)cc1OC2

>  <Name>  (263) 
nan

>  <Pocket>  (263) 
nan

>  <ATP_Site>  (263) 
nan

>  <Peripheral>  (263) 
nan

>  <Num_H_Atoms_ProtBoundConf>  (263) 
nan

>  <Num_Resolved_Atoms>  (263) 
nan

>  <Num_Not_Resolved_Atoms>  (263) 
nan

$$$$
CHEMBL3086693
     RDKit          3D

  0  0  0  0  0  0  0  0  0  0999 V3000
M  V30 BEGIN CTAB
M  V30 COUNTS 40 43 0 0 0
M  V30 BEGIN ATOM
M  V30 1 N 5.935119 -3.980762 -0.915472 0
M  V30 2 C 4.581371 -3.550119 -1.004019 0
M  V30 3 C 3.561933 -4.391102 -1.402287 0
M  V30 4 C 2.235899 -4.037640 -1.508485 0
M  V30 5 C 1.913439 -2.736116 -1.188421 0
M  V30 6 C 2.924699 -1.867800 -0.783624 0
M  V30 7 C 4.262145 -2.243993 -0.682127 0
M  V30 8 C 2.765975 -0.444520 -0.402982 0
M  V30 9 O 3.770931 0.278722 -0.539435 0
M  V30 10 C 1.519223 0.120633 0.107885 0
M  V30 11 C 1.753051 1.373844 0.624787 0
M  V30 12 C 0.687675 2.060571 1.154474 0
M  V30 13 C -0.626257 1.576723 1.207722 0
M  V30 14 N -1.680671 2.342395 1.750556 0
M  V30 15 C -2.834501 2.024205 2.499784 0
M  V30 16 C -3.218397 0.800369 2.953854 0
M  V30 17 C -4.361734 0.529258 3.669766 0
M  V30 18 F -4.666339 -0.723876 4.082656 0
M  V30 19 C -5.201132 1.583745 3.959530 0
M  V30 20 F -6.340565 1.333069 4.669307 0
M  V30 21 C -4.855390 2.844072 3.521380 0
M  V30 22 C -3.697374 3.052904 2.808384 0
M  V30 23 F -3.458163 4.349175 2.425487 0
M  V30 24 C -0.769703 0.318556 0.669157 0
M  V30 25 C 0.253045 -0.427382 0.121788 0
M  V30 26 O -0.104326 -1.675475 -0.367534 0
M  V30 27 C 0.456396 -2.515400 -1.353666 0
M  V30 28 H 6.589985 -3.670839 -1.668123 0
M  V30 29 H 6.024305 -4.571767 -0.046015 0
M  V30 30 H 3.832430 -5.417662 -1.652216 0
M  V30 31 H 1.501641 -4.737150 -1.822029 0
M  V30 32 H 4.985909 -1.506797 -0.359539 0
M  V30 33 H 2.744741 1.800572 0.612461 0
M  V30 34 H 0.908590 3.048905 1.554459 0
M  V30 35 H -1.515852 3.364974 1.507478 0
M  V30 36 H -2.594582 -0.043115 2.763841 0
M  V30 37 H -5.520888 3.663771 3.754419 0
M  V30 38 H -1.713942 -0.163623 0.630929 0
M  V30 39 H -0.071978 -3.486268 -1.269781 0
M  V30 40 H 0.226768 -2.123502 -2.378517 0
M  V30 END ATOM
M  V30 BEGIN BOND
M  V30 1 1 1 2
M  V30 2 2 2 3
M  V30 3 1 3 4
M  V30 4 2 4 5
M  V30 5 1 5 6
M  V30 6 2 6 7
M  V30 7 1 6 8
M  V30 8 2 8 9
M  V30 9 1 8 10
M  V30 10 2 10 11
M  V30 11 1 11 12
M  V30 12 2 12 13
M  V30 13 1 13 14
M  V30 14 1 14 15
M  V30 15 2 15 16
M  V30 16 1 16 17
M  V30 17 1 17 18
M  V30 18 2 17 19
M  V30 19 1 19 20
M  V30 20 1 19 21
M  V30 21 2 21 22
M  V30 22 1 22 23
M  V30 23 1 13 24
M  V30 24 2 24 25
M  V30 25 1 25 26
M  V30 26 1 26 27
M  V30 27 1 7 2
M  V30 28 1 25 10
M  V30 29 1 27 5
M  V30 30 1 22 15
M  V30 31 1 1 28
M  V30 32 1 1 29
M  V30 33 1 3 30
M  V30 34 1 4 31
M  V30 35 1 7 32
M  V30 36 1 11 33
M  V30 37 1 12 34
M  V30 38 1 14 35
M  V30 39 1 16 36
M  V30 40 1 21 37
M  V30 41 1 24 38
M  V30 42 1 27 39
M  V30 43 1 27 40
M  V30 END BOND
M  V30 END CTAB
M  END
>  <Dataset>  (264) 
ChEMBL_Kinases

>  <Ligand_Instance>  (264) 
nan

>  <PDB_ID>  (264) 
nan

>  <Standardized_SMILES>  (264) 
Nc1ccc2c(c1)C(=O)c1ccc(Nc3cc(F)c(F)cc3F)cc1OC2

>  <Name>  (264) 
nan

>  <Pocket>  (264) 
nan

>  <ATP_Site>  (264) 
nan

>  <Peripheral>  (264) 
nan

>  <Num_H_Atoms_ProtBoundConf>  (264) 
nan

>  <Num_Resolved_Atoms>  (264) 
nan

>  <Num_Not_Resolved_Atoms>  (264) 
nan

$$$$
CHEMBL3086692
     RDKit          3D

  0  0  0  0  0  0  0  0  0  0999 V3000
M  V30 BEGIN CTAB
M  V30 COUNTS 40 43 0 0 0
M  V30 BEGIN ATOM
M  V30 1 N 0.896047 -6.780473 -1.999840 0
M  V30 2 C 0.683048 -5.757428 -1.039755 0
M  V30 3 C 1.023503 -5.968996 0.297937 0
M  V30 4 C 0.832704 -4.996259 1.271891 0
M  V30 5 C 0.284928 -3.761114 0.925036 0
M  V30 6 C -0.041677 -3.584249 -0.411034 0
M  V30 7 C 0.140212 -4.542669 -1.402184 0
M  V30 8 C -0.629326 -2.377973 -1.023777 0
M  V30 9 O -1.248569 -2.493626 -2.103812 0
M  V30 10 C -0.539953 -1.035925 -0.452825 0
M  V30 11 C -0.968327 -0.057682 -1.324706 0
M  V30 12 C -0.958475 1.269879 -0.966583 0
M  V30 13 C -0.521478 1.703544 0.281243 0
M  V30 14 N -0.545593 3.082890 0.607189 0
M  V30 15 C 0.181498 3.824718 1.570097 0
M  V30 16 C 1.387385 3.461766 2.124629 0
M  V30 17 C 2.078691 4.180614 3.074691 0
M  V30 18 C 1.525975 5.363586 3.513159 0
M  V30 19 F 2.137798 6.133103 4.444893 0
M  V30 20 C 0.319351 5.772307 2.988637 0
M  V30 21 C -0.329482 5.014663 2.040682 0
M  V30 22 C -0.106189 0.680946 1.109288 0
M  V30 23 C -0.101428 -0.641206 0.790081 0
M  V30 24 O 0.355117 -1.484284 1.769580 0
M  V30 25 C 0.148075 -2.850621 2.055245 0
M  V30 26 H 0.230143 -7.576068 -2.215281 0
M  V30 27 H 1.825055 -6.586668 -2.437177 0
M  V30 28 H 1.456648 -6.935675 0.592323 0
M  V30 29 H 1.111921 -5.203995 2.299860 0
M  V30 30 H -0.140827 -4.327882 -2.425470 0
M  V30 31 H -1.321041 -0.345893 -2.316486 0
M  V30 32 H -1.310724 1.999941 -1.701995 0
M  V30 33 H -1.224179 3.648317 0.028856 0
M  V30 34 H 1.867931 2.558145 1.812598 0
M  V30 35 H 3.016751 3.853276 3.475913 0
M  V30 36 H -0.105061 6.705239 3.341811 0
M  V30 37 H -1.277126 5.416248 1.683603 0
M  V30 38 H 0.235175 0.916214 2.089850 0
M  V30 39 H -0.914824 -2.933165 2.415592 0
M  V30 40 H 0.749800 -3.191989 2.922067 0
M  V30 END ATOM
M  V30 BEGIN BOND
M  V30 1 1 1 2
M  V30 2 2 2 3
M  V30 3 1 3 4
M  V30 4 2 4 5
M  V30 5 1 5 6
M  V30 6 2 6 7
M  V30 7 1 6 8
M  V30 8 2 8 9
M  V30 9 1 8 10
M  V30 10 2 10 11
M  V30 11 1 11 12
M  V30 12 2 12 13
M  V30 13 1 13 14
M  V30 14 1 14 15
M  V30 15 2 15 16
M  V30 16 1 16 17
M  V30 17 2 17 18
M  V30 18 1 18 19
M  V30 19 1 18 20
M  V30 20 2 20 21
M  V30 21 1 13 22
M  V30 22 2 22 23
M  V30 23 1 23 24
M  V30 24 1 24 25
M  V30 25 1 7 2
M  V30 26 1 23 10
M  V30 27 1 25 5
M  V30 28 1 21 15
M  V30 29 1 1 26
M  V30 30 1 1 27
M  V30 31 1 3 28
M  V30 32 1 4 29
M  V30 33 1 7 30
M  V30 34 1 11 31
M  V30 35 1 12 32
M  V30 36 1 14 33
M  V30 37 1 16 34
M  V30 38 1 17 35
M  V30 39 1 20 36
M  V30 40 1 21 37
M  V30 41 1 22 38
M  V30 42 1 25 39
M  V30 43 1 25 40
M  V30 END BOND
M  V30 END CTAB
M  END
>  <Dataset>  (265) 
ChEMBL_Kinases

>  <Ligand_Instance>  (265) 
nan

>  <PDB_ID>  (265) 
nan

>  <Standardized_SMILES>  (265) 
Nc1ccc2c(c1)C(=O)c1ccc(Nc3ccc(F)cc3)cc1OC2

>  <Name>  (265) 
nan

>  <Pocket>  (265) 
nan

>  <ATP_Site>  (265) 
nan

>  <Peripheral>  (265) 
nan

>  <Num_H_Atoms_ProtBoundConf>  (265) 
nan

>  <Num_Resolved_Atoms>  (265) 
nan

>  <Num_Not_Resolved_Atoms>  (265) 
nan

$$$$
CHEMBL3086691
     RDKit          3D

  0  0  0  0  0  0  0  0  0  0999 V3000
M  V30 BEGIN CTAB
M  V30 COUNTS 40 43 0 0 0
M  V30 BEGIN ATOM
M  V30 1 N 0.633768 -7.206635 -0.609321 0
M  V30 2 C 0.052994 -6.039507 -0.049020 0
M  V30 3 C -1.173390 -6.228976 0.551877 0
M  V30 4 C -1.760563 -5.087872 1.109681 0
M  V30 5 C -1.134532 -3.859251 1.051155 0
M  V30 6 C 0.109035 -3.730215 0.428002 0
M  V30 7 C 0.728868 -4.841976 -0.140485 0
M  V30 8 C 0.934780 -2.551924 0.253667 0
M  V30 9 O 2.108347 -2.676762 -0.171715 0
M  V30 10 C 0.495570 -1.191232 0.542569 0
M  V30 11 C 1.489286 -0.235112 0.302460 0
M  V30 12 C 1.269579 1.128433 0.516964 0
M  V30 13 C 0.021293 1.488429 0.978611 0
M  V30 14 N -0.261876 2.861482 1.216974 0
M  V30 15 C 0.604402 3.978138 1.066009 0
M  V30 16 C 0.250785 4.978179 0.173658 0
M  V30 17 C 0.976145 6.133842 -0.095675 0
M  V30 18 C 2.161346 6.283453 0.602626 0
M  V30 19 C 2.549962 5.310073 1.501054 0
M  V30 20 C 1.801250 4.173598 1.742183 0
M  V30 21 F 2.170996 3.212852 2.621538 0
M  V30 22 C -1.001559 0.601228 1.235666 0
M  V30 23 C -0.716499 -0.727582 1.002483 0
M  V30 24 O -1.810112 -1.537266 1.291516 0
M  V30 25 C -1.963111 -2.856715 1.705218 0
M  V30 26 H 0.362984 -8.182891 -0.364126 0
M  V30 27 H 1.351363 -7.490807 -1.289318 0
M  V30 28 H -1.656806 -7.195182 0.593218 0
M  V30 29 H -2.733428 -5.220876 1.590128 0
M  V30 30 H 1.690584 -4.753939 -0.625007 0
M  V30 31 H 2.472613 -0.553801 -0.064743 0
M  V30 32 H 2.072330 1.823904 0.314256 0
M  V30 33 H -1.181585 3.221013 1.545233 0
M  V30 34 H -0.679058 4.859590 -0.373381 0
M  V30 35 H 0.596101 6.844541 -0.816326 0
M  V30 36 H 2.743634 7.174706 0.410250 0
M  V30 37 H 3.484604 5.430173 2.050328 0
M  V30 38 H -1.949243 0.935989 1.592441 0
M  V30 39 H -3.038422 -3.124140 1.501862 0
M  V30 40 H -1.868954 -2.995409 2.813318 0
M  V30 END ATOM
M  V30 BEGIN BOND
M  V30 1 1 1 2
M  V30 2 2 2 3
M  V30 3 1 3 4
M  V30 4 2 4 5
M  V30 5 1 5 6
M  V30 6 2 6 7
M  V30 7 1 6 8
M  V30 8 2 8 9
M  V30 9 1 8 10
M  V30 10 2 10 11
M  V30 11 1 11 12
M  V30 12 2 12 13
M  V30 13 1 13 14
M  V30 14 1 14 15
M  V30 15 2 15 16
M  V30 16 1 16 17
M  V30 17 2 17 18
M  V30 18 1 18 19
M  V30 19 2 19 20
M  V30 20 1 20 21
M  V30 21 1 13 22
M  V30 22 2 22 23
M  V30 23 1 23 24
M  V30 24 1 24 25
M  V30 25 1 7 2
M  V30 26 1 23 10
M  V30 27 1 25 5
M  V30 28 1 20 15
M  V30 29 1 1 26
M  V30 30 1 1 27
M  V30 31 1 3 28
M  V30 32 1 4 29
M  V30 33 1 7 30
M  V30 34 1 11 31
M  V30 35 1 12 32
M  V30 36 1 14 33
M  V30 37 1 16 34
M  V30 38 1 17 35
M  V30 39 1 18 36
M  V30 40 1 19 37
M  V30 41 1 22 38
M  V30 42 1 25 39
M  V30 43 1 25 40
M  V30 END BOND
M  V30 END CTAB
M  END
>  <Dataset>  (266) 
ChEMBL_Kinases

>  <Ligand_Instance>  (266) 
nan

>  <PDB_ID>  (266) 
nan

>  <Standardized_SMILES>  (266) 
Nc1ccc2c(c1)C(=O)c1ccc(Nc3ccccc3F)cc1OC2

>  <Name>  (266) 
nan

>  <Pocket>  (266) 
nan

>  <ATP_Site>  (266) 
nan

>  <Peripheral>  (266) 
nan

>  <Num_H_Atoms_ProtBoundConf>  (266) 
nan

>  <Num_Resolved_Atoms>  (266) 
nan

>  <Num_Not_Resolved_Atoms>  (266) 
nan

$$$$
CHEMBL3086690
     RDKit          3D

  0  0  0  0  0  0  0  0  0  0999 V3000
M  V30 BEGIN CTAB
M  V30 COUNTS 42 45 0 0 0
M  V30 BEGIN ATOM
M  V30 1 N -2.664835 -4.195967 -5.133993 0
M  V30 2 C -2.285021 -3.873757 -3.801413 0
M  V30 3 C -3.167732 -4.191449 -2.791901 0
M  V30 4 C -2.840413 -3.897586 -1.486733 0
M  V30 5 C -1.627524 -3.291797 -1.259420 0
M  V30 6 C -0.710881 -2.953225 -2.230321 0
M  V30 7 N 0.534217 -2.312307 -2.019376 0
M  V30 8 C 1.018389 -1.499466 -0.965080 0
M  V30 9 C 2.369101 -1.342544 -0.733721 0
M  V30 10 C 2.859525 -0.546003 0.274895 0
M  V30 11 C 2.020273 0.147415 1.119869 0
M  V30 12 C 0.661779 0.016492 0.920296 0
M  V30 13 C 0.210298 -0.791540 -0.101936 0
M  V30 14 O -0.320787 0.637984 1.671366 0
M  V30 15 C -0.357434 1.804680 2.465710 0
M  V30 16 C 0.767348 1.943832 3.401887 0
M  V30 17 C 0.366052 2.543783 4.578020 0
M  V30 18 C 1.311248 2.744499 5.558270 0
M  V30 19 C 2.640367 2.387695 5.451546 0
M  V30 20 N 3.586441 2.613505 6.490558 0
M  V30 21 C 3.060703 1.780589 4.269150 0
M  V30 22 C 2.093921 1.579662 3.276707 0
M  V30 23 C 2.728740 0.934966 2.124413 0
M  V30 24 O 3.954687 1.052252 1.969721 0
M  V30 25 C -1.096886 -3.273234 -3.513282 0
M  V30 26 H -3.611639 -3.796296 -5.376416 0
M  V30 27 H -2.081425 -4.751585 -5.776575 0
M  V30 28 H -4.110711 -4.667268 -3.015036 0
M  V30 29 H -3.517105 -4.138028 -0.683079 0
M  V30 30 H -1.404543 -3.089808 -0.232103 0
M  V30 31 H 1.255300 -2.459968 -2.791540 0
M  V30 32 H 3.091454 -1.846043 -1.344394 0
M  V30 33 H 3.923076 -0.449780 0.422956 0
M  V30 34 H -0.852839 -0.823789 -0.187553 0
M  V30 35 H -1.323017 1.793472 3.014391 0
M  V30 36 H -0.398697 2.690587 1.766597 0
M  V30 37 H -0.661297 2.855999 4.745149 0
M  V30 38 H 1.052292 3.216331 6.514037 0
M  V30 39 H 4.215042 3.451586 6.566331 0
M  V30 40 H 3.535641 1.793240 7.156626 0
M  V30 41 H 4.092402 1.464086 4.094104 0
M  V30 42 H -0.450618 -3.053762 -4.377018 0
M  V30 END ATOM
M  V30 BEGIN BOND
M  V30 1 1 1 2
M  V30 2 2 2 3
M  V30 3 1 3 4
M  V30 4 2 4 5
M  V30 5 1 5 6
M  V30 6 1 6 7
M  V30 7 1 7 8
M  V30 8 2 8 9
M  V30 9 1 9 10
M  V30 10 2 10 11
M  V30 11 1 11 12
M  V30 12 2 12 13
M  V30 13 1 12 14
M  V30 14 1 14 15
M  V30 15 1 15 16
M  V30 16 2 16 17
M  V30 17 1 17 18
M  V30 18 2 18 19
M  V30 19 1 19 20
M  V30 20 1 19 21
M  V30 21 2 21 22
M  V30 22 1 22 23
M  V30 23 2 23 24
M  V30 24 2 6 25
M  V30 25 1 25 2
M  V30 26 1 13 8
M  V30 27 1 22 16
M  V30 28 1 23 11
M  V30 29 1 1 26
M  V30 30 1 1 27
M  V30 31 1 3 28
M  V30 32 1 4 29
M  V30 33 1 5 30
M  V30 34 1 7 31
M  V30 35 1 9 32
M  V30 36 1 10 33
M  V30 37 1 13 34
M  V30 38 1 15 35
M  V30 39 1 15 36
M  V30 40 1 17 37
M  V30 41 1 18 38
M  V30 42 1 20 39
M  V30 43 1 20 40
M  V30 44 1 21 41
M  V30 45 1 25 42
M  V30 END BOND
M  V30 END CTAB
M  END
>  <Dataset>  (267) 
ChEMBL_Kinases

>  <Ligand_Instance>  (267) 
nan

>  <PDB_ID>  (267) 
nan

>  <Standardized_SMILES>  (267) 
Nc1cccc(Nc2ccc3c(c2)OCc2ccc(N)cc2C3=O)c1

>  <Name>  (267) 
nan

>  <Pocket>  (267) 
nan

>  <ATP_Site>  (267) 
nan

>  <Peripheral>  (267) 
nan

>  <Num_H_Atoms_ProtBoundConf>  (267) 
nan

>  <Num_Resolved_Atoms>  (267) 
nan

>  <Num_Not_Resolved_Atoms>  (267) 
nan

$$$$
CHEMBL3086689
     RDKit          3D

  0  0  0  0  0  0  0  0  0  0999 V3000
M  V30 BEGIN CTAB
M  V30 COUNTS 42 45 0 0 0
M  V30 BEGIN ATOM
M  V30 1 N -0.557630 -7.550730 0.199308 0
M  V30 2 C -0.468355 -6.239699 0.746222 0
M  V30 3 C -1.262643 -5.918438 1.852630 0
M  V30 4 C -1.189680 -4.652281 2.396406 0
M  V30 5 C -0.356514 -3.659446 1.898285 0
M  V30 6 C 0.421908 -3.990273 0.806026 0
M  V30 7 C 0.365901 -5.259193 0.240669 0
M  V30 8 C 1.380290 -3.152541 0.081376 0
M  V30 9 O 2.249312 -3.730749 -0.616072 0
M  V30 10 C 1.382285 -1.691509 0.123931 0
M  V30 11 C 2.315464 -1.163878 -0.773253 0
M  V30 12 C 2.502254 0.195969 -0.914753 0
M  V30 13 C 1.718806 1.009958 -0.123342 0
M  V30 14 N 1.896622 2.413542 -0.253828 0
M  V30 15 C 1.307093 3.536017 0.342358 0
M  V30 16 C 1.981282 4.498680 1.087354 0
M  V30 17 C 1.354986 5.592910 1.657301 0
M  V30 18 C -0.005083 5.742671 1.481940 0
M  V30 19 C -0.717047 4.809461 0.748110 0
M  V30 20 C -0.051623 3.730497 0.195633 0
M  V30 21 N -0.917208 2.858909 -0.530319 0
M  V30 22 C 0.776479 0.540943 0.784610 0
M  V30 23 C 0.625916 -0.826859 0.890384 0
M  V30 24 O -0.328770 -1.239215 1.812075 0
M  V30 25 C -0.441609 -2.369815 2.642255 0
M  V30 26 H -1.399898 -7.736246 -0.399450 0
M  V30 27 H 0.102662 -8.367248 0.308484 0
M  V30 28 H -1.925176 -6.667605 2.268873 0
M  V30 29 H -1.784289 -4.363579 3.248406 0
M  V30 30 H 0.988728 -5.493156 -0.618056 0
M  V30 31 H 2.916930 -1.818085 -1.381877 0
M  V30 32 H 3.225893 0.621016 -1.610024 0
M  V30 33 H 2.575123 2.842580 -0.891597 0
M  V30 34 H 3.062244 4.337491 1.200142 0
M  V30 35 H 1.915024 6.317108 2.228310 0
M  V30 36 H -0.513819 6.603506 1.927017 0
M  V30 37 H -1.777467 4.997059 0.656429 0
M  V30 38 H -1.870681 2.611203 -0.181344 0
M  V30 39 H -0.761208 2.380892 -1.423475 0
M  V30 40 H 0.165043 1.149523 1.401879 0
M  V30 41 H -1.423466 -2.309383 3.149814 0
M  V30 42 H 0.386813 -2.382553 3.372877 0
M  V30 END ATOM
M  V30 BEGIN BOND
M  V30 1 1 1 2
M  V30 2 2 2 3
M  V30 3 1 3 4
M  V30 4 2 4 5
M  V30 5 1 5 6
M  V30 6 2 6 7
M  V30 7 1 6 8
M  V30 8 2 8 9
M  V30 9 1 8 10
M  V30 10 2 10 11
M  V30 11 1 11 12
M  V30 12 2 12 13
M  V30 13 1 13 14
M  V30 14 1 14 15
M  V30 15 2 15 16
M  V30 16 1 16 17
M  V30 17 2 17 18
M  V30 18 1 18 19
M  V30 19 2 19 20
M  V30 20 1 20 21
M  V30 21 1 13 22
M  V30 22 2 22 23
M  V30 23 1 23 24
M  V30 24 1 24 25
M  V30 25 1 7 2
M  V30 26 1 23 10
M  V30 27 1 25 5
M  V30 28 1 20 15
M  V30 29 1 1 26
M  V30 30 1 1 27
M  V30 31 1 3 28
M  V30 32 1 4 29
M  V30 33 1 7 30
M  V30 34 1 11 31
M  V30 35 1 12 32
M  V30 36 1 14 33
M  V30 37 1 16 34
M  V30 38 1 17 35
M  V30 39 1 18 36
M  V30 40 1 19 37
M  V30 41 1 21 38
M  V30 42 1 21 39
M  V30 43 1 22 40
M  V30 44 1 25 41
M  V30 45 1 25 42
M  V30 END BOND
M  V30 END CTAB
M  END
>  <Dataset>  (268) 
ChEMBL_Kinases

>  <Ligand_Instance>  (268) 
nan

>  <PDB_ID>  (268) 
nan

>  <Standardized_SMILES>  (268) 
Nc1ccc2c(c1)C(=O)c1ccc(Nc3ccccc3N)cc1OC2

>  <Name>  (268) 
nan

>  <Pocket>  (268) 
nan

>  <ATP_Site>  (268) 
nan

>  <Peripheral>  (268) 
nan

>  <Num_H_Atoms_ProtBoundConf>  (268) 
nan

>  <Num_Resolved_Atoms>  (268) 
nan

>  <Num_Not_Resolved_Atoms>  (268) 
nan

$$$$
CHEMBL3086688
     RDKit          3D

  0  0  0  0  0  0  0  0  0  0999 V3000
M  V30 BEGIN CTAB
M  V30 COUNTS 42 45 0 0 0
M  V30 BEGIN ATOM
M  V30 1 N 5.408220 -0.783253 -4.423281 0
M  V30 2 C 4.466366 -1.287635 -3.495057 0
M  V30 3 C 4.680900 -2.520399 -2.921194 0
M  V30 4 C 3.767895 -3.042748 -2.001939 0
M  V30 5 C 2.631595 -2.331470 -1.651147 0
M  V30 6 C 2.447834 -1.080778 -2.256173 0
M  V30 7 C 3.343871 -0.531022 -3.179980 0
M  V30 8 C 1.323096 -0.140061 -2.046719 0
M  V30 9 O 1.078290 0.669474 -2.972994 0
M  V30 10 C 0.514587 -0.125638 -0.832633 0
M  V30 11 C -0.215532 1.040855 -0.780697 0
M  V30 12 C -1.048476 1.253725 0.292053 0
M  V30 13 C -1.207313 0.351793 1.351403 0
M  V30 14 N -2.084974 0.590148 2.431107 0
M  V30 15 C -2.034912 0.310503 3.814132 0
M  V30 16 C -1.009175 -0.275512 4.514911 0
M  V30 17 C -1.001561 -0.547701 5.864121 0
M  V30 18 C -2.127173 -0.199787 6.579297 0
M  V30 19 F -2.178854 -0.443341 7.914357 0
M  V30 20 C -3.183166 0.390631 5.925477 0
M  V30 21 C -3.134758 0.638731 4.573378 0
M  V30 22 N -4.292159 1.257306 4.000255 0
M  V30 23 C -0.441222 -0.784698 1.216219 0
M  V30 24 C 0.414220 -1.065209 0.171034 0
M  V30 25 O 1.086287 -2.252621 0.225936 0
M  V30 26 C 1.805184 -3.042033 -0.680707 0
M  V30 27 H 5.345928 -0.823716 -5.475975 0
M  V30 28 H 6.143684 -0.380805 -3.802673 0
M  V30 29 H 5.536399 -3.149279 -3.130899 0
M  V30 30 H 3.911358 -4.012620 -1.533405 0
M  V30 31 H 3.137703 0.437489 -3.605530 0
M  V30 32 H -0.132685 1.776367 -1.573394 0
M  V30 33 H -1.612744 2.176703 0.312490 0
M  V30 34 H -2.930619 1.075749 2.057606 0
M  V30 35 H -0.114194 -0.545851 3.983994 0
M  V30 36 H -0.150066 -1.012817 6.336405 0
M  V30 37 H -4.056700 0.655582 6.506962 0
M  V30 38 H -4.983036 0.716785 3.473676 0
M  V30 39 H -4.460439 2.281728 4.106396 0
M  V30 40 H -0.468473 -1.578370 1.946388 0
M  V30 41 H 2.516411 -3.641326 -0.038838 0
M  V30 42 H 1.173293 -3.817423 -1.162649 0
M  V30 END ATOM
M  V30 BEGIN BOND
M  V30 1 1 1 2
M  V30 2 2 2 3
M  V30 3 1 3 4
M  V30 4 2 4 5
M  V30 5 1 5 6
M  V30 6 2 6 7
M  V30 7 1 6 8
M  V30 8 2 8 9
M  V30 9 1 8 10
M  V30 10 2 10 11
M  V30 11 1 11 12
M  V30 12 2 12 13
M  V30 13 1 13 14
M  V30 14 1 14 15
M  V30 15 2 15 16
M  V30 16 1 16 17
M  V30 17 2 17 18
M  V30 18 1 18 19
M  V30 19 1 18 20
M  V30 20 2 20 21
M  V30 21 1 21 22
M  V30 22 1 13 23
M  V30 23 2 23 24
M  V30 24 1 24 25
M  V30 25 1 25 26
M  V30 26 1 7 2
M  V30 27 1 24 10
M  V30 28 1 26 5
M  V30 29 1 21 15
M  V30 30 1 1 27
M  V30 31 1 1 28
M  V30 32 1 3 29
M  V30 33 1 4 30
M  V30 34 1 7 31
M  V30 35 1 11 32
M  V30 36 1 12 33
M  V30 37 1 14 34
M  V30 38 1 16 35
M  V30 39 1 17 36
M  V30 40 1 20 37
M  V30 41 1 22 38
M  V30 42 1 22 39
M  V30 43 1 23 40
M  V30 44 1 26 41
M  V30 45 1 26 42
M  V30 END BOND
M  V30 END CTAB
M  END
>  <Dataset>  (269) 
ChEMBL_Kinases

>  <Ligand_Instance>  (269) 
nan

>  <PDB_ID>  (269) 
nan

>  <Standardized_SMILES>  (269) 
Nc1ccc2c(c1)C(=O)c1ccc(Nc3ccc(F)cc3N)cc1OC2

>  <Name>  (269) 
nan

>  <Pocket>  (269) 
nan

>  <ATP_Site>  (269) 
nan

>  <Peripheral>  (269) 
nan

>  <Num_H_Atoms_ProtBoundConf>  (269) 
nan

>  <Num_Resolved_Atoms>  (269) 
nan

>  <Num_Not_Resolved_Atoms>  (269) 
nan

$$$$
CHEMBL3086687
     RDKit          3D

  0  0  0  0  0  0  0  0  0  0999 V3000
M  V30 BEGIN CTAB
M  V30 COUNTS 40 43 0 0 0
M  V30 BEGIN ATOM
M  V30 1 N 3.079559 -5.908971 -2.446829 0
M  V30 2 C 1.971122 -5.057288 -2.144695 0
M  V30 3 C 0.731442 -5.290580 -2.711296 0
M  V30 4 C -0.322592 -4.458171 -2.406812 0
M  V30 5 C -0.179180 -3.384520 -1.542898 0
M  V30 6 C 1.076450 -3.187475 -0.998946 0
M  V30 7 C 2.177047 -3.999806 -1.273519 0
M  V30 8 C 1.512536 -2.129902 -0.055529 0
M  V30 9 O 2.670752 -2.186016 0.432076 0
M  V30 10 C 0.678996 -1.002280 0.359397 0
M  V30 11 C 1.299539 -0.201677 1.309873 0
M  V30 12 C 0.714725 0.934978 1.866297 0
M  V30 13 C -0.552251 1.226772 1.404967 0
M  V30 14 N -1.241994 2.365527 1.907839 0
M  V30 15 C -0.809510 3.296119 2.894724 0
M  V30 16 C -0.656512 4.646989 2.653777 0
M  V30 17 C -0.229536 5.522964 3.658442 0
M  V30 18 C 0.030826 4.967108 4.902750 0
M  V30 19 F 0.448653 5.817836 5.889518 0
M  V30 20 C -0.113233 3.618906 5.173891 0
M  V30 21 C -0.537472 2.771119 4.162671 0
M  V30 22 F -0.647125 1.477026 4.528965 0
M  V30 23 C -1.241503 0.488589 0.465228 0
M  V30 24 C -0.590544 -0.626207 -0.038649 0
M  V30 25 O -1.331088 -1.324416 -0.975433 0
M  V30 26 C -1.434302 -2.649181 -1.375459 0
M  V30 27 H 3.235817 -6.059851 -3.471572 0
M  V30 28 H 3.764457 -6.409524 -1.814570 0
M  V30 29 H 0.657586 -6.139346 -3.381854 0
M  V30 30 H -1.285778 -4.671578 -2.871563 0
M  V30 31 H 3.127195 -3.780341 -0.808232 0
M  V30 32 H 2.304374 -0.457919 1.656732 0
M  V30 33 H 1.237906 1.527408 2.603275 0
M  V30 34 H -2.172326 2.679011 1.618119 0
M  V30 35 H -0.880274 5.003657 1.654536 0
M  V30 36 H -0.111808 6.580766 3.462415 0
M  V30 37 H 0.121556 3.308225 6.185533 0
M  V30 38 H -2.234610 0.746184 0.125745 0
M  V30 39 H -2.022132 -3.193212 -0.594707 0
M  V30 40 H -2.043287 -2.709368 -2.298381 0
M  V30 END ATOM
M  V30 BEGIN BOND
M  V30 1 1 1 2
M  V30 2 2 2 3
M  V30 3 1 3 4
M  V30 4 2 4 5
M  V30 5 1 5 6
M  V30 6 2 6 7
M  V30 7 1 6 8
M  V30 8 2 8 9
M  V30 9 1 8 10
M  V30 10 2 10 11
M  V30 11 1 11 12
M  V30 12 2 12 13
M  V30 13 1 13 14
M  V30 14 1 14 15
M  V30 15 2 15 16
M  V30 16 1 16 17
M  V30 17 2 17 18
M  V30 18 1 18 19
M  V30 19 1 18 20
M  V30 20 2 20 21
M  V30 21 1 21 22
M  V30 22 1 13 23
M  V30 23 2 23 24
M  V30 24 1 24 25
M  V30 25 1 25 26
M  V30 26 1 7 2
M  V30 27 1 24 10
M  V30 28 1 26 5
M  V30 29 1 21 15
M  V30 30 1 1 27
M  V30 31 1 1 28
M  V30 32 1 3 29
M  V30 33 1 4 30
M  V30 34 1 7 31
M  V30 35 1 11 32
M  V30 36 1 12 33
M  V30 37 1 14 34
M  V30 38 1 16 35
M  V30 39 1 17 36
M  V30 40 1 20 37
M  V30 41 1 23 38
M  V30 42 1 26 39
M  V30 43 1 26 40
M  V30 END BOND
M  V30 END CTAB
M  END
>  <Dataset>  (270) 
ChEMBL_Kinases

>  <Ligand_Instance>  (270) 
nan

>  <PDB_ID>  (270) 
nan

>  <Standardized_SMILES>  (270) 
Nc1ccc2c(c1)C(=O)c1ccc(Nc3ccc(F)cc3F)cc1OC2

>  <Name>  (270) 
nan

>  <Pocket>  (270) 
nan

>  <ATP_Site>  (270) 
nan

>  <Peripheral>  (270) 
nan

>  <Num_H_Atoms_ProtBoundConf>  (270) 
nan

>  <Num_Resolved_Atoms>  (270) 
nan

>  <Num_Not_Resolved_Atoms>  (270) 
nan

$$$$
CHEMBL3086686
     RDKit          3D

  0  0  0  0  0  0  0  0  0  0999 V3000
M  V30 BEGIN CTAB
M  V30 COUNTS 72 77 0 0 0
M  V30 BEGIN ATOM
M  V30 1 O 3.044236 -2.079234 1.807237 0
M  V30 2 C 3.995858 -2.541815 2.480528 0
M  V30 3 N 4.826420 -1.635146 3.165350 0
M  V30 4 C 4.793542 -0.224269 3.245699 0
M  V30 5 C 5.744539 0.415184 4.005542 0
M  V30 6 C 5.769024 1.784332 4.127020 0
M  V30 7 C 4.838786 2.573151 3.490101 0
M  V30 8 F 4.901260 3.927606 3.638868 0
M  V30 9 C 3.866983 1.979062 2.717555 0
M  V30 10 N 2.930791 2.811380 2.058223 0
M  V30 11 C 1.871806 2.588164 1.165104 0
M  V30 12 C 1.941778 1.662909 0.124967 0
M  V30 13 C 0.918051 1.379092 -0.765460 0
M  V30 14 C -0.260819 2.076510 -0.597643 0
M  V30 15 C -0.389327 3.004275 0.412445 0
M  V30 16 C 0.666783 3.237831 1.261963 0
M  V30 17 O -1.549664 3.729019 0.622457 0
M  V30 18 C -2.626888 4.114929 -0.176260 0
M  V30 19 C -3.282422 3.058409 -0.945384 0
M  V30 20 C -4.668035 3.144791 -1.052842 0
M  V30 21 C -5.380849 2.175673 -1.774219 0
M  V30 22 C -4.736182 1.098955 -2.405659 0
M  V30 23 O -5.674191 0.349054 -3.013750 0
M  V30 24 C -5.664527 -0.784912 -3.737075 0
M  V30 25 C -5.308706 -2.122498 -3.195412 0
M  V30 26 N -4.018203 -2.292120 -2.579688 0
M  V30 27 C -3.788853 -3.751919 -2.591515 0
M  V30 28 C -2.771891 -4.183818 -1.605247 0
M  V30 29 O -3.002765 -3.716647 -0.315730 0
M  V30 30 C -4.285273 -3.173548 -0.280180 0
M  V30 31 C -4.236919 -1.921963 -1.162038 0
M  V30 32 C -3.375668 1.081479 -2.256528 0
M  V30 33 C -2.639660 2.008124 -1.559660 0
M  V30 34 C -1.232774 1.640032 -1.625921 0
M  V30 35 O -0.861780 0.930833 -2.593933 0
M  V30 36 C 3.888661 0.607329 2.631104 0
M  V30 37 C 4.141667 -3.991590 2.481605 0
M  V30 38 C 3.234313 -4.733558 1.750921 0
M  V30 39 C 3.292628 -6.129288 1.691285 0
M  V30 40 C 4.302142 -6.784123 2.394694 0
M  V30 41 C 5.224316 -6.074251 3.134156 0
M  V30 42 C 5.113313 -4.702647 3.152846 0
M  V30 43 H 5.578733 -2.149907 3.685711 0
M  V30 44 H 6.508715 -0.174817 4.533262 0
M  V30 45 H 6.548025 2.211245 4.742237 0
M  V30 46 H 2.994734 3.854313 2.237818 0
M  V30 47 H 2.837223 1.091332 -0.074426 0
M  V30 48 H 0.997300 0.667635 -1.550168 0
M  V30 49 H 0.511011 3.979233 2.039862 0
M  V30 50 H -2.321426 4.982938 -0.814613 0
M  V30 51 H -3.402819 4.550437 0.520911 0
M  V30 52 H -5.085503 3.994304 -0.543361 0
M  V30 53 H -6.452607 2.428461 -1.734902 0
M  V30 54 H -4.908313 -0.643925 -4.607454 0
M  V30 55 H -6.624046 -0.884424 -4.382409 0
M  V30 56 H -6.116275 -2.519647 -2.514751 0
M  V30 57 H -5.409583 -2.830761 -4.089938 0
M  V30 58 H -3.375538 -3.942430 -3.608437 0
M  V30 59 H -4.756697 -4.264352 -2.528391 0
M  V30 60 H -2.806035 -5.291176 -1.548133 0
M  V30 61 H -1.740420 -3.916068 -1.853756 0
M  V30 62 H -5.082858 -3.863953 -0.571073 0
M  V30 63 H -4.454018 -2.767210 0.754891 0
M  V30 64 H -3.340820 -1.379650 -0.838289 0
M  V30 65 H -5.127328 -1.305287 -1.015124 0
M  V30 66 H -2.932372 0.238716 -2.765904 0
M  V30 67 H 3.114105 0.165243 2.033333 0
M  V30 68 H 2.412947 -4.324946 1.169313 0
M  V30 69 H 2.586434 -6.716617 1.121559 0
M  V30 70 H 4.356452 -7.883236 2.353826 0
M  V30 71 H 5.995897 -6.596056 3.670448 0
M  V30 72 H 5.825853 -4.162303 3.723065 0
M  V30 END ATOM
M  V30 BEGIN BOND
M  V30 1 2 1 2
M  V30 2 1 2 3
M  V30 3 1 3 4
M  V30 4 2 4 5
M  V30 5 1 5 6
M  V30 6 2 6 7
M  V30 7 1 7 8
M  V30 8 1 7 9
M  V30 9 1 9 10
M  V30 10 1 10 11
M  V30 11 2 11 12
M  V30 12 1 12 13
M  V30 13 2 13 14
M  V30 14 1 14 15
M  V30 15 2 15 16
M  V30 16 1 15 17
M  V30 17 1 17 18
M  V30 18 1 18 19
M  V30 19 2 19 20
M  V30 20 1 20 21
M  V30 21 2 21 22
M  V30 22 1 22 23
M  V30 23 1 23 24
M  V30 24 1 24 25
M  V30 25 1 25 26
M  V30 26 1 26 27
M  V30 27 1 27 28
M  V30 28 1 28 29
M  V30 29 1 29 30
M  V30 30 1 30 31
M  V30 31 1 22 32
M  V30 32 2 32 33
M  V30 33 1 33 34
M  V30 34 2 34 35
M  V30 35 2 9 36
M  V30 36 1 2 37
M  V30 37 2 37 38
M  V30 38 1 38 39
M  V30 39 2 39 40
M  V30 40 1 40 41
M  V30 41 2 41 42
M  V30 42 1 36 4
M  V30 43 1 42 37
M  V30 44 1 16 11
M  V30 45 1 33 19
M  V30 46 1 34 14
M  V30 47 1 31 26
M  V30 48 1 3 43
M  V30 49 1 5 44
M  V30 50 1 6 45
M  V30 51 1 10 46
M  V30 52 1 12 47
M  V30 53 1 13 48
M  V30 54 1 16 49
M  V30 55 1 18 50
M  V30 56 1 18 51
M  V30 57 1 20 52
M  V30 58 1 21 53
M  V30 59 1 24 54
M  V30 60 1 24 55
M  V30 61 1 25 56
M  V30 62 1 25 57
M  V30 63 1 27 58
M  V30 64 1 27 59
M  V30 65 1 28 60
M  V30 66 1 28 61
M  V30 67 1 30 62
M  V30 68 1 30 63
M  V30 69 1 31 64
M  V30 70 1 31 65
M  V30 71 1 32 66
M  V30 72 1 36 67
M  V30 73 1 38 68
M  V30 74 1 39 69
M  V30 75 1 40 70
M  V30 76 1 41 71
M  V30 77 1 42 72
M  V30 END BOND
M  V30 END CTAB
M  END
>  <Dataset>  (271) 
ChEMBL_Kinases

>  <Ligand_Instance>  (271) 
nan

>  <PDB_ID>  (271) 
nan

>  <Standardized_SMILES>  (271) 
O=C(Nc1ccc(F)c(Nc2ccc3c(c2)OCc2ccc(OCCN4CCOCC4)cc2C3=O)c1)c1ccccc1

>  <Name>  (271) 
nan

>  <Pocket>  (271) 
nan

>  <ATP_Site>  (271) 
nan

>  <Peripheral>  (271) 
nan

>  <Num_H_Atoms_ProtBoundConf>  (271) 
nan

>  <Num_Resolved_Atoms>  (271) 
nan

>  <Num_Not_Resolved_Atoms>  (271) 
nan

$$$$
CHEMBL3086685
     RDKit          3D

  0  0  0  0  0  0  0  0  0  0999 V3000
M  V30 BEGIN CTAB
M  V30 COUNTS 72 77 0 0 0
M  V30 BEGIN ATOM
M  V30 1 O 5.059069 -0.057383 3.526529 0
M  V30 2 C 5.536935 -1.024564 2.880367 0
M  V30 3 N 6.095696 -0.813744 1.602908 0
M  V30 4 C 6.219414 0.398176 0.868957 0
M  V30 5 C 5.220560 0.822287 0.028802 0
M  V30 6 C 5.214054 1.958493 -0.733419 0
M  V30 7 N 4.168537 2.403141 -1.581049 0
M  V30 8 C 2.770303 2.162548 -1.550826 0
M  V30 9 C 1.961794 2.300137 -2.657838 0
M  V30 10 C 0.604780 2.082443 -2.609324 0
M  V30 11 C 0.004384 1.713064 -1.427219 0
M  V30 12 C 0.775683 1.562642 -0.289258 0
M  V30 13 C 2.129823 1.791673 -0.387783 0
M  V30 14 O 0.267576 1.195506 0.945160 0
M  V30 15 C -0.972630 1.494896 1.553613 0
M  V30 16 C -2.144122 1.024854 0.790896 0
M  V30 17 C -3.126967 0.514937 1.608833 0
M  V30 18 C -4.285706 0.036222 1.034627 0
M  V30 19 C -4.475687 0.060125 -0.348238 0
M  V30 20 O -5.679863 -0.454532 -0.735095 0
M  V30 21 C -6.093863 -0.534902 -2.071661 0
M  V30 22 C -7.470247 -1.153365 -2.170216 0
M  V30 23 N -7.545052 -2.490273 -1.640436 0
M  V30 24 C -6.818900 -3.450032 -2.421100 0
M  V30 25 C -6.582621 -4.711502 -1.604618 0
M  V30 26 O -7.656552 -4.901826 -0.761900 0
M  V30 27 C -7.808981 -3.942013 0.217733 0
M  V30 28 C -7.269128 -2.580129 -0.238550 0
M  V30 29 C -3.500064 0.566965 -1.169020 0
M  V30 30 C -2.339590 1.045240 -0.577977 0
M  V30 31 C -1.434923 1.536157 -1.619090 0
M  V30 32 O -1.961103 1.809537 -2.723068 0
M  V30 33 C 6.348385 2.737132 -0.621566 0
M  V30 34 C 7.394372 2.384262 0.197260 0
M  V30 35 C 7.333637 1.224206 0.938512 0
M  V30 36 F 8.344575 0.829651 1.766669 0
M  V30 37 C 5.489416 -2.345904 3.494449 0
M  V30 38 C 4.886633 -2.455795 4.727172 0
M  V30 39 C 4.808873 -3.686042 5.367991 0
M  V30 40 C 5.324605 -4.830071 4.803679 0
M  V30 41 C 5.932412 -4.715877 3.559526 0
M  V30 42 C 6.010753 -3.480902 2.915708 0
M  V30 43 H 6.497363 -1.581562 1.039462 0
M  V30 44 H 4.360507 0.166554 -0.027614 0
M  V30 45 H 4.454645 3.031019 -2.395067 0
M  V30 46 H 2.392734 2.591319 -3.613822 0
M  V30 47 H 0.017141 2.205610 -3.511067 0
M  V30 48 H 2.647438 1.659000 0.549669 0
M  V30 49 H -0.998696 1.010932 2.560391 0
M  V30 50 H -1.046962 2.602299 1.707659 0
M  V30 51 H -2.953130 0.507836 2.686213 0
M  V30 52 H -5.000360 -0.343949 1.753472 0
M  V30 53 H -6.218130 0.521884 -2.446836 0
M  V30 54 H -5.402902 -1.038809 -2.751521 0
M  V30 55 H -7.772560 -1.185291 -3.237695 0
M  V30 56 H -8.151578 -0.476562 -1.615090 0
M  V30 57 H -5.860129 -3.054496 -2.816361 0
M  V30 58 H -7.454174 -3.779357 -3.274456 0
M  V30 59 H -6.539148 -5.615753 -2.256983 0
M  V30 60 H -5.591628 -4.690237 -1.089759 0
M  V30 61 H -8.885912 -3.822762 0.461974 0
M  V30 62 H -7.315313 -4.213190 1.167552 0
M  V30 63 H -7.836409 -1.823334 0.310713 0
M  V30 64 H -6.182256 -2.613537 -0.012158 0
M  V30 65 H -3.677798 0.570835 -2.223106 0
M  V30 66 H 6.452095 3.672194 -1.187868 0
M  V30 67 H 8.302757 2.989727 0.298806 0
M  V30 68 H 4.454829 -1.616423 5.248341 0
M  V30 69 H 4.329721 -3.798007 6.354091 0
M  V30 70 H 5.283623 -5.820270 5.275915 0
M  V30 71 H 6.351117 -5.593196 3.081798 0
M  V30 72 H 6.489118 -3.406048 1.943840 0
M  V30 END ATOM
M  V30 BEGIN BOND
M  V30 1 2 1 2
M  V30 2 1 2 3
M  V30 3 1 3 4
M  V30 4 2 4 5
M  V30 5 1 5 6
M  V30 6 1 6 7
M  V30 7 1 7 8
M  V30 8 2 8 9
M  V30 9 1 9 10
M  V30 10 2 10 11
M  V30 11 1 11 12
M  V30 12 2 12 13
M  V30 13 1 12 14
M  V30 14 1 14 15
M  V30 15 1 15 16
M  V30 16 2 16 17
M  V30 17 1 17 18
M  V30 18 2 18 19
M  V30 19 1 19 20
M  V30 20 1 20 21
M  V30 21 1 21 22
M  V30 22 1 22 23
M  V30 23 1 23 24
M  V30 24 1 24 25
M  V30 25 1 25 26
M  V30 26 1 26 27
M  V30 27 1 27 28
M  V30 28 1 19 29
M  V30 29 2 29 30
M  V30 30 1 30 31
M  V30 31 2 31 32
M  V30 32 2 6 33
M  V30 33 1 33 34
M  V30 34 2 34 35
M  V30 35 1 35 36
M  V30 36 1 2 37
M  V30 37 2 37 38
M  V30 38 1 38 39
M  V30 39 2 39 40
M  V30 40 1 40 41
M  V30 41 2 41 42
M  V30 42 1 35 4
M  V30 43 1 42 37
M  V30 44 1 13 8
M  V30 45 1 30 16
M  V30 46 1 31 11
M  V30 47 1 28 23
M  V30 48 1 3 43
M  V30 49 1 5 44
M  V30 50 1 7 45
M  V30 51 1 9 46
M  V30 52 1 10 47
M  V30 53 1 13 48
M  V30 54 1 15 49
M  V30 55 1 15 50
M  V30 56 1 17 51
M  V30 57 1 18 52
M  V30 58 1 21 53
M  V30 59 1 21 54
M  V30 60 1 22 55
M  V30 61 1 22 56
M  V30 62 1 24 57
M  V30 63 1 24 58
M  V30 64 1 25 59
M  V30 65 1 25 60
M  V30 66 1 27 61
M  V30 67 1 27 62
M  V30 68 1 28 63
M  V30 69 1 28 64
M  V30 70 1 29 65
M  V30 71 1 33 66
M  V30 72 1 34 67
M  V30 73 1 38 68
M  V30 74 1 39 69
M  V30 75 1 40 70
M  V30 76 1 41 71
M  V30 77 1 42 72
M  V30 END BOND
M  V30 END CTAB
M  END
>  <Dataset>  (272) 
ChEMBL_Kinases

>  <Ligand_Instance>  (272) 
nan

>  <PDB_ID>  (272) 
nan

>  <Standardized_SMILES>  (272) 
O=C(Nc1cc(Nc2ccc3c(c2)OCc2ccc(OCCN4CCOCC4)cc2C3=O)ccc1F)c1ccccc1

>  <Name>  (272) 
nan

>  <Pocket>  (272) 
nan

>  <ATP_Site>  (272) 
nan

>  <Peripheral>  (272) 
nan

>  <Num_H_Atoms_ProtBoundConf>  (272) 
nan

>  <Num_Resolved_Atoms>  (272) 
nan

>  <Num_Not_Resolved_Atoms>  (272) 
nan

$$$$
CHEMBL277525
     RDKit          3D

  0  0  0  0  0  0  0  0  0  0999 V3000
M  V30 BEGIN CTAB
M  V30 COUNTS 22 23 0 0 0
M  V30 BEGIN ATOM
M  V30 1 F 0.939657 -1.680583 3.641219 0
M  V30 2 C 0.296035 -0.811043 2.787737 0
M  V30 3 F 0.044355 0.415418 3.369512 0
M  V30 4 F -0.899551 -1.414783 2.447358 0
M  V30 5 C 1.058932 -0.680552 1.501528 0
M  V30 6 C 2.226902 -1.401406 1.354237 0
M  V30 7 C 2.962644 -1.313600 0.189095 0
M  V30 8 C 2.525650 -0.492894 -0.846175 0
M  V30 9 C 1.363180 0.217083 -0.684776 0
M  V30 10 C 0.618074 0.132749 0.486113 0
M  V30 11 N -0.594730 0.845896 0.709045 0
M  V30 12 C -1.910530 0.645764 0.511366 0
M  V30 13 C -2.616740 1.748665 0.951532 0
M  V30 14 N -1.693922 2.609991 1.415570 0
M  V30 15 C -0.474181 2.062761 1.268098 0
M  V30 16 H 2.595846 -2.040613 2.122038 0
M  V30 17 H 3.888890 -1.860567 0.023415 0
M  V30 18 H 3.095196 -0.415919 -1.765940 0
M  V30 19 H 1.001489 0.862275 -1.474160 0
M  V30 20 H -2.198559 -0.309994 0.056500 0
M  V30 21 H -3.691168 1.704048 0.843741 0
M  V30 22 H 0.349056 2.669722 1.609202 0
M  V30 END ATOM
M  V30 BEGIN BOND
M  V30 1 1 1 2
M  V30 2 1 2 3
M  V30 3 1 2 4
M  V30 4 1 2 5
M  V30 5 2 5 6
M  V30 6 1 6 7
M  V30 7 2 7 8
M  V30 8 1 8 9
M  V30 9 2 9 10
M  V30 10 1 10 11
M  V30 11 1 11 12
M  V30 12 2 12 13
M  V30 13 1 13 14
M  V30 14 2 14 15
M  V30 15 1 10 5
M  V30 16 1 15 11
M  V30 17 1 6 16
M  V30 18 1 7 17
M  V30 19 1 8 18
M  V30 20 1 9 19
M  V30 21 1 12 20
M  V30 22 1 13 21
M  V30 23 1 15 22
M  V30 END BOND
M  V30 END CTAB
M  END
>  <Dataset>  (273) 
ChEMBL_Kinases

>  <Ligand_Instance>  (273) 
nan

>  <PDB_ID>  (273) 
nan

>  <Standardized_SMILES>  (273) 
FC(F)(F)c1ccccc1-n1ccnc1

>  <Name>  (273) 
nan

>  <Pocket>  (273) 
nan

>  <ATP_Site>  (273) 
nan

>  <Peripheral>  (273) 
nan

>  <Num_H_Atoms_ProtBoundConf>  (273) 
nan

>  <Num_Resolved_Atoms>  (273) 
nan

>  <Num_Not_Resolved_Atoms>  (273) 
nan

$$$$
CHEMBL3085304
     RDKit          3D

  0  0  0  0  0  0  0  0  0  0999 V3000
M  V30 BEGIN CTAB
M  V30 COUNTS 58 61 0 0 0
M  V30 BEGIN ATOM
M  V30 1 C 2.867546 -0.057122 5.307683 0
M  V30 2 O 4.037218 0.576647 5.077714 0
M  V30 3 C 4.254082 1.373056 4.015445 0
M  V30 4 C 4.093261 0.807571 2.635633 0 CFG=1
M  V30 5 O 4.881082 -0.330065 2.534016 0
M  V30 6 C 2.718052 0.556171 2.196975 0
M  V30 7 N 2.568233 0.125511 0.838777 0
M  V30 8 C 2.868517 1.055189 -0.181484 0
M  V30 9 C 1.958063 0.746777 -1.347680 0
M  V30 10 C 1.624155 -0.693958 -1.518121 0
M  V30 11 C 0.169253 -0.983354 -1.245599 0
M  V30 12 C -0.506836 -0.886297 -0.052101 0
M  V30 13 C -1.830246 -1.235706 -0.215316 0
M  V30 14 C -2.860823 -1.256785 0.808040 0
M  V30 15 C -3.078734 0.028008 1.317573 0
M  V30 16 C -4.017656 0.263782 2.310169 0
M  V30 17 N -4.727044 -0.772335 2.784509 0
M  V30 18 C -4.535690 -2.023337 2.309205 0
M  V30 19 C -3.610102 -2.292433 1.322558 0
M  V30 20 C -1.971229 -1.556968 -1.547280 0
M  V30 21 C -3.155352 -1.997848 -2.273360 0
M  V30 22 C -3.874708 -3.167341 -2.161555 0
M  V30 23 C -4.981698 -3.409435 -2.937618 0
M  V30 24 C -5.430755 -2.501569 -3.865010 0
M  V30 25 F -6.527692 -2.792954 -4.602225 0
M  V30 26 C -4.736271 -1.331788 -3.997932 0
M  V30 27 C -3.606930 -1.067646 -3.216557 0
M  V30 28 N -0.777552 -1.399399 -2.130081 0
M  V30 29 C 2.517289 -1.655262 -0.781995 0
M  V30 30 C 3.015213 -1.186363 0.540221 0
M  V30 31 H 1.967200 0.600239 5.350468 0
M  V30 32 H 2.696501 -0.993879 4.765421 0
M  V30 33 H 2.894917 -0.429911 6.406562 0
M  V30 34 H 3.577056 2.283123 4.136396 0
M  V30 35 H 5.305156 1.795028 4.144028 0
M  V30 36 H 4.625111 1.519867 1.894082 0
M  V30 37 H 4.488080 -1.054061 3.058857 0
M  V30 38 H 2.105484 -0.103191 2.815440 0
M  V30 39 H 2.173476 1.555620 2.241842 0
M  V30 40 H 2.685030 2.108997 0.106087 0
M  V30 41 H 3.914700 0.979191 -0.592253 0
M  V30 42 H 0.989144 1.290071 -1.145480 0
M  V30 43 H 2.339923 1.222595 -2.283919 0
M  V30 44 H 1.768794 -0.946092 -2.616284 0
M  V30 45 H -0.118852 -0.588185 0.900722 0
M  V30 46 H -2.571916 0.948704 1.020264 0
M  V30 47 H -4.228277 1.231649 2.739691 0
M  V30 48 H -5.100414 -2.883441 2.678987 0
M  V30 49 H -3.370550 -3.229766 0.874038 0
M  V30 50 H -3.476265 -3.845685 -1.421187 0
M  V30 51 H -5.486989 -4.362837 -2.778746 0
M  V30 52 H -5.119244 -0.641533 -4.737658 0
M  V30 53 H -3.130915 -0.116808 -3.398125 0
M  V30 54 H -0.556019 -1.565852 -3.142535 0
M  V30 55 H 3.322519 -2.068603 -1.423470 0
M  V30 56 H 1.867353 -2.554449 -0.563043 0
M  V30 57 H 4.133482 -1.283900 0.527689 0
M  V30 58 H 2.707476 -1.839492 1.404787 0
M  V30 END ATOM
M  V30 BEGIN BOND
M  V30 1 1 1 2
M  V30 2 1 2 3
M  V30 3 1 3 4
M  V30 4 1 4 5
M  V30 5 1 4 6
M  V30 6 1 6 7
M  V30 7 1 7 8
M  V30 8 1 8 9
M  V30 9 1 9 10
M  V30 10 1 10 11
M  V30 11 2 11 12
M  V30 12 1 12 13
M  V30 13 1 13 14
M  V30 14 2 14 15
M  V30 15 1 15 16
M  V30 16 2 16 17
M  V30 17 1 17 18
M  V30 18 2 18 19
M  V30 19 2 13 20
M  V30 20 1 20 21
M  V30 21 2 21 22
M  V30 22 1 22 23
M  V30 23 2 23 24
M  V30 24 1 24 25
M  V30 25 1 24 26
M  V30 26 2 26 27
M  V30 27 1 20 28
M  V30 28 1 10 29
M  V30 29 1 29 30
M  V30 30 1 30 7
M  V30 31 1 28 11
M  V30 32 1 19 14
M  V30 33 1 27 21
M  V30 34 1 1 31
M  V30 35 1 1 32
M  V30 36 1 1 33
M  V30 37 1 3 34
M  V30 38 1 3 35
M  V30 39 1 4 36 CFG=3
M  V30 40 1 5 37
M  V30 41 1 6 38
M  V30 42 1 6 39
M  V30 43 1 8 40
M  V30 44 1 8 41
M  V30 45 1 9 42
M  V30 46 1 9 43
M  V30 47 1 10 44
M  V30 48 1 12 45
M  V30 49 1 15 46
M  V30 50 1 16 47
M  V30 51 1 18 48
M  V30 52 1 19 49
M  V30 53 1 22 50
M  V30 54 1 23 51
M  V30 55 1 26 52
M  V30 56 1 27 53
M  V30 57 1 28 54
M  V30 58 1 29 55
M  V30 59 1 29 56
M  V30 60 1 30 57
M  V30 61 1 30 58
M  V30 END BOND
M  V30 END CTAB
M  END
>  <Dataset>  (274) 
ChEMBL_Kinases

>  <Ligand_Instance>  (274) 
nan

>  <PDB_ID>  (274) 
nan

>  <Standardized_SMILES>  (274) 
COC[C@@H](O)CN1CCC(c2cc(-c3ccncc3)c(-c3ccc(F)cc3)[nH]2)CC1

>  <Name>  (274) 
nan

>  <Pocket>  (274) 
nan

>  <ATP_Site>  (274) 
nan

>  <Peripheral>  (274) 
nan

>  <Num_H_Atoms_ProtBoundConf>  (274) 
nan

>  <Num_Resolved_Atoms>  (274) 
nan

>  <Num_Not_Resolved_Atoms>  (274) 
nan

$$$$
CHEMBL3085387
     RDKit          3D

  0  0  0  0  0  0  0  0  0  0999 V3000
M  V30 BEGIN CTAB
M  V30 COUNTS 46 50 0 0 0
M  V30 BEGIN ATOM
M  V30 1 C -4.252889 -1.886447 -0.172505 0
M  V30 2 N -3.224903 -2.729574 -0.676875 0
M  V30 3 C -2.297643 -2.108934 -1.556863 0
M  V30 4 C -0.905331 -2.206914 -0.977056 0
M  V30 5 C -1.042299 -1.891567 0.513388 0
M  V30 6 C 0.217960 -1.411465 1.089764 0
M  V30 7 C 0.325774 -0.214234 1.644492 0
M  V30 8 C -0.880908 0.593490 1.646638 0
M  V30 9 N -1.863371 1.240155 1.637259 0
M  V30 10 C 1.511834 0.426847 2.270199 0 CFG=2
M  V30 11 C 1.727202 1.751034 1.652274 0
M  V30 12 C 1.786001 2.918509 2.382403 0
M  V30 13 C 1.986064 4.165741 1.837786 0
M  V30 14 C 2.132782 4.202843 0.463775 0
M  V30 15 C 2.080242 3.048731 -0.311839 0
M  V30 16 N 2.187089 2.795355 -1.627788 0
M  V30 17 O 2.057376 1.531556 -1.783123 0
M  V30 18 N 1.870624 0.900680 -0.681856 0
M  V30 19 C 1.875636 1.821370 0.296877 0
M  V30 20 C 2.678787 -0.455266 2.224368 0
M  V30 21 C 3.974623 -0.333373 2.654577 0
M  V30 22 N 4.639919 -1.461044 2.355142 0
M  V30 23 N 3.791244 -2.286691 1.747338 0
M  V30 24 C 2.581802 -1.697210 1.653189 0
M  V30 25 N 1.391163 -2.215145 1.079956 0
M  V30 26 C -1.591485 -3.139912 1.134947 0
M  V30 27 C -2.682506 -3.670427 0.240478 0
M  V30 28 H -5.247134 -2.323042 -0.424875 0
M  V30 29 H -4.229434 -1.821797 0.931817 0
M  V30 30 H -4.263665 -0.864999 -0.641203 0
M  V30 31 H -2.351489 -2.552541 -2.576903 0
M  V30 32 H -2.519855 -1.012857 -1.619389 0
M  V30 33 H -0.602766 -3.287538 -1.068143 0
M  V30 34 H -0.171988 -1.557127 -1.468002 0
M  V30 35 H -1.837288 -1.123145 0.611117 0
M  V30 36 H 1.193865 0.628001 3.335090 0
M  V30 37 H 1.666956 2.846861 3.450620 0
M  V30 38 H 2.027558 5.058722 2.433658 0
M  V30 39 H 2.291169 5.158692 -0.000199 0
M  V30 40 H 4.459284 0.483525 3.152639 0
M  V30 41 H 5.644923 -1.760235 2.516819 0
M  V30 42 H 1.368569 -3.166888 0.657857 0
M  V30 43 H -0.803126 -3.913471 1.258565 0
M  V30 44 H -2.059071 -2.937600 2.137940 0
M  V30 45 H -2.248168 -4.502108 -0.381576 0
M  V30 46 H -3.504832 -4.087030 0.845126 0
M  V30 END ATOM
M  V30 BEGIN BOND
M  V30 1 1 1 2
M  V30 2 1 2 3
M  V30 3 1 3 4
M  V30 4 1 4 5
M  V30 5 1 5 6
M  V30 6 2 6 7
M  V30 7 1 7 8
M  V30 8 3 8 9
M  V30 9 1 7 10
M  V30 10 1 10 11
M  V30 11 2 11 12
M  V30 12 1 12 13
M  V30 13 2 13 14
M  V30 14 1 14 15
M  V30 15 2 15 16
M  V30 16 1 16 17
M  V30 17 1 17 18
M  V30 18 2 18 19
M  V30 19 1 10 20
M  V30 20 2 20 21
M  V30 21 1 21 22
M  V30 22 1 22 23
M  V30 23 2 23 24
M  V30 24 1 24 25
M  V30 25 1 5 26
M  V30 26 1 26 27
M  V30 27 1 27 2
M  V30 28 1 25 6
M  V30 29 1 19 11
M  V30 30 1 24 20
M  V30 31 1 19 15
M  V30 32 1 1 28
M  V30 33 1 1 29
M  V30 34 1 1 30
M  V30 35 1 3 31
M  V30 36 1 3 32
M  V30 37 1 4 33
M  V30 38 1 4 34
M  V30 39 1 5 35
M  V30 40 1 10 36 CFG=1
M  V30 41 1 12 37
M  V30 42 1 13 38
M  V30 43 1 14 39
M  V30 44 1 21 40
M  V30 45 1 22 41
M  V30 46 1 25 42
M  V30 47 1 26 43
M  V30 48 1 26 44
M  V30 49 1 27 45
M  V30 50 1 27 46
M  V30 END BOND
M  V30 END CTAB
M  END
>  <Dataset>  (275) 
ChEMBL_Kinases

>  <Ligand_Instance>  (275) 
nan

>  <PDB_ID>  (275) 
nan

>  <Standardized_SMILES>  (275) 
CN1CCC(C2=C(C#N)[C@H](c3cccc4nonc34)c3c[nH]nc3N2)CC1

>  <Name>  (275) 
nan

>  <Pocket>  (275) 
nan

>  <ATP_Site>  (275) 
nan

>  <Peripheral>  (275) 
nan

>  <Num_H_Atoms_ProtBoundConf>  (275) 
nan

>  <Num_Resolved_Atoms>  (275) 
nan

>  <Num_Not_Resolved_Atoms>  (275) 
nan

$$$$
CHEMBL3086107
     RDKit          3D

  0  0  0  0  0  0  0  0  0  0999 V3000
M  V30 BEGIN CTAB
M  V30 COUNTS 57 61 0 0 0
M  V30 BEGIN ATOM
M  V30 1 C 2.530262 -1.236083 4.323000 0
M  V30 2 C 2.913547 0.200397 4.555210 0
M  V30 3 C 3.395725 0.325846 5.975727 0
M  V30 4 O 3.985253 0.494856 3.716627 0
M  V30 5 C 3.499426 1.379010 2.754867 0
M  V30 6 C 2.509993 2.165495 3.625510 0 CFG=1
M  V30 7 C 1.628216 2.974046 2.725435 0
M  V30 8 O 1.105253 2.145370 1.700139 0
M  V30 9 C 0.261832 2.717534 0.760701 0
M  V30 10 C -0.185814 4.009723 0.642324 0
M  V30 11 C -1.031267 4.420236 -0.362877 0
M  V30 12 C -1.433239 3.476483 -1.280379 0
M  V30 13 C -1.007915 2.158869 -1.201546 0
M  V30 14 C -0.145763 1.748844 -0.171569 0
M  V30 15 C 0.377909 0.379017 0.032180 0
M  V30 16 O -0.550989 -0.646316 -0.246163 0
M  V30 17 C -1.247409 -0.991365 -1.391366 0
M  V30 18 C -1.526401 -2.338190 -1.676451 0
M  V30 19 C -2.233156 -2.688597 -2.840452 0
M  V30 20 N -2.326968 -4.063381 -2.792176 0
M  V30 21 C -2.333772 -5.423382 -2.604871 0
M  V30 22 C -1.874695 -6.528397 -3.292916 0
M  V30 23 C -2.055046 -7.772856 -2.742471 0
M  V30 24 C -2.675664 -7.918586 -1.538244 0
M  V30 25 F -2.770716 -9.193989 -1.141090 0
M  V30 26 C -3.162425 -6.868229 -0.790168 0
M  V30 27 C -2.975136 -5.597121 -1.359241 0
M  V30 28 F -3.509981 -4.665107 -0.495889 0
M  V30 29 C -2.670328 -1.744004 -3.728730 0
M  V30 30 C -2.393936 -0.427181 -3.444771 0
M  V30 31 C -1.705166 -0.074257 -2.310978 0
M  V30 32 C -1.596626 1.382258 -2.324262 0
M  V30 33 O -2.011445 2.035348 -3.314478 0
M  V30 34 O 1.880332 1.101783 4.256386 0
M  V30 35 H 3.473885 -1.800165 4.066192 0
M  V30 36 H 1.832115 -1.388830 3.498301 0
M  V30 37 H 2.189752 -1.708405 5.277520 0
M  V30 38 H 3.293688 -0.656724 6.527227 0
M  V30 39 H 4.463438 0.615063 6.053821 0
M  V30 40 H 2.736801 1.025368 6.553991 0
M  V30 41 H 4.225615 2.076945 2.355658 0
M  V30 42 H 2.932922 0.794511 2.027776 0
M  V30 43 H 3.007456 2.852227 4.309372 0
M  V30 44 H 0.874612 3.567428 3.257457 0
M  V30 45 H 2.284024 3.735393 2.212456 0
M  V30 46 H 0.206851 4.659994 1.436422 0
M  V30 47 H -1.335831 5.464992 -0.378925 0
M  V30 48 H -2.091709 3.749073 -2.086064 0
M  V30 49 H 0.785680 0.278890 1.033915 0
M  V30 50 H 1.216353 0.249212 -0.687499 0
M  V30 51 H -1.108225 -2.959952 -0.867975 0
M  V30 52 H -2.922038 -4.231794 -3.671297 0
M  V30 53 H -1.418733 -6.188162 -4.213363 0
M  V30 54 H -1.654203 -8.549508 -3.376843 0
M  V30 55 H -3.621782 -7.156513 0.129061 0
M  V30 56 H -3.193909 -2.133152 -4.574011 0
M  V30 57 H -2.778639 0.252280 -4.209122 0
M  V30 END ATOM
M  V30 BEGIN BOND
M  V30 1 1 1 2
M  V30 2 1 2 3
M  V30 3 1 2 4
M  V30 4 1 4 5
M  V30 5 1 5 6
M  V30 6 1 6 7
M  V30 7 1 7 8
M  V30 8 1 8 9
M  V30 9 2 9 10
M  V30 10 1 10 11
M  V30 11 2 11 12
M  V30 12 1 12 13
M  V30 13 2 13 14
M  V30 14 1 14 15
M  V30 15 1 15 16
M  V30 16 1 16 17
M  V30 17 2 17 18
M  V30 18 1 18 19
M  V30 19 1 19 20
M  V30 20 1 20 21
M  V30 21 2 21 22
M  V30 22 1 22 23
M  V30 23 2 23 24
M  V30 24 1 24 25
M  V30 25 1 24 26
M  V30 26 2 26 27
M  V30 27 1 27 28
M  V30 28 2 19 29
M  V30 29 1 29 30
M  V30 30 2 30 31
M  V30 31 1 31 32
M  V30 32 2 32 33
M  V30 33 1 6 34
M  V30 34 1 34 2
M  V30 35 1 14 9
M  V30 36 1 31 17
M  V30 37 1 32 13
M  V30 38 1 27 21
M  V30 39 1 1 35
M  V30 40 1 1 36
M  V30 41 1 1 37
M  V30 42 1 3 38
M  V30 43 1 3 39
M  V30 44 1 3 40
M  V30 45 1 5 41
M  V30 46 1 5 42
M  V30 47 1 6 43 CFG=1
M  V30 48 1 7 44
M  V30 49 1 7 45
M  V30 50 1 10 46
M  V30 51 1 11 47
M  V30 52 1 12 48
M  V30 53 1 15 49
M  V30 54 1 15 50
M  V30 55 1 18 51
M  V30 56 1 20 52
M  V30 57 1 22 53
M  V30 58 1 23 54
M  V30 59 1 26 55
M  V30 60 1 29 56
M  V30 61 1 30 57
M  V30 END BOND
M  V30 END CTAB
M  END
>  <Dataset>  (276) 
ChEMBL_Kinases

>  <Ligand_Instance>  (276) 
nan

>  <PDB_ID>  (276) 
nan

>  <Standardized_SMILES>  (276) 
CC1(C)OC[C@@H](COc2cccc3c2COc2cc(Nc4ccc(F)cc4F)ccc2C3=O)O1

>  <Name>  (276) 
nan

>  <Pocket>  (276) 
nan

>  <ATP_Site>  (276) 
nan

>  <Peripheral>  (276) 
nan

>  <Num_H_Atoms_ProtBoundConf>  (276) 
nan

>  <Num_Resolved_Atoms>  (276) 
nan

>  <Num_Not_Resolved_Atoms>  (276) 
nan

$$$$
CHEMBL3086108
     RDKit          3D

  0  0  0  0  0  0  0  0  0  0999 V3000
M  V30 BEGIN CTAB
M  V30 COUNTS 57 61 0 0 0
M  V30 BEGIN ATOM
M  V30 1 C 7.457671 0.942662 3.341352 0
M  V30 2 C 6.000243 0.564856 3.399001 0
M  V30 3 C 5.546883 0.685269 4.826563 0
M  V30 4 O 5.827248 -0.684170 2.841563 0
M  V30 5 C 4.845139 -0.562276 1.833161 0
M  V30 6 C 4.159110 0.684975 2.264887 0 CFG=2
M  V30 7 C 3.353611 1.390721 1.240834 0
M  V30 8 O 2.224819 0.651640 0.760319 0
M  V30 9 C 1.451978 1.317604 -0.198846 0
M  V30 10 C 1.755324 2.596417 -0.661129 0
M  V30 11 C 1.012107 3.272718 -1.600550 0
M  V30 12 C -0.103312 2.666562 -2.130241 0
M  V30 13 C -0.409965 1.391545 -1.673653 0
M  V30 14 C 0.330739 0.691326 -0.723228 0
M  V30 15 C 0.194544 -0.628270 -0.118998 0
M  V30 16 O -0.792461 -1.465896 -0.635459 0
M  V30 17 C -2.118384 -1.217725 -1.041682 0
M  V30 18 C -3.081520 -2.116867 -0.636948 0
M  V30 19 C -4.391557 -1.921412 -1.001140 0
M  V30 20 N -5.466009 -2.769319 -0.673741 0
M  V30 21 C -5.808906 -4.145053 -0.543967 0
M  V30 22 C -6.808247 -4.610013 -1.417398 0
M  V30 23 C -7.285468 -5.914792 -1.447124 0
M  V30 24 C -6.686997 -6.730785 -0.532743 0
M  V30 25 F -7.103519 -8.025410 -0.497565 0
M  V30 26 C -5.704693 -6.399569 0.369945 0
M  V30 27 C -5.299021 -5.082655 0.321841 0
M  V30 28 F -4.348676 -4.664444 1.183771 0
M  V30 29 C -4.766788 -0.819707 -1.782912 0
M  V30 30 C -3.831841 0.099318 -2.206227 0
M  V30 31 C -2.509914 -0.142445 -1.808739 0
M  V30 32 C -1.657489 0.944104 -2.349662 0
M  V30 33 O -2.032367 1.501903 -3.439885 0
M  V30 34 O 5.257983 1.486068 2.660002 0
M  V30 35 H 7.662168 1.641489 2.485681 0
M  V30 36 H 8.038922 0.003340 3.187411 0
M  V30 37 H 7.787071 1.429548 4.300177 0
M  V30 38 H 5.323222 -0.339502 5.191299 0
M  V30 39 H 4.629282 1.327752 4.914149 0
M  V30 40 H 6.343895 1.087053 5.507087 0
M  V30 41 H 5.413947 -0.485506 0.895017 0
M  V30 42 H 4.232416 -1.483503 1.879777 0
M  V30 43 H 3.592292 0.471941 3.205634 0
M  V30 44 H 2.992397 2.350545 1.721932 0
M  V30 45 H 3.985072 1.699355 0.386021 0
M  V30 46 H 2.640707 3.106094 -0.249427 0
M  V30 47 H 1.242259 4.268211 -1.957464 0
M  V30 48 H -0.751822 3.120574 -2.881219 0
M  V30 49 H 0.061821 -0.527552 0.981839 0
M  V30 50 H 1.198143 -1.143872 -0.225218 0
M  V30 51 H -2.772959 -2.942245 -0.049601 0
M  V30 52 H -6.374569 -2.272495 -0.399769 0
M  V30 53 H -7.261595 -3.910035 -2.140575 0
M  V30 54 H -8.048100 -6.213677 -2.136543 0
M  V30 55 H -5.252043 -7.063390 1.076417 0
M  V30 56 H -5.777253 -0.600029 -2.108452 0
M  V30 57 H -4.053522 0.975271 -2.814481 0
M  V30 END ATOM
M  V30 BEGIN BOND
M  V30 1 1 1 2
M  V30 2 1 2 3
M  V30 3 1 2 4
M  V30 4 1 4 5
M  V30 5 1 5 6
M  V30 6 1 6 7
M  V30 7 1 7 8
M  V30 8 1 8 9
M  V30 9 2 9 10
M  V30 10 1 10 11
M  V30 11 2 11 12
M  V30 12 1 12 13
M  V30 13 2 13 14
M  V30 14 1 14 15
M  V30 15 1 15 16
M  V30 16 1 16 17
M  V30 17 2 17 18
M  V30 18 1 18 19
M  V30 19 1 19 20
M  V30 20 1 20 21
M  V30 21 2 21 22
M  V30 22 1 22 23
M  V30 23 2 23 24
M  V30 24 1 24 25
M  V30 25 1 24 26
M  V30 26 2 26 27
M  V30 27 1 27 28
M  V30 28 2 19 29
M  V30 29 1 29 30
M  V30 30 2 30 31
M  V30 31 1 31 32
M  V30 32 2 32 33
M  V30 33 1 6 34
M  V30 34 1 34 2
M  V30 35 1 14 9
M  V30 36 1 31 17
M  V30 37 1 32 13
M  V30 38 1 27 21
M  V30 39 1 1 35
M  V30 40 1 1 36
M  V30 41 1 1 37
M  V30 42 1 3 38
M  V30 43 1 3 39
M  V30 44 1 3 40
M  V30 45 1 5 41
M  V30 46 1 5 42
M  V30 47 1 6 43 CFG=1
M  V30 48 1 7 44
M  V30 49 1 7 45
M  V30 50 1 10 46
M  V30 51 1 11 47
M  V30 52 1 12 48
M  V30 53 1 15 49
M  V30 54 1 15 50
M  V30 55 1 18 51
M  V30 56 1 20 52
M  V30 57 1 22 53
M  V30 58 1 23 54
M  V30 59 1 26 55
M  V30 60 1 29 56
M  V30 61 1 30 57
M  V30 END BOND
M  V30 END CTAB
M  END
>  <Dataset>  (277) 
ChEMBL_Kinases

>  <Ligand_Instance>  (277) 
nan

>  <PDB_ID>  (277) 
nan

>  <Standardized_SMILES>  (277) 
CC1(C)OC[C@H](COc2cccc3c2COc2cc(Nc4ccc(F)cc4F)ccc2C3=O)O1

>  <Name>  (277) 
nan

>  <Pocket>  (277) 
nan

>  <ATP_Site>  (277) 
nan

>  <Peripheral>  (277) 
nan

>  <Num_H_Atoms_ProtBoundConf>  (277) 
nan

>  <Num_Resolved_Atoms>  (277) 
nan

>  <Num_Not_Resolved_Atoms>  (277) 
nan

$$$$
CHEMBL3086109
     RDKit          3D

  0  0  0  0  0  0  0  0  0  0999 V3000
M  V30 BEGIN CTAB
M  V30 COUNTS 50 53 0 0 0
M  V30 BEGIN ATOM
M  V30 1 O 2.561014 -2.399115 -0.917952 0
M  V30 2 C 1.612105 -1.859590 -0.314997 0
M  V30 3 C 1.689537 -0.448553 0.053323 0
M  V30 4 C 2.843541 0.074370 -0.542099 0
M  V30 5 C 3.133571 1.411034 -0.334053 0
M  V30 6 C 2.272998 2.151901 0.445535 0
M  V30 7 N 2.550053 3.527353 0.672168 0
M  V30 8 C 3.626093 4.306675 0.167693 0
M  V30 9 C 4.587855 4.967772 0.902333 0
M  V30 10 C 5.584440 5.695973 0.292621 0
M  V30 11 C 5.654682 5.789666 -1.096010 0
M  V30 12 F 6.664363 6.525350 -1.649241 0
M  V30 13 C 4.684858 5.123340 -1.845995 0
M  V30 14 C 3.701311 4.403740 -1.213936 0
M  V30 15 F 2.854237 3.831514 -2.125722 0
M  V30 16 C 1.131380 1.664845 1.043561 0
M  V30 17 C 0.862459 0.317976 0.818772 0
M  V30 18 O -0.279239 -0.138862 1.425769 0
M  V30 19 C -1.178258 -1.167076 1.254601 0
M  V30 20 C -0.724932 -2.407731 0.654313 0
M  V30 21 C -1.680300 -3.392988 0.817545 0
M  V30 22 O -2.882765 -3.159697 1.473928 0
M  V30 23 C -3.801196 -4.221943 1.595561 0
M  V30 24 C -5.065662 -3.843309 2.326638 0 CFG=1
M  V30 25 O -5.729883 -2.819454 1.671211 0
M  V30 26 C -5.940207 -5.097312 2.335859 0
M  V30 27 O -7.156966 -4.857075 2.994527 0
M  V30 28 C -1.377342 -4.640987 0.288169 0
M  V30 29 C -0.216187 -4.970817 -0.377707 0
M  V30 30 C 0.722291 -3.974138 -0.529221 0
M  V30 31 C 0.458778 -2.723438 -0.018202 0
M  V30 32 H 3.485548 -0.553997 -1.146187 0
M  V30 33 H 4.027922 1.799909 -0.799437 0
M  V30 34 H 1.976382 4.161219 1.259667 0
M  V30 35 H 4.499417 4.870785 1.984350 0
M  V30 36 H 6.328470 6.206448 0.891164 0
M  V30 37 H 4.822170 5.254338 -2.903050 0
M  V30 38 H 0.469226 2.250232 1.647960 0
M  V30 39 H -2.036609 -0.766430 0.644823 0
M  V30 40 H -1.661832 -1.419096 2.239684 0
M  V30 41 H -4.041702 -4.665651 0.591709 0
M  V30 42 H -3.366957 -5.080643 2.183690 0
M  V30 43 H -4.831689 -3.628139 3.372318 0
M  V30 44 H -6.476829 -2.508788 2.239293 0
M  V30 45 H -6.211971 -5.416061 1.316636 0
M  V30 46 H -5.458714 -5.910885 2.879365 0
M  V30 47 H -7.205645 -5.304068 3.876025 0
M  V30 48 H -2.132247 -5.419908 0.417026 0
M  V30 49 H -0.091511 -5.988817 -0.749933 0
M  V30 50 H 1.645466 -4.191313 -1.044828 0
M  V30 END ATOM
M  V30 BEGIN BOND
M  V30 1 2 1 2
M  V30 2 1 2 3
M  V30 3 2 3 4
M  V30 4 1 4 5
M  V30 5 2 5 6
M  V30 6 1 6 7
M  V30 7 1 7 8
M  V30 8 2 8 9
M  V30 9 1 9 10
M  V30 10 2 10 11
M  V30 11 1 11 12
M  V30 12 1 11 13
M  V30 13 2 13 14
M  V30 14 1 14 15
M  V30 15 1 6 16
M  V30 16 2 16 17
M  V30 17 1 17 18
M  V30 18 1 18 19
M  V30 19 1 19 20
M  V30 20 2 20 21
M  V30 21 1 21 22
M  V30 22 1 22 23
M  V30 23 1 23 24
M  V30 24 1 24 25
M  V30 25 1 24 26
M  V30 26 1 26 27
M  V30 27 1 21 28
M  V30 28 2 28 29
M  V30 29 1 29 30
M  V30 30 2 30 31
M  V30 31 1 31 2
M  V30 32 1 17 3
M  V30 33 1 31 20
M  V30 34 1 14 8
M  V30 35 1 4 32
M  V30 36 1 5 33
M  V30 37 1 7 34
M  V30 38 1 9 35
M  V30 39 1 10 36
M  V30 40 1 13 37
M  V30 41 1 16 38
M  V30 42 1 19 39
M  V30 43 1 19 40
M  V30 44 1 23 41
M  V30 45 1 23 42
M  V30 46 1 24 43 CFG=1
M  V30 47 1 25 44
M  V30 48 1 26 45
M  V30 49 1 26 46
M  V30 50 1 27 47
M  V30 51 1 28 48
M  V30 52 1 29 49
M  V30 53 1 30 50
M  V30 END BOND
M  V30 END CTAB
M  END
>  <Dataset>  (278) 
ChEMBL_Kinases

>  <Ligand_Instance>  (278) 
nan

>  <PDB_ID>  (278) 
nan

>  <Standardized_SMILES>  (278) 
O=C1c2ccc(Nc3ccc(F)cc3F)cc2OCc2c(OC[C@@H](O)CO)cccc21

>  <Name>  (278) 
nan

>  <Pocket>  (278) 
nan

>  <ATP_Site>  (278) 
nan

>  <Peripheral>  (278) 
nan

>  <Num_H_Atoms_ProtBoundConf>  (278) 
nan

>  <Num_Resolved_Atoms>  (278) 
nan

>  <Num_Not_Resolved_Atoms>  (278) 
nan

$$$$
CHEMBL3086110
     RDKit          3D

  0  0  0  0  0  0  0  0  0  0999 V3000
M  V30 BEGIN CTAB
M  V30 COUNTS 50 53 0 0 0
M  V30 BEGIN ATOM
M  V30 1 O 2.656280 -2.486424 -0.834979 0
M  V30 2 C 1.630314 -2.029120 -0.284283 0
M  V30 3 C 1.577850 -0.587875 0.033802 0
M  V30 4 C 2.657777 0.072192 -0.559480 0
M  V30 5 C 2.803036 1.433265 -0.389624 0
M  V30 6 C 1.856411 2.083676 0.371538 0
M  V30 7 N 1.961460 3.486321 0.574366 0
M  V30 8 C 2.940631 4.374716 0.054894 0
M  V30 9 C 3.818120 5.162108 0.770674 0
M  V30 10 C 4.722722 5.986218 0.134159 0
M  V30 11 C 4.779442 6.050109 -1.256432 0
M  V30 12 F 5.689235 6.878836 -1.854912 0
M  V30 13 C 3.892267 5.253943 -1.969355 0
M  V30 14 C 2.984519 4.427077 -1.341929 0
M  V30 15 F 2.221577 3.746792 -2.232750 0
M  V30 16 C 0.778741 1.469119 0.972242 0
M  V30 17 C 0.664255 0.107743 0.781744 0
M  V30 18 O -0.433655 -0.464375 1.404247 0
M  V30 19 C -1.311997 -1.487335 1.051917 0
M  V30 20 C -0.694611 -2.725037 0.572538 0
M  V30 21 C -1.564836 -3.797346 0.748870 0
M  V30 22 O -2.848663 -3.669718 1.312653 0
M  V30 23 C -3.659488 -4.830042 1.448184 0
M  V30 24 C -4.968055 -4.401039 2.075597 0 CFG=2
M  V30 25 O -5.611762 -3.470573 1.284875 0
M  V30 26 C -4.803587 -3.906967 3.473682 0
M  V30 27 O -4.066581 -2.742974 3.581136 0
M  V30 28 C -1.115241 -5.044717 0.337865 0
M  V30 29 C 0.113098 -5.308319 -0.226535 0
M  V30 30 C 0.963675 -4.216588 -0.391150 0
M  V30 31 C 0.549438 -2.980922 0.002824 0
M  V30 32 H 3.342584 -0.533687 -1.136603 0
M  V30 33 H 3.646604 1.919845 -0.857641 0
M  V30 34 H 1.321199 4.053920 1.141582 0
M  V30 35 H 3.735140 5.077233 1.857678 0
M  V30 36 H 5.393326 6.587595 0.725331 0
M  V30 37 H 4.010943 5.370917 -3.037700 0
M  V30 38 H 0.060840 1.995447 1.555979 0
M  V30 39 H -1.950591 -1.703226 1.954701 0
M  V30 40 H -2.060303 -1.180226 0.274658 0
M  V30 41 H -3.162635 -5.629693 2.001990 0
M  V30 42 H -3.837005 -5.221849 0.426629 0
M  V30 43 H -5.606506 -5.316648 2.131569 0
M  V30 44 H -4.991954 -2.712184 1.107394 0
M  V30 45 H -4.454604 -4.685398 4.168054 0
M  V30 46 H -5.840277 -3.636593 3.830975 0
M  V30 47 H -3.351291 -2.763592 4.238391 0
M  V30 48 H -1.805103 -5.888196 0.478794 0
M  V30 49 H 0.345083 -6.322515 -0.504283 0
M  V30 50 H 1.923700 -4.435329 -0.834610 0
M  V30 END ATOM
M  V30 BEGIN BOND
M  V30 1 2 1 2
M  V30 2 1 2 3
M  V30 3 2 3 4
M  V30 4 1 4 5
M  V30 5 2 5 6
M  V30 6 1 6 7
M  V30 7 1 7 8
M  V30 8 2 8 9
M  V30 9 1 9 10
M  V30 10 2 10 11
M  V30 11 1 11 12
M  V30 12 1 11 13
M  V30 13 2 13 14
M  V30 14 1 14 15
M  V30 15 1 6 16
M  V30 16 2 16 17
M  V30 17 1 17 18
M  V30 18 1 18 19
M  V30 19 1 19 20
M  V30 20 2 20 21
M  V30 21 1 21 22
M  V30 22 1 22 23
M  V30 23 1 23 24
M  V30 24 1 24 25
M  V30 25 1 24 26
M  V30 26 1 26 27
M  V30 27 1 21 28
M  V30 28 2 28 29
M  V30 29 1 29 30
M  V30 30 2 30 31
M  V30 31 1 31 2
M  V30 32 1 17 3
M  V30 33 1 31 20
M  V30 34 1 14 8
M  V30 35 1 4 32
M  V30 36 1 5 33
M  V30 37 1 7 34
M  V30 38 1 9 35
M  V30 39 1 10 36
M  V30 40 1 13 37
M  V30 41 1 16 38
M  V30 42 1 19 39
M  V30 43 1 19 40
M  V30 44 1 23 41
M  V30 45 1 23 42
M  V30 46 1 24 43 CFG=1
M  V30 47 1 25 44
M  V30 48 1 26 45
M  V30 49 1 26 46
M  V30 50 1 27 47
M  V30 51 1 28 48
M  V30 52 1 29 49
M  V30 53 1 30 50
M  V30 END BOND
M  V30 END CTAB
M  END
>  <Dataset>  (279) 
ChEMBL_Kinases

>  <Ligand_Instance>  (279) 
nan

>  <PDB_ID>  (279) 
nan

>  <Standardized_SMILES>  (279) 
O=C1c2ccc(Nc3ccc(F)cc3F)cc2OCc2c(OC[C@H](O)CO)cccc21

>  <Name>  (279) 
nan

>  <Pocket>  (279) 
nan

>  <ATP_Site>  (279) 
nan

>  <Peripheral>  (279) 
nan

>  <Num_H_Atoms_ProtBoundConf>  (279) 
nan

>  <Num_Resolved_Atoms>  (279) 
nan

>  <Num_Not_Resolved_Atoms>  (279) 
nan

$$$$
CHEMBL3086111
     RDKit          3D

  0  0  0  0  0  0  0  0  0  0999 V3000
M  V30 BEGIN CTAB
M  V30 COUNTS 42 45 0 0 0
M  V30 BEGIN ATOM
M  V30 1 C -4.683090 -5.882000 -1.002178 0
M  V30 2 O -4.232673 -4.552002 -0.823960 0
M  V30 3 C -2.892320 -4.207909 -0.711305 0
M  V30 4 C -1.771236 -5.011740 -0.743257 0
M  V30 5 C -0.523164 -4.439153 -0.609203 0
M  V30 6 C -0.356312 -3.078968 -0.442904 0
M  V30 7 C -1.460469 -2.251208 -0.407265 0
M  V30 8 C -2.715338 -2.829211 -0.542315 0
M  V30 9 C -1.491775 -0.790019 -0.240052 0
M  V30 10 O -0.512402 -0.254138 0.589769 0
M  V30 11 C 0.869074 -0.373573 0.661600 0
M  V30 12 C 1.505712 0.733927 1.186471 0
M  V30 13 C 2.876085 0.643520 1.269567 0
M  V30 14 N 3.607932 1.739530 1.797103 0
M  V30 15 C 3.127335 2.993984 2.262956 0
M  V30 16 C 3.347456 3.388818 3.578087 0
M  V30 17 C 2.929394 4.580547 4.138401 0
M  V30 18 C 2.234735 5.447711 3.316391 0
M  V30 19 F 1.794714 6.634801 3.800308 0
M  V30 20 C 1.985492 5.101679 1.986338 0
M  V30 21 C 2.433741 3.894047 1.495990 0
M  V30 22 F 2.176377 3.593766 0.208547 0
M  V30 23 C 3.630276 -0.440895 0.877651 0
M  V30 24 C 2.959114 -1.543729 0.351711 0
M  V30 25 C 1.580329 -1.501874 0.247304 0
M  V30 26 C 1.063491 -2.754016 -0.328116 0
M  V30 27 O 1.886317 -3.598335 -0.747591 0
M  V30 28 H -3.943269 -6.600158 -0.606043 0
M  V30 29 H -4.872023 -6.120177 -2.086579 0
M  V30 30 H -5.692821 -6.027016 -0.525520 0
M  V30 31 H -1.998773 -6.044909 -0.875048 0
M  V30 32 H 0.324735 -5.096363 -0.639086 0
M  V30 33 H -3.536896 -2.101585 -0.502898 0
M  V30 34 H -2.486967 -0.531553 0.219652 0
M  V30 35 H -1.519436 -0.282526 -1.245862 0
M  V30 36 H 0.922433 1.582785 1.494455 0
M  V30 37 H 4.641053 1.770224 1.917855 0
M  V30 38 H 3.888161 2.719065 4.226190 0
M  V30 39 H 3.145388 4.802209 5.167756 0
M  V30 40 H 1.441278 5.768618 1.322801 0
M  V30 41 H 4.704680 -0.460624 0.964446 0
M  V30 42 H 3.478553 -2.414092 0.029544 0
M  V30 END ATOM
M  V30 BEGIN BOND
M  V30 1 1 1 2
M  V30 2 1 2 3
M  V30 3 2 3 4
M  V30 4 1 4 5
M  V30 5 2 5 6
M  V30 6 1 6 7
M  V30 7 2 7 8
M  V30 8 1 7 9
M  V30 9 1 9 10
M  V30 10 1 10 11
M  V30 11 2 11 12
M  V30 12 1 12 13
M  V30 13 1 13 14
M  V30 14 1 14 15
M  V30 15 2 15 16
M  V30 16 1 16 17
M  V30 17 2 17 18
M  V30 18 1 18 19
M  V30 19 1 18 20
M  V30 20 2 20 21
M  V30 21 1 21 22
M  V30 22 2 13 23
M  V30 23 1 23 24
M  V30 24 2 24 25
M  V30 25 1 25 26
M  V30 26 2 26 27
M  V30 27 1 8 3
M  V30 28 1 25 11
M  V30 29 1 26 6
M  V30 30 1 21 15
M  V30 31 1 1 28
M  V30 32 1 1 29
M  V30 33 1 1 30
M  V30 34 1 4 31
M  V30 35 1 5 32
M  V30 36 1 8 33
M  V30 37 1 9 34
M  V30 38 1 9 35
M  V30 39 1 12 36
M  V30 40 1 14 37
M  V30 41 1 16 38
M  V30 42 1 17 39
M  V30 43 1 20 40
M  V30 44 1 23 41
M  V30 45 1 24 42
M  V30 END BOND
M  V30 END CTAB
M  END
>  <Dataset>  (280) 
ChEMBL_Kinases

>  <Ligand_Instance>  (280) 
nan

>  <PDB_ID>  (280) 
nan

>  <Standardized_SMILES>  (280) 
COc1ccc2c(c1)COc1cc(Nc3ccc(F)cc3F)ccc1C2=O

>  <Name>  (280) 
nan

>  <Pocket>  (280) 
nan

>  <ATP_Site>  (280) 
nan

>  <Peripheral>  (280) 
nan

>  <Num_H_Atoms_ProtBoundConf>  (280) 
nan

>  <Num_Resolved_Atoms>  (280) 
nan

>  <Num_Not_Resolved_Atoms>  (280) 
nan

$$$$
CHEMBL3086684
     RDKit          3D

  0  0  0  0  0  0  0  0  0  0999 V3000
M  V30 BEGIN CTAB
M  V30 COUNTS 58 62 0 0 0
M  V30 BEGIN ATOM
M  V30 1 O -1.126589 -0.425620 3.028657 0
M  V30 2 C -0.898194 -1.424285 2.313419 0
M  V30 3 C 0.512604 -1.785303 2.186369 0
M  V30 4 C 1.367080 -0.733391 2.413176 0
M  V30 5 C 2.741219 -0.792291 2.356813 0
M  V30 6 N 3.621613 0.287021 2.578100 0
M  V30 7 C 3.364051 1.672408 2.869519 0
M  V30 8 C 2.745037 2.452084 1.754508 0
M  V30 9 N 3.524614 2.502582 0.540924 0
M  V30 10 C 4.736185 3.244722 0.627533 0
M  V30 11 C 4.506798 4.704843 0.325860 0
M  V30 12 O 4.224005 4.837371 -1.014620 0
M  V30 13 C 3.414906 3.841010 -1.534463 0
M  V30 14 C 2.665976 3.138825 -0.441887 0
M  V30 15 C 3.228287 -2.040893 2.042239 0
M  V30 16 C 2.409419 -3.121261 1.807778 0
M  V30 17 C 1.034988 -3.023559 1.873002 0
M  V30 18 C 0.398749 -4.306499 1.584543 0
M  V30 19 O -0.903328 -4.290596 1.130249 0
M  V30 20 C -1.994218 -3.437836 1.132372 0
M  V30 21 C -3.171596 -3.890940 0.566429 0
M  V30 22 C -4.296210 -3.086467 0.537874 0
M  V30 23 O -5.364523 -3.729488 -0.072430 0
M  V30 24 C -5.590679 -3.659764 -1.446428 0
M  V30 25 C -5.554561 -4.936632 -2.016527 0
M  V30 26 C -5.749793 -5.141211 -3.369577 0
M  V30 27 C -5.986881 -4.050902 -4.177647 0
M  V30 28 F -6.195427 -4.114255 -5.526210 0
M  V30 29 C -6.023562 -2.790340 -3.620719 0
M  V30 30 C -5.829701 -2.580901 -2.272947 0
M  V30 31 F -5.839167 -1.407776 -1.599462 0
M  V30 32 C -4.261530 -1.815865 1.075236 0
M  V30 33 C -3.101646 -1.334685 1.647139 0
M  V30 34 C -1.998191 -2.162285 1.659147 0
M  V30 35 H 0.885840 0.194734 2.660671 0
M  V30 36 H 4.658057 0.041624 2.519484 0
M  V30 37 H 2.577177 1.679508 3.691107 0
M  V30 38 H 4.235955 2.126756 3.321923 0
M  V30 39 H 1.761238 2.026338 1.507104 0
M  V30 40 H 2.542491 3.509495 2.033721 0
M  V30 41 H 5.297497 3.090875 1.570356 0
M  V30 42 H 5.426497 2.865237 -0.165573 0
M  V30 43 H 3.765596 5.169652 1.002809 0
M  V30 44 H 5.500773 5.212546 0.487462 0
M  V30 45 H 3.917496 3.179659 -2.256761 0
M  V30 46 H 2.618871 4.376119 -2.129987 0
M  V30 47 H 1.928093 2.452205 -0.897196 0
M  V30 48 H 2.038431 3.935353 0.056634 0
M  V30 49 H 4.303068 -2.218814 1.966866 0
M  V30 50 H 2.844018 -4.084114 1.563206 0
M  V30 51 H 0.481680 -4.990734 2.478930 0
M  V30 52 H 1.022106 -4.835277 0.806492 0
M  V30 53 H -3.093001 -4.910602 0.169693 0
M  V30 54 H -5.376712 -5.872800 -1.485065 0
M  V30 55 H -5.729639 -6.107328 -3.849282 0
M  V30 56 H -6.206950 -1.876016 -4.199519 0
M  V30 57 H -5.184963 -1.260973 1.009423 0
M  V30 58 H -3.078747 -0.339117 2.066796 0
M  V30 END ATOM
M  V30 BEGIN BOND
M  V30 1 2 1 2
M  V30 2 1 2 3
M  V30 3 2 3 4
M  V30 4 1 4 5
M  V30 5 1 5 6
M  V30 6 1 6 7
M  V30 7 1 7 8
M  V30 8 1 8 9
M  V30 9 1 9 10
M  V30 10 1 10 11
M  V30 11 1 11 12
M  V30 12 1 12 13
M  V30 13 1 13 14
M  V30 14 2 5 15
M  V30 15 1 15 16
M  V30 16 2 16 17
M  V30 17 1 17 18
M  V30 18 1 18 19
M  V30 19 1 19 20
M  V30 20 2 20 21
M  V30 21 1 21 22
M  V30 22 1 22 23
M  V30 23 1 23 24
M  V30 24 2 24 25
M  V30 25 1 25 26
M  V30 26 2 26 27
M  V30 27 1 27 28
M  V30 28 1 27 29
M  V30 29 2 29 30
M  V30 30 1 30 31
M  V30 31 2 22 32
M  V30 32 1 32 33
M  V30 33 2 33 34
M  V30 34 1 34 2
M  V30 35 1 17 3
M  V30 36 1 34 20
M  V30 37 1 14 9
M  V30 38 1 30 24
M  V30 39 1 4 35
M  V30 40 1 6 36
M  V30 41 1 7 37
M  V30 42 1 7 38
M  V30 43 1 8 39
M  V30 44 1 8 40
M  V30 45 1 10 41
M  V30 46 1 10 42
M  V30 47 1 11 43
M  V30 48 1 11 44
M  V30 49 1 13 45
M  V30 50 1 13 46
M  V30 51 1 14 47
M  V30 52 1 14 48
M  V30 53 1 15 49
M  V30 54 1 16 50
M  V30 55 1 18 51
M  V30 56 1 18 52
M  V30 57 1 21 53
M  V30 58 1 25 54
M  V30 59 1 26 55
M  V30 60 1 29 56
M  V30 61 1 32 57
M  V30 62 1 33 58
M  V30 END BOND
M  V30 END CTAB
M  END
>  <Dataset>  (281) 
ChEMBL_Kinases

>  <Ligand_Instance>  (281) 
nan

>  <PDB_ID>  (281) 
nan

>  <Standardized_SMILES>  (281) 
O=C1c2cc(NCCN3CCOCC3)ccc2COc2cc(Oc3ccc(F)cc3F)ccc21

>  <Name>  (281) 
nan

>  <Pocket>  (281) 
nan

>  <ATP_Site>  (281) 
nan

>  <Peripheral>  (281) 
nan

>  <Num_H_Atoms_ProtBoundConf>  (281) 
nan

>  <Num_Resolved_Atoms>  (281) 
nan

>  <Num_Not_Resolved_Atoms>  (281) 
nan

$$$$
CHEMBL3086675
     RDKit          3D

  0  0  0  0  0  0  0  0  0  0999 V3000
M  V30 BEGIN CTAB
M  V30 COUNTS 50 53 0 0 0
M  V30 BEGIN ATOM
M  V30 1 O 0.947703 -0.214303 -1.678312 0
M  V30 2 C 0.420774 -0.216018 -0.537766 0
M  V30 3 C 1.101830 0.610857 0.468556 0
M  V30 4 C 2.371103 0.969670 0.047860 0
M  V30 5 C 3.144756 1.750176 0.882375 0
M  V30 6 O 4.441331 2.170402 0.556830 0
M  V30 7 C 4.975094 1.780304 -0.670582 0
M  V30 8 C 6.372440 2.273787 -0.943239 0 CFG=2
M  V30 9 O 6.838312 1.842259 -2.191591 0
M  V30 10 C 7.360142 1.867962 0.092620 0
M  V30 11 O 6.890061 2.299902 1.329472 0
M  V30 12 C 2.671994 2.168912 2.111730 0
M  V30 13 C 1.402530 1.796496 2.506176 0
M  V30 14 C 0.593551 1.009693 1.690512 0
M  V30 15 C -0.710653 0.754185 2.341905 0
M  V30 16 O -1.262407 -0.502346 2.055082 0
M  V30 17 C -1.531860 -1.134765 0.851880 0
M  V30 18 C -2.663540 -1.948247 0.882393 0
M  V30 19 C -2.951743 -2.584898 -0.294804 0
M  V30 20 N -4.090672 -3.434367 -0.346831 0
M  V30 21 C -5.019849 -3.760978 0.679225 0
M  V30 22 C -6.378071 -3.465669 0.538347 0
M  V30 23 C -7.278039 -3.784740 1.535921 0
M  V30 24 C -6.900328 -4.395509 2.695490 0
M  V30 25 F -7.803696 -4.697585 3.658226 0
M  V30 26 C -5.548246 -4.689844 2.836420 0
M  V30 27 C -4.613255 -4.381361 1.848746 0
M  V30 28 F -3.322470 -4.701287 2.063994 0
M  V30 29 C -2.242962 -2.495451 -1.472911 0
M  V30 30 C -1.117826 -1.678526 -1.480780 0
M  V30 31 C -0.782926 -1.012782 -0.317130 0
M  V30 32 H 2.777101 0.659259 -0.912449 0
M  V30 33 H 4.331118 1.986949 -1.549533 0
M  V30 34 H 5.058597 0.656665 -0.653936 0
M  V30 35 H 6.358857 3.393218 -0.994348 0
M  V30 36 H 6.897614 0.844991 -2.166824 0
M  V30 37 H 7.615729 0.810556 0.064928 0
M  V30 38 H 8.306185 2.436813 -0.132143 0
M  V30 39 H 6.875162 3.285520 1.344338 0
M  V30 40 H 3.289034 2.789826 2.774157 0
M  V30 41 H 1.056520 2.140834 3.479342 0
M  V30 42 H -1.413203 1.562684 2.044008 0
M  V30 43 H -0.567362 0.848136 3.458110 0
M  V30 44 H -3.213624 -2.020616 1.787129 0
M  V30 45 H -4.423805 -3.963117 -1.179304 0
M  V30 46 H -6.726619 -2.976508 -0.373972 0
M  V30 47 H -8.322357 -3.538311 1.386588 0
M  V30 48 H -5.283807 -5.180496 3.781839 0
M  V30 49 H -2.517720 -3.021234 -2.371337 0
M  V30 50 H -0.508976 -1.552535 -2.357143 0
M  V30 END ATOM
M  V30 BEGIN BOND
M  V30 1 2 1 2
M  V30 2 1 2 3
M  V30 3 2 3 4
M  V30 4 1 4 5
M  V30 5 1 5 6
M  V30 6 1 6 7
M  V30 7 1 7 8
M  V30 8 1 8 9
M  V30 9 1 8 10
M  V30 10 1 10 11
M  V30 11 2 5 12
M  V30 12 1 12 13
M  V30 13 2 13 14
M  V30 14 1 14 15
M  V30 15 1 15 16
M  V30 16 1 16 17
M  V30 17 2 17 18
M  V30 18 1 18 19
M  V30 19 1 19 20
M  V30 20 1 20 21
M  V30 21 2 21 22
M  V30 22 1 22 23
M  V30 23 2 23 24
M  V30 24 1 24 25
M  V30 25 1 24 26
M  V30 26 2 26 27
M  V30 27 1 27 28
M  V30 28 2 19 29
M  V30 29 1 29 30
M  V30 30 2 30 31
M  V30 31 1 31 2
M  V30 32 1 14 3
M  V30 33 1 31 17
M  V30 34 1 27 21
M  V30 35 1 4 32
M  V30 36 1 7 33
M  V30 37 1 7 34
M  V30 38 1 8 35 CFG=3
M  V30 39 1 9 36
M  V30 40 1 10 37
M  V30 41 1 10 38
M  V30 42 1 11 39
M  V30 43 1 12 40
M  V30 44 1 13 41
M  V30 45 1 15 42
M  V30 46 1 15 43
M  V30 47 1 18 44
M  V30 48 1 20 45
M  V30 49 1 22 46
M  V30 50 1 23 47
M  V30 51 1 26 48
M  V30 52 1 29 49
M  V30 53 1 30 50
M  V30 END BOND
M  V30 END CTAB
M  END
>  <Dataset>  (282) 
ChEMBL_Kinases

>  <Ligand_Instance>  (282) 
nan

>  <PDB_ID>  (282) 
nan

>  <Standardized_SMILES>  (282) 
O=C1c2cc(OC[C@H](O)CO)ccc2COc2cc(Nc3ccc(F)cc3F)ccc21

>  <Name>  (282) 
nan

>  <Pocket>  (282) 
nan

>  <ATP_Site>  (282) 
nan

>  <Peripheral>  (282) 
nan

>  <Num_H_Atoms_ProtBoundConf>  (282) 
nan

>  <Num_Resolved_Atoms>  (282) 
nan

>  <Num_Not_Resolved_Atoms>  (282) 
nan

$$$$
CHEMBL3086676
     RDKit          3D

  0  0  0  0  0  0  0  0  0  0999 V3000
M  V30 BEGIN CTAB
M  V30 COUNTS 59 62 0 0 0
M  V30 BEGIN ATOM
M  V30 1 C 2.412029 -0.127249 4.201633 0
M  V30 2 C 3.075559 0.996460 4.959843 0
M  V30 3 N 3.263473 2.112511 4.114247 0
M  V30 4 C 3.943894 3.222311 4.697957 0
M  V30 5 C 3.232224 3.952016 5.778480 0
M  V30 6 C 2.245298 2.426958 3.175942 0
M  V30 7 C 0.953176 2.929376 3.725182 0
M  V30 8 O -0.019435 3.225627 2.781525 0
M  V30 9 C -0.654316 2.426594 1.885244 0
M  V30 10 C -1.552027 3.184065 1.119751 0
M  V30 11 C -2.360035 2.693242 0.119449 0
M  V30 12 C -2.282372 1.326356 -0.159108 0
M  V30 13 C -1.416560 0.529531 0.562416 0
M  V30 14 C -0.637607 1.078696 1.546813 0
M  V30 15 C -1.112271 -0.903849 0.513025 0
M  V30 16 O -0.494087 -1.427577 1.465515 0
M  V30 17 C -1.518601 -1.746878 -0.636441 0
M  V30 18 C -1.004797 -3.010728 -0.486831 0
M  V30 19 C -1.283395 -3.929245 -1.476702 0
M  V30 20 C -2.032364 -3.702088 -2.610311 0
M  V30 21 N -2.269980 -4.652362 -3.614763 0
M  V30 22 C -1.476086 -5.673779 -4.184055 0
M  V30 23 C -0.169439 -5.986332 -3.911426 0
M  V30 24 C 0.580544 -6.998793 -4.466333 0
M  V30 25 C -0.033897 -7.788310 -5.394849 0
M  V30 26 F 0.616145 -8.811829 -6.000201 0
M  V30 27 C -1.363812 -7.520907 -5.716345 0
M  V30 28 C -2.076641 -6.503969 -5.142147 0
M  V30 29 F -3.361176 -6.350525 -5.543190 0
M  V30 30 C -2.539091 -2.392385 -2.718745 0
M  V30 31 C -2.278310 -1.450114 -1.745898 0
M  V30 32 O -2.830931 -0.202313 -1.968028 0
M  V30 33 C -3.188684 0.918161 -1.238094 0
M  V30 34 H 2.649644 -1.102932 4.724595 0
M  V30 35 H 1.311404 -0.065434 4.224006 0
M  V30 36 H 2.817733 -0.250905 3.172251 0
M  V30 37 H 4.085097 0.612763 5.247144 0
M  V30 38 H 2.458848 1.190854 5.868146 0
M  V30 39 H 4.918886 2.838312 5.099980 0
M  V30 40 H 4.254479 3.881121 3.846877 0
M  V30 41 H 3.937347 4.141991 6.643912 0
M  V30 42 H 2.841036 4.943153 5.526839 0
M  V30 43 H 2.469512 3.261423 6.235257 0
M  V30 44 H 2.705555 3.157935 2.452487 0
M  V30 45 H 2.059487 1.520555 2.572661 0
M  V30 46 H 0.535737 2.154570 4.432858 0
M  V30 47 H 1.077860 3.827903 4.374053 0
M  V30 48 H -1.723021 4.263685 1.222415 0
M  V30 49 H -3.054732 3.246308 -0.482030 0
M  V30 50 H 0.036859 0.527490 2.144907 0
M  V30 51 H -0.411087 -3.234062 0.386566 0
M  V30 52 H -0.860114 -4.897303 -1.281362 0
M  V30 53 H -3.247684 -4.537816 -3.976212 0
M  V30 54 H 0.346076 -5.374138 -3.193586 0
M  V30 55 H 1.609244 -7.156217 -4.175549 0
M  V30 56 H -1.833816 -8.169719 -6.464684 0
M  V30 57 H -3.135381 -2.086833 -3.547693 0
M  V30 58 H -3.370525 1.758587 -1.939129 0
M  V30 59 H -4.176001 0.691102 -0.738720 0
M  V30 END ATOM
M  V30 BEGIN BOND
M  V30 1 1 1 2
M  V30 2 1 2 3
M  V30 3 1 3 4
M  V30 4 1 4 5
M  V30 5 1 3 6
M  V30 6 1 6 7
M  V30 7 1 7 8
M  V30 8 1 8 9
M  V30 9 2 9 10
M  V30 10 1 10 11
M  V30 11 2 11 12
M  V30 12 1 12 13
M  V30 13 2 13 14
M  V30 14 1 13 15
M  V30 15 2 15 16
M  V30 16 1 15 17
M  V30 17 2 17 18
M  V30 18 1 18 19
M  V30 19 2 19 20
M  V30 20 1 20 21
M  V30 21 1 21 22
M  V30 22 2 22 23
M  V30 23 1 23 24
M  V30 24 2 24 25
M  V30 25 1 25 26
M  V30 26 1 25 27
M  V30 27 2 27 28
M  V30 28 1 28 29
M  V30 29 1 20 30
M  V30 30 2 30 31
M  V30 31 1 31 32
M  V30 32 1 32 33
M  V30 33 1 14 9
M  V30 34 1 31 17
M  V30 35 1 33 12
M  V30 36 1 28 22
M  V30 37 1 1 34
M  V30 38 1 1 35
M  V30 39 1 1 36
M  V30 40 1 2 37
M  V30 41 1 2 38
M  V30 42 1 4 39
M  V30 43 1 4 40
M  V30 44 1 5 41
M  V30 45 1 5 42
M  V30 46 1 5 43
M  V30 47 1 6 44
M  V30 48 1 6 45
M  V30 49 1 7 46
M  V30 50 1 7 47
M  V30 51 1 10 48
M  V30 52 1 11 49
M  V30 53 1 14 50
M  V30 54 1 18 51
M  V30 55 1 19 52
M  V30 56 1 21 53
M  V30 57 1 23 54
M  V30 58 1 24 55
M  V30 59 1 27 56
M  V30 60 1 30 57
M  V30 61 1 33 58
M  V30 62 1 33 59
M  V30 END BOND
M  V30 END CTAB
M  END
>  <Dataset>  (283) 
ChEMBL_Kinases

>  <Ligand_Instance>  (283) 
nan

>  <PDB_ID>  (283) 
nan

>  <Standardized_SMILES>  (283) 
CCN(CC)CCOc1ccc2c(c1)C(=O)c1ccc(Nc3ccc(F)cc3F)cc1OC2

>  <Name>  (283) 
nan

>  <Pocket>  (283) 
nan

>  <ATP_Site>  (283) 
nan

>  <Peripheral>  (283) 
nan

>  <Num_H_Atoms_ProtBoundConf>  (283) 
nan

>  <Num_Resolved_Atoms>  (283) 
nan

>  <Num_Not_Resolved_Atoms>  (283) 
nan

$$$$
CHEMBL3086677
     RDKit          3D

  0  0  0  0  0  0  0  0  0  0999 V3000
M  V30 BEGIN CTAB
M  V30 COUNTS 59 63 0 0 0
M  V30 BEGIN ATOM
M  V30 1 O -0.575381 0.350709 0.513557 0
M  V30 2 C -0.444528 -0.888932 0.629421 0
M  V30 3 C 0.849726 -1.410649 1.061492 0
M  V30 4 C 1.758965 -0.397237 0.924367 0
M  V30 5 C 3.087087 -0.550128 1.245640 0
M  V30 6 O 4.225413 0.203437 1.241313 0
M  V30 7 C 4.311536 1.519037 0.861372 0
M  V30 8 C 3.531056 2.517353 1.674982 0
M  V30 9 C 3.796150 3.872310 1.047027 0
M  V30 10 C 3.363964 3.954395 -0.390557 0
M  V30 11 C 2.867297 5.362069 -0.658145 0
M  V30 12 O 3.656716 6.349692 -0.122442 0
M  V30 13 C 3.813134 6.277910 1.242340 0
M  V30 14 C 3.155308 5.005567 1.794292 0
M  V30 15 C 3.457489 -1.818947 1.725917 0
M  V30 16 C 2.529126 -2.858607 1.867261 0
M  V30 17 C 1.205177 -2.658983 1.532544 0
M  V30 18 C 0.329559 -3.841534 1.730699 0
M  V30 19 O -0.701770 -3.964998 0.797957 0
M  V30 20 C -1.739488 -3.129508 0.392040 0
M  V30 21 C -2.915306 -3.774484 0.061972 0
M  V30 22 C -3.980906 -3.001078 -0.347922 0
M  V30 23 N -5.213981 -3.602377 -0.702842 0
M  V30 24 C -5.428962 -5.007995 -0.724742 0
M  V30 25 C -6.346256 -5.720410 0.021001 0
M  V30 26 C -6.441816 -7.095445 -0.112361 0
M  V30 27 C -5.637904 -7.780493 -0.978326 0
M  V30 28 F -5.767099 -9.140962 -1.077579 0
M  V30 29 C -4.714529 -7.084393 -1.732429 0
M  V30 30 C -4.610689 -5.697016 -1.604940 0
M  V30 31 F -3.645707 -5.205066 -2.434526 0
M  V30 32 C -3.864470 -1.629333 -0.421861 0
M  V30 33 C -2.682389 -0.961261 -0.091652 0
M  V30 34 C -1.617798 -1.741196 0.318387 0
M  V30 35 H 1.570212 0.584662 0.559307 0
M  V30 36 H 5.396199 1.827906 0.995644 0
M  V30 37 H 4.024755 1.710754 -0.201477 0
M  V30 38 H 4.036686 2.584087 2.687641 0
M  V30 39 H 2.464617 2.318131 1.788233 0
M  V30 40 H 4.907075 4.027091 1.144443 0
M  V30 41 H 2.452693 3.295680 -0.490633 0
M  V30 42 H 4.150326 3.623926 -1.083660 0
M  V30 43 H 1.780374 5.461510 -0.426708 0
M  V30 44 H 2.937712 5.479597 -1.778191 0
M  V30 45 H 3.553984 7.171962 1.808268 0
M  V30 46 H 4.917363 6.109361 1.409026 0
M  V30 47 H 3.365972 4.992661 2.879576 0
M  V30 48 H 2.072005 5.083057 1.602189 0
M  V30 49 H 4.438472 -2.205957 2.050084 0
M  V30 50 H 2.725011 -3.857973 2.226001 0
M  V30 51 H -0.098781 -3.768209 2.773305 0
M  V30 52 H 0.934839 -4.771642 1.701586 0
M  V30 53 H -2.949687 -4.836576 0.138771 0
M  V30 54 H -6.037786 -3.036090 -0.969636 0
M  V30 55 H -6.940855 -5.082302 0.682905 0
M  V30 56 H -7.199761 -7.568916 0.522692 0
M  V30 57 H -4.120992 -7.706645 -2.390411 0
M  V30 58 H -4.698131 -1.017626 -0.742898 0
M  V30 59 H -2.622159 0.115168 -0.159768 0
M  V30 END ATOM
M  V30 BEGIN BOND
M  V30 1 2 1 2
M  V30 2 1 2 3
M  V30 3 2 3 4
M  V30 4 1 4 5
M  V30 5 1 5 6
M  V30 6 1 6 7
M  V30 7 1 7 8
M  V30 8 1 8 9
M  V30 9 1 9 10
M  V30 10 1 10 11
M  V30 11 1 11 12
M  V30 12 1 12 13
M  V30 13 1 13 14
M  V30 14 2 5 15
M  V30 15 1 15 16
M  V30 16 2 16 17
M  V30 17 1 17 18
M  V30 18 1 18 19
M  V30 19 1 19 20
M  V30 20 2 20 21
M  V30 21 1 21 22
M  V30 22 1 22 23
M  V30 23 1 23 24
M  V30 24 2 24 25
M  V30 25 1 25 26
M  V30 26 2 26 27
M  V30 27 1 27 28
M  V30 28 1 27 29
M  V30 29 2 29 30
M  V30 30 1 30 31
M  V30 31 2 22 32
M  V30 32 1 32 33
M  V30 33 2 33 34
M  V30 34 1 34 2
M  V30 35 1 17 3
M  V30 36 1 34 20
M  V30 37 1 14 9
M  V30 38 1 30 24
M  V30 39 1 4 35
M  V30 40 1 7 36
M  V30 41 1 7 37
M  V30 42 1 8 38
M  V30 43 1 8 39
M  V30 44 1 9 40
M  V30 45 1 10 41
M  V30 46 1 10 42
M  V30 47 1 11 43
M  V30 48 1 11 44
M  V30 49 1 13 45
M  V30 50 1 13 46
M  V30 51 1 14 47
M  V30 52 1 14 48
M  V30 53 1 15 49
M  V30 54 1 16 50
M  V30 55 1 18 51
M  V30 56 1 18 52
M  V30 57 1 21 53
M  V30 58 1 23 54
M  V30 59 1 25 55
M  V30 60 1 26 56
M  V30 61 1 29 57
M  V30 62 1 32 58
M  V30 63 1 33 59
M  V30 END BOND
M  V30 END CTAB
M  END
>  <Dataset>  (284) 
ChEMBL_Kinases

>  <Ligand_Instance>  (284) 
nan

>  <PDB_ID>  (284) 
nan

>  <Standardized_SMILES>  (284) 
O=C1c2cc(OCCC3CCOCC3)ccc2COc2cc(Nc3ccc(F)cc3F)ccc21

>  <Name>  (284) 
nan

>  <Pocket>  (284) 
nan

>  <ATP_Site>  (284) 
nan

>  <Peripheral>  (284) 
nan

>  <Num_H_Atoms_ProtBoundConf>  (284) 
nan

>  <Num_Resolved_Atoms>  (284) 
nan

>  <Num_Not_Resolved_Atoms>  (284) 
nan

$$$$
CHEMBL3086679
     RDKit          3D

  0  0  0  0  0  0  0  0  0  0999 V3000
M  V30 BEGIN CTAB
M  V30 COUNTS 46 49 0 0 0
M  V30 BEGIN ATOM
M  V30 1 O 2.744476 -1.995931 1.728946 0
M  V30 2 C 1.873933 -1.157852 1.395587 0
M  V30 3 C 2.340536 -0.000394 0.602143 0
M  V30 4 C 3.534669 -0.310137 -0.047668 0
M  V30 5 C 4.073228 0.697939 -0.825293 0
M  V30 6 O 5.269202 0.363723 -1.466019 0
M  V30 7 C 5.850611 1.372067 -2.271949 0
M  V30 8 C 7.134783 0.956143 -2.936120 0
M  V30 9 O 7.572855 2.065192 -3.690733 0
M  V30 10 C 3.464956 1.935411 -0.950088 0
M  V30 11 C 2.270383 2.215492 -0.287442 0
M  V30 12 C 1.702978 1.232266 0.498554 0
M  V30 13 C 0.466467 1.739546 1.093252 0
M  V30 14 O -0.571917 0.785515 1.219309 0
M  V30 15 C -0.575712 -0.509231 1.719566 0
M  V30 16 C -1.794945 -0.956459 2.177389 0
M  V30 17 C -2.049941 -2.196952 2.714928 0
M  V30 18 N -3.303253 -2.662658 3.156728 0
M  V30 19 C -4.617040 -2.478191 2.728392 0
M  V30 20 C -5.057847 -1.760629 1.640940 0
M  V30 21 C -6.356625 -1.582127 1.248433 0
M  V30 22 C -7.339566 -2.177173 2.010911 0
M  V30 23 F -8.643144 -2.037215 1.673939 0
M  V30 24 C -6.967378 -2.910733 3.113668 0
M  V30 25 C -5.641243 -3.045386 3.445767 0
M  V30 26 F -5.384401 -3.797207 4.563077 0
M  V30 27 C -0.907804 -2.998414 2.757355 0
M  V30 28 C 0.347569 -2.641190 2.326056 0
M  V30 29 C 0.490463 -1.379599 1.805818 0
M  V30 30 H 3.951700 -1.287783 0.092481 0
M  V30 31 H 5.968107 2.298242 -1.675124 0
M  V30 32 H 5.126900 1.644398 -3.087259 0
M  V30 33 H 6.923776 0.174304 -3.693443 0
M  V30 34 H 7.888099 0.576150 -2.250395 0
M  V30 35 H 6.812958 2.645471 -3.943790 0
M  V30 36 H 3.924893 2.688370 -1.568619 0
M  V30 37 H 1.868587 3.205610 -0.442759 0
M  V30 38 H 0.049236 2.566109 0.477773 0
M  V30 39 H 0.715507 2.192852 2.069323 0
M  V30 40 H -2.586169 -0.228095 2.097483 0
M  V30 41 H -3.150712 -3.277007 4.000052 0
M  V30 42 H -4.329853 -1.285772 1.005543 0
M  V30 43 H -6.633140 -1.005554 0.383258 0
M  V30 44 H -7.746281 -3.376904 3.709821 0
M  V30 45 H -0.996138 -4.010568 3.168734 0
M  V30 46 H 1.174535 -3.332108 2.399376 0
M  V30 END ATOM
M  V30 BEGIN BOND
M  V30 1 2 1 2
M  V30 2 1 2 3
M  V30 3 2 3 4
M  V30 4 1 4 5
M  V30 5 1 5 6
M  V30 6 1 6 7
M  V30 7 1 7 8
M  V30 8 1 8 9
M  V30 9 2 5 10
M  V30 10 1 10 11
M  V30 11 2 11 12
M  V30 12 1 12 13
M  V30 13 1 13 14
M  V30 14 1 14 15
M  V30 15 2 15 16
M  V30 16 1 16 17
M  V30 17 1 17 18
M  V30 18 1 18 19
M  V30 19 2 19 20
M  V30 20 1 20 21
M  V30 21 2 21 22
M  V30 22 1 22 23
M  V30 23 1 22 24
M  V30 24 2 24 25
M  V30 25 1 25 26
M  V30 26 2 17 27
M  V30 27 1 27 28
M  V30 28 2 28 29
M  V30 29 1 29 2
M  V30 30 1 12 3
M  V30 31 1 29 15
M  V30 32 1 25 19
M  V30 33 1 4 30
M  V30 34 1 7 31
M  V30 35 1 7 32
M  V30 36 1 8 33
M  V30 37 1 8 34
M  V30 38 1 9 35
M  V30 39 1 10 36
M  V30 40 1 11 37
M  V30 41 1 13 38
M  V30 42 1 13 39
M  V30 43 1 16 40
M  V30 44 1 18 41
M  V30 45 1 20 42
M  V30 46 1 21 43
M  V30 47 1 24 44
M  V30 48 1 27 45
M  V30 49 1 28 46
M  V30 END BOND
M  V30 END CTAB
M  END
>  <Dataset>  (285) 
ChEMBL_Kinases

>  <Ligand_Instance>  (285) 
nan

>  <PDB_ID>  (285) 
nan

>  <Standardized_SMILES>  (285) 
O=C1c2cc(OCCO)ccc2COc2cc(Nc3ccc(F)cc3F)ccc21

>  <Name>  (285) 
nan

>  <Pocket>  (285) 
nan

>  <ATP_Site>  (285) 
nan

>  <Peripheral>  (285) 
nan

>  <Num_H_Atoms_ProtBoundConf>  (285) 
nan

>  <Num_Resolved_Atoms>  (285) 
nan

>  <Num_Not_Resolved_Atoms>  (285) 
nan

$$$$
CHEMBL3086680
     RDKit          3D

  0  0  0  0  0  0  0  0  0  0999 V3000
M  V30 BEGIN CTAB
M  V30 COUNTS 49 52 0 0 0
M  V30 BEGIN ATOM
M  V30 1 O 1.154677 -1.609368 0.310465 0
M  V30 2 C 0.696455 -0.564233 0.795302 0
M  V30 3 C 1.602470 0.586581 0.895853 0
M  V30 4 C 2.735424 0.346667 0.147076 0
M  V30 5 C 3.692799 1.341254 0.138029 0
M  V30 6 O 4.887305 1.257043 -0.563547 0
M  V30 7 C 5.249685 0.120639 -1.355042 0
M  V30 8 C 6.620598 0.388690 -1.970503 0
M  V30 9 C 7.098736 -0.750403 -2.827759 0
M  V30 10 O 6.253044 -1.021750 -3.884784 0
M  V30 11 C 3.547676 2.525590 0.834851 0
M  V30 12 C 2.407317 2.747755 1.578453 0
M  V30 13 C 1.417092 1.772563 1.615695 0
M  V30 14 C 0.288233 2.217318 2.468860 0
M  V30 15 O -0.953070 1.694271 2.118555 0
M  V30 16 C -1.458693 0.436282 1.818725 0
M  V30 17 C -2.785153 0.300815 2.176889 0
M  V30 18 C -3.339187 -0.933101 1.900623 0
M  V30 19 N -4.704236 -1.144990 2.243389 0
M  V30 20 C -5.520547 -2.271741 2.082800 0
M  V30 21 C -6.098772 -2.881772 3.201984 0
M  V30 22 C -6.908287 -3.992375 3.085750 0
M  V30 23 C -7.173393 -4.539001 1.847617 0
M  V30 24 F -7.972525 -5.633728 1.744166 0
M  V30 25 C -6.620226 -3.964553 0.716845 0
M  V30 26 C -5.814776 -2.854578 0.864927 0
M  V30 27 F -5.302921 -2.333507 -0.252743 0
M  V30 28 C -2.629082 -1.959899 1.311239 0
M  V30 29 C -1.304137 -1.785940 0.967469 0
M  V30 30 C -0.698204 -0.552653 1.227572 0
M  V30 31 H 2.899271 -0.543816 -0.406946 0
M  V30 32 H 4.553612 -0.041190 -2.201065 0
M  V30 33 H 5.274653 -0.785483 -0.718654 0
M  V30 34 H 7.330521 0.446955 -1.104293 0
M  V30 35 H 6.639318 1.364070 -2.491962 0
M  V30 36 H 8.126515 -0.509523 -3.133617 0
M  V30 37 H 7.144120 -1.649009 -2.145463 0
M  V30 38 H 5.418291 -1.403311 -3.513251 0
M  V30 39 H 4.269802 3.328202 0.855318 0
M  V30 40 H 2.263220 3.666724 2.136492 0
M  V30 41 H 0.226316 3.324512 2.411525 0
M  V30 42 H 0.538522 1.871046 3.497768 0
M  V30 43 H -3.338059 1.105273 2.637558 0
M  V30 44 H -5.284178 -0.413698 2.689242 0
M  V30 45 H -5.886858 -2.447536 4.173520 0
M  V30 46 H -7.334185 -4.432696 3.969439 0
M  V30 47 H -6.848461 -4.418247 -0.238094 0
M  V30 48 H -3.036197 -2.935585 1.083387 0
M  V30 49 H -0.731624 -2.576016 0.505938 0
M  V30 END ATOM
M  V30 BEGIN BOND
M  V30 1 2 1 2
M  V30 2 1 2 3
M  V30 3 2 3 4
M  V30 4 1 4 5
M  V30 5 1 5 6
M  V30 6 1 6 7
M  V30 7 1 7 8
M  V30 8 1 8 9
M  V30 9 1 9 10
M  V30 10 2 5 11
M  V30 11 1 11 12
M  V30 12 2 12 13
M  V30 13 1 13 14
M  V30 14 1 14 15
M  V30 15 1 15 16
M  V30 16 2 16 17
M  V30 17 1 17 18
M  V30 18 1 18 19
M  V30 19 1 19 20
M  V30 20 2 20 21
M  V30 21 1 21 22
M  V30 22 2 22 23
M  V30 23 1 23 24
M  V30 24 1 23 25
M  V30 25 2 25 26
M  V30 26 1 26 27
M  V30 27 2 18 28
M  V30 28 1 28 29
M  V30 29 2 29 30
M  V30 30 1 30 2
M  V30 31 1 13 3
M  V30 32 1 30 16
M  V30 33 1 26 20
M  V30 34 1 4 31
M  V30 35 1 7 32
M  V30 36 1 7 33
M  V30 37 1 8 34
M  V30 38 1 8 35
M  V30 39 1 9 36
M  V30 40 1 9 37
M  V30 41 1 10 38
M  V30 42 1 11 39
M  V30 43 1 12 40
M  V30 44 1 14 41
M  V30 45 1 14 42
M  V30 46 1 17 43
M  V30 47 1 19 44
M  V30 48 1 21 45
M  V30 49 1 22 46
M  V30 50 1 25 47
M  V30 51 1 28 48
M  V30 52 1 29 49
M  V30 END BOND
M  V30 END CTAB
M  END
>  <Dataset>  (286) 
ChEMBL_Kinases

>  <Ligand_Instance>  (286) 
nan

>  <PDB_ID>  (286) 
nan

>  <Standardized_SMILES>  (286) 
O=C1c2cc(OCCCO)ccc2COc2cc(Nc3ccc(F)cc3F)ccc21

>  <Name>  (286) 
nan

>  <Pocket>  (286) 
nan

>  <ATP_Site>  (286) 
nan

>  <Peripheral>  (286) 
nan

>  <Num_H_Atoms_ProtBoundConf>  (286) 
nan

>  <Num_Resolved_Atoms>  (286) 
nan

>  <Num_Not_Resolved_Atoms>  (286) 
nan

$$$$
CHEMBL3086681
     RDKit          3D

  0  0  0  0  0  0  0  0  0  0999 V3000
M  V30 BEGIN CTAB
M  V30 COUNTS 51 54 0 0 0
M  V30 BEGIN ATOM
M  V30 1 C 5.289030 0.076307 7.417374 0
M  V30 2 C 5.378627 0.394191 5.953698 0
M  V30 3 O 6.382542 1.049688 5.603078 0
M  V30 4 O 4.307628 -0.108956 5.243228 0
M  V30 5 C 4.271467 0.128164 3.836760 0
M  V30 6 C 4.191234 1.616822 3.594095 0
M  V30 7 O 4.145561 1.991913 2.248356 0
M  V30 8 C 3.183589 1.686645 1.331167 0
M  V30 9 C 3.590932 2.272315 0.120326 0
M  V30 10 C 2.827442 2.156254 -1.047128 0
M  V30 11 C 1.627539 1.444087 -1.027382 0
M  V30 12 C 1.233360 0.872307 0.163212 0
M  V30 13 C 1.995158 0.996100 1.301705 0
M  V30 14 C 0.062466 0.075573 0.532267 0
M  V30 15 O -0.171054 -0.154076 1.733484 0
M  V30 16 C -0.869235 -0.475905 -0.482683 0
M  V30 17 C -1.893035 -1.153874 0.146321 0
M  V30 18 C -2.875643 -1.747318 -0.633332 0
M  V30 19 C -2.843464 -1.669693 -2.018361 0
M  V30 20 N -3.848786 -2.282351 -2.778794 0
M  V30 21 C -4.877910 -3.061773 -2.184336 0
M  V30 22 C -6.239384 -2.844362 -2.228243 0
M  V30 23 C -7.111247 -3.708604 -1.592572 0
M  V30 24 C -6.657149 -4.807737 -0.898878 0
M  V30 25 F -7.552284 -5.644142 -0.280115 0
M  V30 26 C -5.298608 -5.028746 -0.852445 0
M  V30 27 C -4.391796 -4.173283 -1.485019 0
M  V30 28 F -3.112279 -4.579306 -1.313982 0
M  V30 29 C -1.818044 -0.990699 -2.646261 0
M  V30 30 C -0.844068 -0.402835 -1.863034 0
M  V30 31 O 0.160366 0.265194 -2.552369 0
M  V30 32 C 0.925526 1.404816 -2.336202 0
M  V30 33 H 6.153786 0.412233 7.987102 0
M  V30 34 H 5.128494 -1.022369 7.484621 0
M  V30 35 H 4.358809 0.528775 7.862990 0
M  V30 36 H 3.475432 -0.435395 3.367645 0
M  V30 37 H 5.228555 -0.275718 3.396119 0
M  V30 38 H 5.094098 2.095304 4.046748 0
M  V30 39 H 3.316616 2.057192 4.171090 0
M  V30 40 H 4.468925 2.859444 -0.125052 0
M  V30 41 H 3.049070 2.565309 -2.021433 0
M  V30 42 H 1.749335 0.596578 2.247387 0
M  V30 43 H -1.898239 -1.201660 1.219570 0
M  V30 44 H -3.631810 -2.249807 -0.075394 0
M  V30 45 H -3.877948 -2.187885 -3.815609 0
M  V30 46 H -6.535960 -1.970429 -2.784482 0
M  V30 47 H -8.176520 -3.507303 -1.647679 0
M  V30 48 H -5.020804 -5.914899 -0.286493 0
M  V30 49 H -1.739538 -0.896784 -3.708186 0
M  V30 50 H 0.282849 2.325999 -2.430983 0
M  V30 51 H 1.654074 1.497991 -3.167238 0
M  V30 END ATOM
M  V30 BEGIN BOND
M  V30 1 1 1 2
M  V30 2 2 2 3
M  V30 3 1 2 4
M  V30 4 1 4 5
M  V30 5 1 5 6
M  V30 6 1 6 7
M  V30 7 1 7 8
M  V30 8 2 8 9
M  V30 9 1 9 10
M  V30 10 2 10 11
M  V30 11 1 11 12
M  V30 12 2 12 13
M  V30 13 1 12 14
M  V30 14 2 14 15
M  V30 15 1 14 16
M  V30 16 2 16 17
M  V30 17 1 17 18
M  V30 18 2 18 19
M  V30 19 1 19 20
M  V30 20 1 20 21
M  V30 21 2 21 22
M  V30 22 1 22 23
M  V30 23 2 23 24
M  V30 24 1 24 25
M  V30 25 1 24 26
M  V30 26 2 26 27
M  V30 27 1 27 28
M  V30 28 1 19 29
M  V30 29 2 29 30
M  V30 30 1 30 31
M  V30 31 1 31 32
M  V30 32 1 13 8
M  V30 33 1 30 16
M  V30 34 1 32 11
M  V30 35 1 27 21
M  V30 36 1 1 33
M  V30 37 1 1 34
M  V30 38 1 1 35
M  V30 39 1 5 36
M  V30 40 1 5 37
M  V30 41 1 6 38
M  V30 42 1 6 39
M  V30 43 1 9 40
M  V30 44 1 10 41
M  V30 45 1 13 42
M  V30 46 1 17 43
M  V30 47 1 18 44
M  V30 48 1 20 45
M  V30 49 1 22 46
M  V30 50 1 23 47
M  V30 51 1 26 48
M  V30 52 1 29 49
M  V30 53 1 32 50
M  V30 54 1 32 51
M  V30 END BOND
M  V30 END CTAB
M  END
>  <Dataset>  (287) 
ChEMBL_Kinases

>  <Ligand_Instance>  (287) 
nan

>  <PDB_ID>  (287) 
nan

>  <Standardized_SMILES>  (287) 
CC(=O)OCCOc1ccc2c(c1)C(=O)c1ccc(Nc3ccc(F)cc3F)cc1OC2

>  <Name>  (287) 
nan

>  <Pocket>  (287) 
nan

>  <ATP_Site>  (287) 
nan

>  <Peripheral>  (287) 
nan

>  <Num_H_Atoms_ProtBoundConf>  (287) 
nan

>  <Num_Resolved_Atoms>  (287) 
nan

>  <Num_Not_Resolved_Atoms>  (287) 
nan

$$$$
CHEMBL3086682
     RDKit          3D

  0  0  0  0  0  0  0  0  0  0999 V3000
M  V30 BEGIN CTAB
M  V30 COUNTS 39 42 0 0 0
M  V30 BEGIN ATOM
M  V30 1 N 3.443216 -6.120905 -0.306025 0
M  V30 2 C 2.282507 -5.316674 -0.300479 0
M  V30 3 C 1.054431 -5.921090 -0.186118 0
M  V30 4 C -0.065303 -5.105382 -0.183749 0
M  V30 5 C -0.009016 -3.729082 -0.289533 0
M  V30 6 C 1.274199 -3.178450 -0.402998 0
M  V30 7 C 2.440563 -3.945781 -0.411604 0
M  V30 8 C 1.656278 -1.763848 -0.530017 0
M  V30 9 O 2.805121 -1.450148 -0.919621 0
M  V30 10 C 0.755488 -0.656992 -0.221875 0
M  V30 11 C 1.368312 0.592754 -0.302696 0
M  V30 12 C 0.631846 1.738608 -0.035141 0
M  V30 13 C -0.721559 1.704090 0.318777 0
M  V30 14 O -1.267796 2.959323 0.543167 0
M  V30 15 C -1.223729 3.529345 1.808570 0
M  V30 16 C -0.516153 4.732613 1.740759 0
M  V30 17 C -0.323201 5.514645 2.886198 0
M  V30 18 C -0.838696 5.089401 4.093046 0
M  V30 19 F -0.741341 5.719583 5.275102 0
M  V30 20 C -1.532329 3.899741 4.133592 0
M  V30 21 C -1.732551 3.118874 3.023511 0
M  V30 22 F -2.384815 1.949832 2.931122 0
M  V30 23 C -1.325783 0.467086 0.398092 0
M  V30 24 C -0.579184 -0.663055 0.128915 0
M  V30 25 O -1.357173 -1.784205 0.261425 0
M  V30 26 C -1.323151 -3.085867 -0.263395 0
M  V30 27 H 3.600098 -6.760839 -1.104074 0
M  V30 28 H 4.246251 -6.217565 0.380126 0
M  V30 29 H 0.983415 -6.994299 -0.102102 0
M  V30 30 H -1.053012 -5.548980 -0.094949 0
M  V30 31 H 3.397621 -3.456528 -0.502053 0
M  V30 32 H 2.413620 0.640053 -0.574728 0
M  V30 33 H 1.192591 2.658592 -0.123481 0
M  V30 34 H -0.054051 5.196496 0.871006 0
M  V30 35 H 0.211104 6.448943 2.900860 0
M  V30 36 H -1.976205 3.483808 5.045106 0
M  V30 37 H -2.351399 0.492344 0.668345 0
M  V30 38 H -1.949959 -3.704243 0.443844 0
M  V30 39 H -1.843289 -3.173000 -1.250815 0
M  V30 END ATOM
M  V30 BEGIN BOND
M  V30 1 1 1 2
M  V30 2 2 2 3
M  V30 3 1 3 4
M  V30 4 2 4 5
M  V30 5 1 5 6
M  V30 6 2 6 7
M  V30 7 1 6 8
M  V30 8 2 8 9
M  V30 9 1 8 10
M  V30 10 2 10 11
M  V30 11 1 11 12
M  V30 12 2 12 13
M  V30 13 1 13 14
M  V30 14 1 14 15
M  V30 15 2 15 16
M  V30 16 1 16 17
M  V30 17 2 17 18
M  V30 18 1 18 19
M  V30 19 1 18 20
M  V30 20 2 20 21
M  V30 21 1 21 22
M  V30 22 1 13 23
M  V30 23 2 23 24
M  V30 24 1 24 25
M  V30 25 1 25 26
M  V30 26 1 7 2
M  V30 27 1 24 10
M  V30 28 1 26 5
M  V30 29 1 21 15
M  V30 30 1 1 27
M  V30 31 1 1 28
M  V30 32 1 3 29
M  V30 33 1 4 30
M  V30 34 1 7 31
M  V30 35 1 11 32
M  V30 36 1 12 33
M  V30 37 1 16 34
M  V30 38 1 17 35
M  V30 39 1 20 36
M  V30 40 1 23 37
M  V30 41 1 26 38
M  V30 42 1 26 39
M  V30 END BOND
M  V30 END CTAB
M  END
>  <Dataset>  (288) 
ChEMBL_Kinases

>  <Ligand_Instance>  (288) 
nan

>  <PDB_ID>  (288) 
nan

>  <Standardized_SMILES>  (288) 
Nc1ccc2c(c1)C(=O)c1ccc(Oc3ccc(F)cc3F)cc1OC2

>  <Name>  (288) 
nan

>  <Pocket>  (288) 
nan

>  <ATP_Site>  (288) 
nan

>  <Peripheral>  (288) 
nan

>  <Num_H_Atoms_ProtBoundConf>  (288) 
nan

>  <Num_Resolved_Atoms>  (288) 
nan

>  <Num_Not_Resolved_Atoms>  (288) 
nan

$$$$
CHEMBL3086683
     RDKit          3D

  0  0  0  0  0  0  0  0  0  0999 V3000
M  V30 BEGIN CTAB
M  V30 COUNTS 59 63 0 0 0
M  V30 BEGIN ATOM
M  V30 1 O 0.165460 -0.202151 2.550688 0
M  V30 2 C 0.013995 -1.219512 1.826684 0
M  V30 3 C 1.249629 -1.708543 1.213578 0
M  V30 4 C 2.226230 -0.769802 1.105385 0
M  V30 5 C 3.480096 -0.963397 0.567306 0
M  V30 6 N 4.492790 0.022896 0.448185 0
M  V30 7 C 4.404174 1.413225 0.824974 0
M  V30 8 C 3.461193 2.219747 -0.033300 0
M  V30 9 N 3.369429 3.590765 0.347705 0
M  V30 10 C 4.521282 4.393011 0.126694 0
M  V30 11 C 4.387345 5.259178 -1.109680 0
M  V30 12 O 3.258621 6.034136 -0.937056 0
M  V30 13 C 2.107216 5.301009 -0.839202 0
M  V30 14 C 2.101910 4.203650 0.165116 0
M  V30 15 C 3.689820 -2.249230 0.120620 0
M  V30 16 C 2.741019 -3.244142 0.202314 0
M  V30 17 C 1.501691 -2.986433 0.752498 0
M  V30 18 C 0.625286 -4.181377 0.749646 0
M  V30 19 O -0.729011 -3.914451 0.498744 0
M  V30 20 C -1.651237 -3.012919 1.064303 0
M  V30 21 C -2.964477 -3.430331 0.982197 0
M  V30 22 C -3.953151 -2.612181 1.511275 0
M  V30 23 N -5.324875 -2.977697 1.458262 0
M  V30 24 C -5.770078 -4.153004 0.794412 0
M  V30 25 C -6.439281 -5.207001 1.381644 0
M  V30 26 C -6.812835 -6.290243 0.587797 0
M  V30 27 C -6.531671 -6.337651 -0.769889 0
M  V30 28 F -6.926392 -7.428245 -1.483976 0
M  V30 29 C -5.859650 -5.277146 -1.355298 0
M  V30 30 C -5.479529 -4.183700 -0.567247 0
M  V30 31 F -4.825433 -3.200222 -1.264681 0
M  V30 32 C -3.567462 -1.422745 2.092063 0
M  V30 33 C -2.267128 -0.970552 2.193660 0
M  V30 34 C -1.312434 -1.811941 1.655937 0
M  V30 35 H 1.966100 0.201742 1.493812 0
M  V30 36 H 5.401646 -0.304280 0.039368 0
M  V30 37 H 4.125383 1.468031 1.902229 0
M  V30 38 H 5.406681 1.875959 0.755601 0
M  V30 39 H 3.873807 2.226746 -1.092293 0
M  V30 40 H 2.455169 1.791343 -0.149211 0
M  V30 41 H 5.407472 3.754830 0.019792 0
M  V30 42 H 4.627291 5.103564 0.990029 0
M  V30 43 H 4.361121 4.657165 -2.037734 0
M  V30 44 H 5.261948 5.934269 -1.183706 0
M  V30 45 H 1.270197 6.040827 -0.647446 0
M  V30 46 H 1.811387 4.855140 -1.834230 0
M  V30 47 H 1.824492 4.677375 1.149802 0
M  V30 48 H 1.279247 3.477036 -0.024254 0
M  V30 49 H 4.652408 -2.537952 -0.331843 0
M  V30 50 H 2.946965 -4.246836 -0.162123 0
M  V30 51 H 0.787538 -4.775382 1.666650 0
M  V30 52 H 0.989515 -4.815583 -0.098701 0
M  V30 53 H -3.187013 -4.361360 0.521803 0
M  V30 54 H -6.026721 -2.362756 1.921287 0
M  V30 55 H -6.636494 -5.129680 2.433496 0
M  V30 56 H -7.346198 -7.123195 1.072784 0
M  V30 57 H -5.637645 -5.315433 -2.429681 0
M  V30 58 H -4.334285 -0.757162 2.517894 0
M  V30 59 H -1.993683 -0.032347 2.654866 0
M  V30 END ATOM
M  V30 BEGIN BOND
M  V30 1 2 1 2
M  V30 2 1 2 3
M  V30 3 2 3 4
M  V30 4 1 4 5
M  V30 5 1 5 6
M  V30 6 1 6 7
M  V30 7 1 7 8
M  V30 8 1 8 9
M  V30 9 1 9 10
M  V30 10 1 10 11
M  V30 11 1 11 12
M  V30 12 1 12 13
M  V30 13 1 13 14
M  V30 14 2 5 15
M  V30 15 1 15 16
M  V30 16 2 16 17
M  V30 17 1 17 18
M  V30 18 1 18 19
M  V30 19 1 19 20
M  V30 20 2 20 21
M  V30 21 1 21 22
M  V30 22 1 22 23
M  V30 23 1 23 24
M  V30 24 2 24 25
M  V30 25 1 25 26
M  V30 26 2 26 27
M  V30 27 1 27 28
M  V30 28 1 27 29
M  V30 29 2 29 30
M  V30 30 1 30 31
M  V30 31 2 22 32
M  V30 32 1 32 33
M  V30 33 2 33 34
M  V30 34 1 34 2
M  V30 35 1 17 3
M  V30 36 1 34 20
M  V30 37 1 14 9
M  V30 38 1 30 24
M  V30 39 1 4 35
M  V30 40 1 6 36
M  V30 41 1 7 37
M  V30 42 1 7 38
M  V30 43 1 8 39
M  V30 44 1 8 40
M  V30 45 1 10 41
M  V30 46 1 10 42
M  V30 47 1 11 43
M  V30 48 1 11 44
M  V30 49 1 13 45
M  V30 50 1 13 46
M  V30 51 1 14 47
M  V30 52 1 14 48
M  V30 53 1 15 49
M  V30 54 1 16 50
M  V30 55 1 18 51
M  V30 56 1 18 52
M  V30 57 1 21 53
M  V30 58 1 23 54
M  V30 59 1 25 55
M  V30 60 1 26 56
M  V30 61 1 29 57
M  V30 62 1 32 58
M  V30 63 1 33 59
M  V30 END BOND
M  V30 END CTAB
M  END
>  <Dataset>  (289) 
ChEMBL_Kinases

>  <Ligand_Instance>  (289) 
nan

>  <PDB_ID>  (289) 
nan

>  <Standardized_SMILES>  (289) 
O=C1c2cc(NCCN3CCOCC3)ccc2COc2cc(Nc3ccc(F)cc3F)ccc21

>  <Name>  (289) 
nan

>  <Pocket>  (289) 
nan

>  <ATP_Site>  (289) 
nan

>  <Peripheral>  (289) 
nan

>  <Num_H_Atoms_ProtBoundConf>  (289) 
nan

>  <Num_Resolved_Atoms>  (289) 
nan

>  <Num_Not_Resolved_Atoms>  (289) 
nan

$$$$
CHEMBL3086674
     RDKit          3D

  0  0  0  0  0  0  0  0  0  0999 V3000
M  V30 BEGIN CTAB
M  V30 COUNTS 50 53 0 0 0
M  V30 BEGIN ATOM
M  V30 1 O 1.349437 -0.247731 -1.335163 0
M  V30 2 C 0.806291 -0.331672 -0.214010 0
M  V30 3 C 1.497441 0.194692 0.955736 0
M  V30 4 C 2.806208 0.429921 0.616463 0
M  V30 5 C 3.780960 0.927593 1.445241 0
M  V30 6 O 5.075317 1.251553 1.404171 0
M  V30 7 C 6.119921 1.291596 0.550564 0
M  V30 8 C 6.107240 2.206654 -0.625219 0 CFG=1
M  V30 9 O 7.326822 1.994669 -1.326218 0
M  V30 10 C 5.027827 2.013274 -1.627302 0
M  V30 11 O 5.247260 2.919875 -2.682894 0
M  V30 12 C 3.357784 1.209321 2.759206 0
M  V30 13 C 2.033258 0.992340 3.174635 0
M  V30 14 C 1.128632 0.484775 2.249179 0
M  V30 15 C -0.226221 0.302908 2.799037 0
M  V30 16 O -0.958717 -0.755792 2.271796 0
M  V30 17 C -1.345008 -1.168438 1.010149 0
M  V30 18 C -2.563517 -1.783977 0.907221 0
M  V30 19 C -2.941252 -2.192167 -0.352614 0
M  V30 20 N -4.197473 -2.837788 -0.511692 0
M  V30 21 C -5.144589 -3.164224 0.499473 0
M  V30 22 C -6.421787 -2.631843 0.445106 0
M  V30 23 C -7.342510 -2.948936 1.424684 0
M  V30 24 C -7.031562 -3.793004 2.476419 0
M  V30 25 F -7.944892 -4.090761 3.423781 0
M  V30 26 C -5.739409 -4.320252 2.514838 0
M  V30 27 C -4.813855 -4.010715 1.543466 0
M  V30 28 F -3.580368 -4.562498 1.647445 0
M  V30 29 C -2.187630 -2.024466 -1.492563 0
M  V30 30 C -0.949008 -1.395661 -1.370413 0
M  V30 31 C -0.527167 -0.965173 -0.106382 0
M  V30 32 H 3.200250 0.224284 -0.355149 0
M  V30 33 H 7.108074 1.485859 1.095827 0
M  V30 34 H 6.263295 0.247908 0.102006 0
M  V30 35 H 6.096451 3.278388 -0.301705 0
M  V30 36 H 7.435954 1.019737 -1.435476 0
M  V30 37 H 4.995668 0.999309 -2.045606 0
M  V30 38 H 4.021286 2.242522 -1.203627 0
M  V30 39 H 4.672533 2.680786 -3.465335 0
M  V30 40 H 3.902092 1.606924 3.626405 0
M  V30 41 H 1.607142 1.172697 4.150035 0
M  V30 42 H -0.186702 0.282713 3.919513 0
M  V30 43 H -0.773006 1.250841 2.572436 0
M  V30 44 H -3.145493 -1.908855 1.807622 0
M  V30 45 H -4.575561 -3.155243 -1.428932 0
M  V30 46 H -6.718124 -1.962423 -0.360990 0
M  V30 47 H -8.346387 -2.508675 1.350252 0
M  V30 48 H -5.544624 -4.982358 3.367517 0
M  V30 49 H -2.538132 -2.367063 -2.457543 0
M  V30 50 H -0.322627 -1.242864 -2.242125 0
M  V30 END ATOM
M  V30 BEGIN BOND
M  V30 1 2 1 2
M  V30 2 1 2 3
M  V30 3 2 3 4
M  V30 4 1 4 5
M  V30 5 1 5 6
M  V30 6 1 6 7
M  V30 7 1 7 8
M  V30 8 1 8 9
M  V30 9 1 8 10
M  V30 10 1 10 11
M  V30 11 2 5 12
M  V30 12 1 12 13
M  V30 13 2 13 14
M  V30 14 1 14 15
M  V30 15 1 15 16
M  V30 16 1 16 17
M  V30 17 2 17 18
M  V30 18 1 18 19
M  V30 19 1 19 20
M  V30 20 1 20 21
M  V30 21 2 21 22
M  V30 22 1 22 23
M  V30 23 2 23 24
M  V30 24 1 24 25
M  V30 25 1 24 26
M  V30 26 2 26 27
M  V30 27 1 27 28
M  V30 28 2 19 29
M  V30 29 1 29 30
M  V30 30 2 30 31
M  V30 31 1 31 2
M  V30 32 1 14 3
M  V30 33 1 31 17
M  V30 34 1 27 21
M  V30 35 1 4 32
M  V30 36 1 7 33
M  V30 37 1 7 34
M  V30 38 1 8 35 CFG=1
M  V30 39 1 9 36
M  V30 40 1 10 37
M  V30 41 1 10 38
M  V30 42 1 11 39
M  V30 43 1 12 40
M  V30 44 1 13 41
M  V30 45 1 15 42
M  V30 46 1 15 43
M  V30 47 1 18 44
M  V30 48 1 20 45
M  V30 49 1 22 46
M  V30 50 1 23 47
M  V30 51 1 26 48
M  V30 52 1 29 49
M  V30 53 1 30 50
M  V30 END BOND
M  V30 END CTAB
M  END
>  <Dataset>  (290) 
ChEMBL_Kinases

>  <Ligand_Instance>  (290) 
nan

>  <PDB_ID>  (290) 
nan

>  <Standardized_SMILES>  (290) 
O=C1c2cc(OC[C@@H](O)CO)ccc2COc2cc(Nc3ccc(F)cc3F)ccc21

>  <Name>  (290) 
nan

>  <Pocket>  (290) 
nan

>  <ATP_Site>  (290) 
nan

>  <Peripheral>  (290) 
nan

>  <Num_H_Atoms_ProtBoundConf>  (290) 
nan

>  <Num_Resolved_Atoms>  (290) 
nan

>  <Num_Not_Resolved_Atoms>  (290) 
nan

$$$$
CHEMBL3091531
     RDKit          3D

  0  0  0  0  0  0  0  0  0  0999 V3000
M  V30 BEGIN CTAB
M  V30 COUNTS 46 49 0 0 0
M  V30 BEGIN ATOM
M  V30 1 C 1.912709 -3.967559 1.774717 0
M  V30 2 N 0.581151 -3.574043 1.398623 0
M  V30 3 C 0.277314 -2.277579 1.326315 0
M  V30 4 N 1.173238 -1.173215 1.580657 0
M  V30 5 C 1.495738 -0.658510 2.899269 0
M  V30 6 C 2.849007 -0.032586 2.947295 0
M  V30 7 O 3.113883 0.902585 1.965629 0
M  V30 8 C 2.054062 0.962837 1.093505 0 CFG=1
M  V30 9 C 2.111300 2.048268 0.105401 0
M  V30 10 C 1.900414 2.113215 -1.256258 0
M  V30 11 C 2.020879 3.310404 -1.931042 0
M  V30 12 C 2.356823 4.482239 -1.262740 0
M  V30 13 F 2.444322 5.611200 -2.044628 0
M  V30 14 C 2.574970 4.453103 0.100011 0
M  V30 15 C 2.446295 3.226107 0.756590 0
M  V30 16 C 1.862957 -0.404822 0.519363 0
M  V30 17 N -0.952325 -1.836245 0.980120 0
M  V30 18 C -1.975967 -2.654234 0.678869 0
M  V30 19 C -3.252002 -2.059736 0.318190 0
M  V30 20 C -3.330426 -0.678469 0.337049 0
M  V30 21 C -4.471747 0.021308 0.013556 0
M  V30 22 N -5.569720 -0.638994 -0.339397 0
M  V30 23 C -5.553080 -1.965059 -0.374636 0
M  V30 24 C -4.412243 -2.692511 -0.051804 0
M  V30 25 F -4.422058 -4.020913 -0.093184 0
M  V30 26 C -1.655356 -3.974405 0.757100 0
M  V30 27 C -0.405488 -4.441512 1.108269 0
M  V30 28 O -0.161607 -5.673241 1.163770 0
M  V30 29 H 2.604955 -4.094281 0.913170 0
M  V30 30 H 1.821812 -5.003255 2.220653 0
M  V30 31 H 2.389254 -3.368573 2.544625 0
M  V30 32 H 1.509367 -1.473145 3.685680 0
M  V30 33 H 0.679224 0.018720 3.294846 0
M  V30 34 H 3.030458 0.462931 3.938578 0
M  V30 35 H 3.609521 -0.861830 2.900112 0
M  V30 36 H 1.155145 1.194322 1.733693 0
M  V30 37 H 1.645578 1.135807 -1.643748 0
M  V30 38 H 1.831555 3.229459 -2.990483 0
M  V30 39 H 2.830034 5.397788 0.540870 0
M  V30 40 H 2.652729 3.388582 1.828601 0
M  V30 41 H 2.782042 -0.940334 0.293984 0
M  V30 42 H 1.176457 -0.380734 -0.372961 0
M  V30 43 H -2.486887 -0.049630 0.612482 0
M  V30 44 H -4.502128 1.098916 0.041797 0
M  V30 45 H -6.446580 -2.515326 -0.660413 0
M  V30 46 H -2.407283 -4.693519 0.535807 0
M  V30 END ATOM
M  V30 BEGIN BOND
M  V30 1 1 1 2
M  V30 2 1 2 3
M  V30 3 1 3 4
M  V30 4 1 4 5
M  V30 5 1 5 6
M  V30 6 1 6 7
M  V30 7 1 7 8
M  V30 8 1 8 9
M  V30 9 2 9 10
M  V30 10 1 10 11
M  V30 11 2 11 12
M  V30 12 1 12 13
M  V30 13 1 12 14
M  V30 14 2 14 15
M  V30 15 1 8 16
M  V30 16 2 3 17
M  V30 17 1 17 18
M  V30 18 1 18 19
M  V30 19 2 19 20
M  V30 20 1 20 21
M  V30 21 2 21 22
M  V30 22 1 22 23
M  V30 23 2 23 24
M  V30 24 1 24 25
M  V30 25 2 18 26
M  V30 26 1 26 27
M  V30 27 2 27 28
M  V30 28 1 27 2
M  V30 29 1 16 4
M  V30 30 1 24 19
M  V30 31 1 15 9
M  V30 32 1 1 29
M  V30 33 1 1 30
M  V30 34 1 1 31
M  V30 35 1 5 32
M  V30 36 1 5 33
M  V30 37 1 6 34
M  V30 38 1 6 35
M  V30 39 1 8 36 CFG=1
M  V30 40 1 10 37
M  V30 41 1 11 38
M  V30 42 1 14 39
M  V30 43 1 15 40
M  V30 44 1 16 41
M  V30 45 1 16 42
M  V30 46 1 20 43
M  V30 47 1 21 44
M  V30 48 1 23 45
M  V30 49 1 26 46
M  V30 END BOND
M  V30 END CTAB
M  END
>  <Dataset>  (291) 
ChEMBL_Kinases

>  <Ligand_Instance>  (291) 
nan

>  <PDB_ID>  (291) 
nan

>  <Standardized_SMILES>  (291) 
Cn1c(N2CCO[C@@H](c3ccc(F)cc3)C2)nc(-c2ccncc2F)cc1=O

>  <Name>  (291) 
nan

>  <Pocket>  (291) 
nan

>  <ATP_Site>  (291) 
nan

>  <Peripheral>  (291) 
nan

>  <Num_H_Atoms_ProtBoundConf>  (291) 
nan

>  <Num_Resolved_Atoms>  (291) 
nan

>  <Num_Not_Resolved_Atoms>  (291) 
nan

$$$$
CHEMBL3091530
     RDKit          3D

  0  0  0  0  0  0  0  0  0  0999 V3000
M  V30 BEGIN CTAB
M  V30 COUNTS 46 49 0 0 0
M  V30 BEGIN ATOM
M  V30 1 C 1.414891 -3.874108 2.692636 0
M  V30 2 N 0.289968 -3.234365 2.032576 0
M  V30 3 C 0.286189 -1.976916 1.555873 0
M  V30 4 N 1.496239 -1.203580 1.691055 0
M  V30 5 C 1.859448 -0.465213 2.887253 0
M  V30 6 C 2.569337 0.807592 2.495621 0
M  V30 7 O 3.696989 0.433274 1.744740 0
M  V30 8 C 3.225354 0.056777 0.489998 0 CFG=2
M  V30 9 C 2.470300 1.208051 -0.045015 0
M  V30 10 C 1.193727 1.268158 -0.614195 0
M  V30 11 C 0.707021 2.483516 -1.045736 0
M  V30 12 C 1.419790 3.656820 -0.945012 0
M  V30 13 F 0.732759 4.712925 -1.435366 0
M  V30 14 C 2.678229 3.602321 -0.384874 0
M  V30 15 C 3.175073 2.391942 0.050194 0
M  V30 16 C 2.380746 -1.177689 0.544427 0
M  V30 17 N -0.784469 -1.425475 0.957878 0
M  V30 18 C -1.945751 -2.093209 0.786851 0
M  V30 19 C -3.065670 -1.427527 0.124813 0
M  V30 20 C -4.303148 -2.061098 -0.089311 0
M  V30 21 C -5.306377 -1.380253 -0.716646 0
M  V30 22 N -5.145793 -0.115806 -1.138107 0
M  V30 23 C -3.980288 0.506350 -0.945949 0
M  V30 24 C -2.899599 -0.109405 -0.314834 0
M  V30 25 C -2.007740 -3.384234 1.252387 0
M  V30 26 C -0.874107 -3.885983 1.854895 0
M  V30 27 O -0.898153 -5.086151 2.298577 0
M  V30 28 H 2.334141 -3.282498 2.574886 0
M  V30 29 H 1.134990 -4.001374 3.769040 0
M  V30 30 H 1.544162 -4.906897 2.310758 0
M  V30 31 H 2.506024 -1.058381 3.583318 0
M  V30 32 H 0.965379 -0.158200 3.469497 0
M  V30 33 H 2.858448 1.403800 3.384754 0
M  V30 34 H 1.871998 1.403978 1.884430 0
M  V30 35 H 4.086962 -0.102144 -0.183124 0
M  V30 36 H 0.711976 0.304195 -0.651298 0
M  V30 37 H -0.282336 2.378736 -1.457892 0
M  V30 38 H 3.170784 4.560737 -0.342745 0
M  V30 39 H 4.182912 2.517735 0.466774 0
M  V30 40 H 1.797791 -1.372909 -0.369621 0
M  V30 41 H 3.063881 -2.070046 0.649649 0
M  V30 42 H -4.456089 -3.076907 0.239916 0
M  V30 43 H -6.279708 -1.820157 -0.907849 0
M  V30 44 H -3.854402 1.538375 -1.292740 0
M  V30 45 H -1.953919 0.438736 -0.175058 0
M  V30 46 H -2.899664 -3.969960 1.150475 0
M  V30 END ATOM
M  V30 BEGIN BOND
M  V30 1 1 1 2
M  V30 2 1 2 3
M  V30 3 1 3 4
M  V30 4 1 4 5
M  V30 5 1 5 6
M  V30 6 1 6 7
M  V30 7 1 7 8
M  V30 8 1 8 9
M  V30 9 2 9 10
M  V30 10 1 10 11
M  V30 11 2 11 12
M  V30 12 1 12 13
M  V30 13 1 12 14
M  V30 14 2 14 15
M  V30 15 1 8 16
M  V30 16 2 3 17
M  V30 17 1 17 18
M  V30 18 1 18 19
M  V30 19 2 19 20
M  V30 20 1 20 21
M  V30 21 2 21 22
M  V30 22 1 22 23
M  V30 23 2 23 24
M  V30 24 2 18 25
M  V30 25 1 25 26
M  V30 26 2 26 27
M  V30 27 1 26 2
M  V30 28 1 16 4
M  V30 29 1 24 19
M  V30 30 1 15 9
M  V30 31 1 1 28
M  V30 32 1 1 29
M  V30 33 1 1 30
M  V30 34 1 5 31
M  V30 35 1 5 32
M  V30 36 1 6 33
M  V30 37 1 6 34
M  V30 38 1 8 35 CFG=3
M  V30 39 1 10 36
M  V30 40 1 11 37
M  V30 41 1 14 38
M  V30 42 1 15 39
M  V30 43 1 16 40
M  V30 44 1 16 41
M  V30 45 1 20 42
M  V30 46 1 21 43
M  V30 47 1 23 44
M  V30 48 1 24 45
M  V30 49 1 25 46
M  V30 END BOND
M  V30 END CTAB
M  END
>  <Dataset>  (292) 
ChEMBL_Kinases

>  <Ligand_Instance>  (292) 
nan

>  <PDB_ID>  (292) 
nan

>  <Standardized_SMILES>  (292) 
Cn1c(N2CCO[C@H](c3ccc(F)cc3)C2)nc(-c2ccncc2)cc1=O

>  <Name>  (292) 
nan

>  <Pocket>  (292) 
nan

>  <ATP_Site>  (292) 
nan

>  <Peripheral>  (292) 
nan

>  <Num_H_Atoms_ProtBoundConf>  (292) 
nan

>  <Num_Resolved_Atoms>  (292) 
nan

>  <Num_Not_Resolved_Atoms>  (292) 
nan

$$$$
CHEMBL3091529
     RDKit          3D

  0  0  0  0  0  0  0  0  0  0999 V3000
M  V30 BEGIN CTAB
M  V30 COUNTS 46 49 0 0 0
M  V30 BEGIN ATOM
M  V30 1 C 1.336200 -3.622834 2.044520 0
M  V30 2 N 0.066851 -3.186653 1.529571 0
M  V30 3 C -0.046963 -1.963992 1.027729 0
M  V30 4 N 0.966369 -0.979829 0.896857 0
M  V30 5 C 0.550960 0.331651 0.376783 0
M  V30 6 C 1.360031 0.776874 -0.788197 0
M  V30 7 O 2.591383 0.158967 -0.887375 0
M  V30 8 C 3.111968 0.100359 0.389831 0 CFG=1
M  V30 9 C 3.216762 1.405389 1.061802 0
M  V30 10 C 3.735458 2.363154 0.177638 0
M  V30 11 C 3.945177 3.674779 0.548645 0
M  V30 12 C 3.648640 4.114947 1.833654 0
M  V30 13 F 3.796496 5.348382 2.337198 0
M  V30 14 C 3.140021 3.167231 2.693597 0
M  V30 15 C 2.926266 1.853403 2.332864 0
M  V30 16 C 2.354009 -0.952156 1.146082 0
M  V30 17 N -1.283137 -1.664838 0.586124 0
M  V30 18 C -2.344554 -2.477388 0.618971 0
M  V30 19 C -3.612883 -1.986832 0.092694 0
M  V30 20 C -3.710055 -0.712877 -0.427711 0
M  V30 21 C -4.859427 -0.158028 -0.946894 0
M  V30 22 N -5.976747 -0.908011 -0.950877 0
M  V30 23 C -5.896056 -2.152316 -0.446361 0
M  V30 24 C -4.765150 -2.739801 0.080630 0
M  V30 25 C -2.172575 -3.719666 1.143204 0
M  V30 26 C -0.932932 -4.083038 1.610897 0
M  V30 27 O -0.756563 -5.228242 2.098755 0
M  V30 28 H 1.914705 -4.049731 1.207574 0
M  V30 29 H 1.847137 -2.932596 2.709750 0
M  V30 30 H 1.200989 -4.539276 2.714791 0
M  V30 31 H 0.430632 1.086277 1.176933 0
M  V30 32 H -0.508689 0.270046 -0.033813 0
M  V30 33 H 0.861023 0.596348 -1.787108 0
M  V30 34 H 1.520838 1.870944 -0.734275 0
M  V30 35 H 4.182272 -0.273858 0.307189 0
M  V30 36 H 4.026329 2.198967 -0.872554 0
M  V30 37 H 4.342327 4.440364 -0.105295 0
M  V30 38 H 2.858486 3.348156 3.727713 0
M  V30 39 H 2.533309 1.054013 2.943354 0
M  V30 40 H 2.831901 -1.931885 0.823243 0
M  V30 41 H 2.684581 -0.807160 2.193261 0
M  V30 42 H -2.842902 -0.057301 -0.452826 0
M  V30 43 H -4.869405 0.861581 -1.345443 0
M  V30 44 H -6.792594 -2.779638 -0.439576 0
M  V30 45 H -4.736630 -3.735669 0.474658 0
M  V30 46 H -2.985561 -4.424689 1.199692 0
M  V30 END ATOM
M  V30 BEGIN BOND
M  V30 1 1 1 2
M  V30 2 1 2 3
M  V30 3 1 3 4
M  V30 4 1 4 5
M  V30 5 1 5 6
M  V30 6 1 6 7
M  V30 7 1 7 8
M  V30 8 1 8 9
M  V30 9 2 9 10
M  V30 10 1 10 11
M  V30 11 2 11 12
M  V30 12 1 12 13
M  V30 13 1 12 14
M  V30 14 2 14 15
M  V30 15 1 8 16
M  V30 16 2 3 17
M  V30 17 1 17 18
M  V30 18 1 18 19
M  V30 19 2 19 20
M  V30 20 1 20 21
M  V30 21 2 21 22
M  V30 22 1 22 23
M  V30 23 2 23 24
M  V30 24 2 18 25
M  V30 25 1 25 26
M  V30 26 2 26 27
M  V30 27 1 26 2
M  V30 28 1 16 4
M  V30 29 1 24 19
M  V30 30 1 15 9
M  V30 31 1 1 28
M  V30 32 1 1 29
M  V30 33 1 1 30
M  V30 34 1 5 31
M  V30 35 1 5 32
M  V30 36 1 6 33
M  V30 37 1 6 34
M  V30 38 1 8 35 CFG=3
M  V30 39 1 10 36
M  V30 40 1 11 37
M  V30 41 1 14 38
M  V30 42 1 15 39
M  V30 43 1 16 40
M  V30 44 1 16 41
M  V30 45 1 20 42
M  V30 46 1 21 43
M  V30 47 1 23 44
M  V30 48 1 24 45
M  V30 49 1 25 46
M  V30 END BOND
M  V30 END CTAB
M  END
>  <Dataset>  (293) 
ChEMBL_Kinases

>  <Ligand_Instance>  (293) 
nan

>  <PDB_ID>  (293) 
nan

>  <Standardized_SMILES>  (293) 
Cn1c(N2CCO[C@@H](c3ccc(F)cc3)C2)nc(-c2ccncc2)cc1=O

>  <Name>  (293) 
nan

>  <Pocket>  (293) 
nan

>  <ATP_Site>  (293) 
nan

>  <Peripheral>  (293) 
nan

>  <Num_H_Atoms_ProtBoundConf>  (293) 
nan

>  <Num_Resolved_Atoms>  (293) 
nan

>  <Num_Not_Resolved_Atoms>  (293) 
nan

$$$$
CHEMBL3091464
     RDKit          3D

  0  0  0  0  0  0  0  0  0  0999 V3000
M  V30 BEGIN CTAB
M  V30 COUNTS 49 52 0 0 0
M  V30 BEGIN ATOM
M  V30 1 C -1.624644 -5.883500 3.395740 0
M  V30 2 O -0.597053 -5.250703 4.135952 0
M  V30 3 C 0.041350 -4.172410 3.536545 0
M  V30 4 C 1.042545 -3.554700 4.256066 0
M  V30 5 C 1.733345 -2.472170 3.737748 0
M  V30 6 C 1.408611 -2.017438 2.491379 0
M  V30 7 C 0.416640 -2.597390 1.728866 0
M  V30 8 C -0.073529 -2.261911 0.388335 0 CFG=1
M  V30 9 C 0.770635 -1.345879 -0.417458 0
M  V30 10 N -0.105093 -0.720188 -1.402347 0
M  V30 11 C -0.295343 0.689088 -1.294492 0
M  V30 12 N 0.283159 1.207017 -0.202620 0
M  V30 13 C 0.261986 2.508760 0.140130 0
M  V30 14 C 0.923091 2.971053 1.353048 0
M  V30 15 C 0.930865 4.287822 1.745734 0
M  V30 16 C 1.579016 4.645213 2.908342 0
M  V30 17 N 2.206083 3.729786 3.668932 0
M  V30 18 C 2.180496 2.443138 3.255786 0
M  V30 19 N 1.555266 2.072137 2.126915 0
M  V30 20 C -0.413791 3.324222 -0.724011 0
M  V30 21 C -1.012280 2.834528 -1.840997 0
M  V30 22 O -1.635723 3.583935 -2.639186 0
M  V30 23 N -0.937329 1.528953 -2.097639 0
M  V30 24 C -1.544993 0.976646 -3.278147 0
M  V30 25 C -0.537999 -1.810903 -2.224552 0
M  V30 26 C -1.028296 -3.022811 -1.461231 0
M  V30 27 O -0.243587 -3.413674 -0.412847 0
M  V30 28 C -0.267581 -3.684274 2.265099 0
M  V30 29 H -2.431714 -5.179142 3.109839 0
M  V30 30 H -1.141021 -6.219888 2.438300 0
M  V30 31 H -2.015258 -6.791070 3.884388 0
M  V30 32 H 1.314558 -3.907147 5.256190 0
M  V30 33 H 2.523017 -1.972778 4.286602 0
M  V30 34 H 1.883188 -1.195078 2.013294 0
M  V30 35 H -1.100413 -1.818050 0.472196 0
M  V30 36 H 1.577327 -1.888668 -0.979915 0
M  V30 37 H 1.262144 -0.548387 0.189872 0
M  V30 38 H 0.424662 4.999542 1.124230 0
M  V30 39 H 1.536553 5.698961 3.142401 0
M  V30 40 H 2.710055 1.766124 3.925703 0
M  V30 41 H -0.493677 4.366667 -0.551569 0
M  V30 42 H -0.801918 0.431557 -3.906608 0
M  V30 43 H -2.484418 0.426018 -3.100643 0
M  V30 44 H -1.884726 1.869944 -3.896858 0
M  V30 45 H -1.348513 -1.588181 -2.942274 0
M  V30 46 H 0.303416 -2.182912 -2.889264 0
M  V30 47 H -1.118115 -3.840259 -2.213740 0
M  V30 48 H -2.067130 -2.874514 -1.058686 0
M  V30 49 H -1.070961 -4.254537 1.803052 0
M  V30 END ATOM
M  V30 BEGIN BOND
M  V30 1 1 1 2
M  V30 2 1 2 3
M  V30 3 2 3 4
M  V30 4 1 4 5
M  V30 5 2 5 6
M  V30 6 1 6 7
M  V30 7 1 7 8
M  V30 8 1 8 9
M  V30 9 1 9 10
M  V30 10 1 10 11
M  V30 11 2 11 12
M  V30 12 1 12 13
M  V30 13 1 13 14
M  V30 14 2 14 15
M  V30 15 1 15 16
M  V30 16 2 16 17
M  V30 17 1 17 18
M  V30 18 2 18 19
M  V30 19 2 13 20
M  V30 20 1 20 21
M  V30 21 2 21 22
M  V30 22 1 21 23
M  V30 23 1 23 24
M  V30 24 1 10 25
M  V30 25 1 25 26
M  V30 26 1 26 27
M  V30 27 2 7 28
M  V30 28 1 28 3
M  V30 29 1 27 8
M  V30 30 1 23 11
M  V30 31 1 19 14
M  V30 32 1 1 29
M  V30 33 1 1 30
M  V30 34 1 1 31
M  V30 35 1 4 32
M  V30 36 1 5 33
M  V30 37 1 6 34
M  V30 38 1 8 35 CFG=1
M  V30 39 1 9 36
M  V30 40 1 9 37
M  V30 41 1 15 38
M  V30 42 1 16 39
M  V30 43 1 18 40
M  V30 44 1 20 41
M  V30 45 1 24 42
M  V30 46 1 24 43
M  V30 47 1 24 44
M  V30 48 1 25 45
M  V30 49 1 25 46
M  V30 50 1 26 47
M  V30 51 1 26 48
M  V30 52 1 28 49
M  V30 END BOND
M  V30 END CTAB
M  END
>  <Dataset>  (294) 
ChEMBL_Kinases

>  <Ligand_Instance>  (294) 
nan

>  <PDB_ID>  (294) 
nan

>  <Standardized_SMILES>  (294) 
COc1cccc([C@H]2CN(c3nc(-c4ccncn4)cc(=O)n3C)CCO2)c1

>  <Name>  (294) 
nan

>  <Pocket>  (294) 
nan

>  <ATP_Site>  (294) 
nan

>  <Peripheral>  (294) 
nan

>  <Num_H_Atoms_ProtBoundConf>  (294) 
nan

>  <Num_Resolved_Atoms>  (294) 
nan

>  <Num_Not_Resolved_Atoms>  (294) 
nan

$$$$
CHEMBL308939
     RDKit          3D

  0  0  0  0  0  0  0  0  0  0999 V3000
M  V30 BEGIN CTAB
M  V30 COUNTS 63 67 0 0 0
M  V30 BEGIN ATOM
M  V30 1 C 3.462641 -3.121633 4.153245 0
M  V30 2 C 2.329671 -2.100883 4.101825 0 CFG=2
M  V30 3 N 1.768490 -2.068698 2.752298 0
M  V30 4 C 0.683713 -1.193381 2.437500 0
M  V30 5 N 0.171809 -0.399839 3.412464 0
M  V30 6 C -0.861739 0.424512 3.073776 0
M  V30 7 C -1.354113 0.436660 1.783417 0
M  V30 8 C -0.817331 -0.382605 0.798604 0
M  V30 9 C -1.257685 -0.440304 -0.590805 0
M  V30 10 N -1.166276 0.561222 -1.471571 0
M  V30 11 C -1.640334 0.245786 -2.678272 0
M  V30 12 C -1.785693 0.972033 -3.980484 0
M  V30 13 C -0.573980 1.739295 -4.349662 0
M  V30 14 C -0.478293 3.137195 -3.845713 0
M  V30 15 N -1.743178 3.827586 -4.119399 0
M  V30 16 C -2.717959 3.130257 -3.268726 0
M  V30 17 C -3.026517 1.829180 -3.949001 0
M  V30 18 N -2.053288 -1.042100 -2.532130 0
M  V30 19 C -1.834550 -1.481200 -1.282880 0
M  V30 20 C -2.146634 -2.802482 -0.755658 0
M  V30 21 C -3.525986 -3.021202 -0.791975 0
M  V30 22 C -4.078577 -4.216505 -0.340016 0
M  V30 23 C -3.233471 -5.189940 0.148670 0
M  V30 24 C -1.880117 -4.952469 0.174591 0
M  V30 25 C -0.948300 -5.984357 0.696737 0
M  V30 26 F -1.417686 -7.223162 0.302061 0
M  V30 27 F 0.353132 -5.754881 0.287670 0
M  V30 28 F -1.051168 -5.938435 2.083734 0
M  V30 29 C -1.311053 -3.777226 -0.267540 0
M  V30 30 N 0.206566 -1.183652 1.181179 0
M  V30 31 C 2.918507 -0.745782 4.310646 0
M  V30 32 C 3.665307 -0.235736 3.244144 0
M  V30 33 C 4.292240 1.006570 3.253789 0
M  V30 34 C 4.144777 1.752098 4.404405 0
M  V30 35 C 3.415529 1.284995 5.479885 0
M  V30 36 C 2.798335 0.035300 5.440913 0
M  V30 37 H 3.728983 -3.384917 3.119997 0
M  V30 38 H 3.023137 -3.993946 4.717026 0
M  V30 39 H 4.301710 -2.663348 4.700682 0
M  V30 40 H 1.558819 -2.285841 4.852812 0
M  V30 41 H 2.170246 -2.690827 2.030133 0
M  V30 42 H -1.335792 1.097694 3.794817 0
M  V30 43 H -2.157637 1.062906 1.477525 0
M  V30 44 H -0.763253 1.484670 -1.242818 0
M  V30 45 H -1.951313 0.220732 -4.808856 0
M  V30 46 H 0.338441 1.193234 -3.966402 0
M  V30 47 H -0.505340 1.792297 -5.469380 0
M  V30 48 H 0.263406 3.673298 -4.499236 0
M  V30 49 H -0.224766 3.226053 -2.784123 0
M  V30 50 H -1.683863 4.836601 -3.879676 0
M  V30 51 H -2.309865 2.921941 -2.261958 0
M  V30 52 H -3.628795 3.761649 -3.137530 0
M  V30 53 H -3.354874 1.987358 -5.008112 0
M  V30 54 H -3.862824 1.305434 -3.430950 0
M  V30 55 H -4.294478 -2.332045 -1.153911 0
M  V30 56 H -5.142598 -4.426807 -0.350391 0
M  V30 57 H -3.651243 -6.117255 0.500071 0
M  V30 58 H -0.277156 -3.504632 -0.287299 0
M  V30 59 H 3.784656 -0.823498 2.329871 0
M  V30 60 H 4.853157 1.363103 2.421772 0
M  V30 61 H 4.622144 2.739506 4.458175 0
M  V30 62 H 3.318234 1.882771 6.358208 0
M  V30 63 H 2.218614 -0.384918 6.242130 0
M  V30 END ATOM
M  V30 BEGIN BOND
M  V30 1 1 1 2
M  V30 2 1 2 3
M  V30 3 1 3 4
M  V30 4 2 4 5
M  V30 5 1 5 6
M  V30 6 2 6 7
M  V30 7 1 7 8
M  V30 8 1 8 9
M  V30 9 1 9 10
M  V30 10 1 10 11
M  V30 11 1 11 12
M  V30 12 1 12 13
M  V30 13 1 13 14
M  V30 14 1 14 15
M  V30 15 1 15 16
M  V30 16 1 16 17
M  V30 17 2 11 18
M  V30 18 1 18 19
M  V30 19 1 19 20
M  V30 20 2 20 21
M  V30 21 1 21 22
M  V30 22 2 22 23
M  V30 23 1 23 24
M  V30 24 1 24 25
M  V30 25 1 25 26
M  V30 26 1 25 27
M  V30 27 1 25 28
M  V30 28 2 24 29
M  V30 29 2 8 30
M  V30 30 1 2 31
M  V30 31 2 31 32
M  V30 32 1 32 33
M  V30 33 2 33 34
M  V30 34 1 34 35
M  V30 35 2 35 36
M  V30 36 1 30 4
M  V30 37 1 36 31
M  V30 38 2 19 9
M  V30 39 1 29 20
M  V30 40 1 17 12
M  V30 41 1 1 37
M  V30 42 1 1 38
M  V30 43 1 1 39
M  V30 44 1 2 40 CFG=1
M  V30 45 1 3 41
M  V30 46 1 6 42
M  V30 47 1 7 43
M  V30 48 1 10 44
M  V30 49 1 12 45
M  V30 50 1 13 46
M  V30 51 1 13 47
M  V30 52 1 14 48
M  V30 53 1 14 49
M  V30 54 1 15 50
M  V30 55 1 16 51
M  V30 56 1 16 52
M  V30 57 1 17 53
M  V30 58 1 17 54
M  V30 59 1 21 55
M  V30 60 1 22 56
M  V30 61 1 23 57
M  V30 62 1 29 58
M  V30 63 1 32 59
M  V30 64 1 33 60
M  V30 65 1 34 61
M  V30 66 1 35 62
M  V30 67 1 36 63
M  V30 END BOND
M  V30 END CTAB
M  END
>  <Dataset>  (295) 
ChEMBL_Kinases

>  <Ligand_Instance>  (295) 
nan

>  <PDB_ID>  (295) 
nan

>  <Standardized_SMILES>  (295) 
C[C@H](Nc1nccc(-c2[nH]c(C3CCNCC3)nc2-c2cccc(C(F)(F)F)c2)n1)c1ccccc1

>  <Name>  (295) 
nan

>  <Pocket>  (295) 
nan

>  <ATP_Site>  (295) 
nan

>  <Peripheral>  (295) 
nan

>  <Num_H_Atoms_ProtBoundConf>  (295) 
nan

>  <Num_Resolved_Atoms>  (295) 
nan

>  <Num_Not_Resolved_Atoms>  (295) 
nan

$$$$
CHEMBL3087817
     RDKit          3D

  0  0  0  0  0  0  0  0  0  0999 V3000
M  V30 BEGIN CTAB
M  V30 COUNTS 52 56 0 0 0
M  V30 BEGIN ATOM
M  V30 1 C 4.289817 3.142113 3.394034 0
M  V30 2 C 3.621231 1.818280 3.483696 0
M  V30 3 N 3.348599 1.131978 4.608836 0
M  V30 4 N 2.747634 -0.013853 4.361278 0
M  V30 5 C 2.291038 -1.034298 5.286543 0
M  V30 6 C 2.629573 -0.065411 3.022884 0
M  V30 7 C 3.162526 1.060076 2.429844 0
M  V30 8 C 3.203917 1.333625 1.000915 0
M  V30 9 N 2.725021 0.522418 0.041377 0
M  V30 10 C 2.904985 1.040201 -1.182056 0
M  V30 11 C 2.553288 0.514405 -2.407488 0
M  V30 12 O 1.929160 -0.682178 -2.621319 0
M  V30 13 C 0.705461 -1.082478 -2.163388 0
M  V30 14 C 0.622256 -1.730463 -0.938592 0
M  V30 15 C -0.573864 -2.163975 -0.409764 0
M  V30 16 C -1.759564 -1.968778 -1.087210 0
M  V30 17 C -3.095734 -2.368332 -0.659443 0
M  V30 18 O -4.164290 -2.178709 -1.296116 0
M  V30 19 N -3.280192 -3.038619 0.582098 0
M  V30 20 C -4.645861 -3.371928 0.875020 0
M  V30 21 C -5.396844 -2.443059 1.565977 0
M  V30 22 C -6.714569 -2.738396 1.861121 0
M  V30 23 C -7.264088 -3.958185 1.461716 0
M  V30 24 C -6.489420 -4.847950 0.781559 0
M  V30 25 C -5.163670 -4.597740 0.462257 0
M  V30 26 C -1.703388 -1.318476 -2.323346 0
M  V30 27 C -0.484233 -0.882044 -2.851923 0
M  V30 28 C 2.860178 1.266464 -3.520437 0
M  V30 29 C 3.498993 2.493133 -3.315813 0
M  V30 30 N 3.832766 2.984059 -2.092716 0
M  V30 31 C 3.534617 2.252066 -1.001462 0
M  V30 32 N 3.693732 2.384746 0.335353 0
M  V30 33 H 4.588261 3.454401 4.426914 0
M  V30 34 H 3.614092 3.907166 2.950192 0
M  V30 35 H 5.246749 3.039966 2.837101 0
M  V30 36 H 1.167682 -1.057960 5.283736 0
M  V30 37 H 2.565330 -2.066609 4.920453 0
M  V30 38 H 2.731902 -0.942744 6.277373 0
M  V30 39 H 2.175987 -0.878762 2.453457 0
M  V30 40 H 1.457342 -1.951766 -0.300287 0
M  V30 41 H -0.677124 -2.670138 0.537205 0
M  V30 42 H -2.501363 -3.270755 1.226660 0
M  V30 43 H -4.953056 -1.509616 1.863924 0
M  V30 44 H -7.261782 -1.980795 2.403075 0
M  V30 45 H -8.285750 -4.168984 1.699214 0
M  V30 46 H -6.918056 -5.784731 0.477003 0
M  V30 47 H -4.550083 -5.312506 -0.081251 0
M  V30 48 H -2.587056 -1.134837 -2.901628 0
M  V30 49 H -0.435488 -0.378273 -3.808203 0
M  V30 50 H 2.649527 0.990207 -4.542213 0
M  V30 51 H 3.774677 3.146366 -4.149320 0
M  V30 52 H 4.143472 3.215135 0.726849 0
M  V30 END ATOM
M  V30 BEGIN BOND
M  V30 1 1 1 2
M  V30 2 2 2 3
M  V30 3 1 3 4
M  V30 4 1 4 5
M  V30 5 1 4 6
M  V30 6 2 6 7
M  V30 7 1 7 8
M  V30 8 2 8 9
M  V30 9 1 9 10
M  V30 10 2 10 11
M  V30 11 1 11 12
M  V30 12 1 12 13
M  V30 13 2 13 14
M  V30 14 1 14 15
M  V30 15 2 15 16
M  V30 16 1 16 17
M  V30 17 2 17 18
M  V30 18 1 17 19
M  V30 19 1 19 20
M  V30 20 2 20 21
M  V30 21 1 21 22
M  V30 22 2 22 23
M  V30 23 1 23 24
M  V30 24 2 24 25
M  V30 25 1 16 26
M  V30 26 2 26 27
M  V30 27 1 11 28
M  V30 28 2 28 29
M  V30 29 1 29 30
M  V30 30 2 30 31
M  V30 31 1 31 32
M  V30 32 1 7 2
M  V30 33 1 32 8
M  V30 34 1 31 10
M  V30 35 1 27 13
M  V30 36 1 25 20
M  V30 37 1 1 33
M  V30 38 1 1 34
M  V30 39 1 1 35
M  V30 40 1 5 36
M  V30 41 1 5 37
M  V30 42 1 5 38
M  V30 43 1 6 39
M  V30 44 1 14 40
M  V30 45 1 15 41
M  V30 46 1 19 42
M  V30 47 1 21 43
M  V30 48 1 22 44
M  V30 49 1 23 45
M  V30 50 1 24 46
M  V30 51 1 25 47
M  V30 52 1 26 48
M  V30 53 1 27 49
M  V30 54 1 28 50
M  V30 55 1 29 51
M  V30 56 1 32 52
M  V30 END BOND
M  V30 END CTAB
M  END
>  <Dataset>  (296) 
ChEMBL_Kinases

>  <Ligand_Instance>  (296) 
nan

>  <PDB_ID>  (296) 
nan

>  <Standardized_SMILES>  (296) 
Cc1nn(C)cc1-c1nc2c(Oc3ccc(C(=O)Nc4ccccc4)cc3)ccnc2[nH]1

>  <Name>  (296) 
nan

>  <Pocket>  (296) 
nan

>  <ATP_Site>  (296) 
nan

>  <Peripheral>  (296) 
nan

>  <Num_H_Atoms_ProtBoundConf>  (296) 
nan

>  <Num_Resolved_Atoms>  (296) 
nan

>  <Num_Not_Resolved_Atoms>  (296) 
nan

$$$$
CHEMBL3087784
     RDKit          3D

  0  0  0  0  0  0  0  0  0  0999 V3000
M  V30 BEGIN CTAB
M  V30 COUNTS 52 56 0 0 0
M  V30 BEGIN ATOM
M  V30 1 C 5.736400 -3.851740 -1.646428 0
M  V30 2 C 5.208001 -3.498169 -0.307836 0
M  V30 3 N 5.439574 -4.153434 0.867328 0
M  V30 4 N 4.827123 -3.586653 1.866093 0
M  V30 5 C 4.856463 -4.021154 3.252652 0
M  V30 6 C 4.174716 -2.537088 1.360145 0
M  V30 7 C 4.394436 -2.456309 0.001354 0
M  V30 8 C 3.833382 -1.430444 -0.867804 0
M  V30 9 N 3.028187 -0.413813 -0.510746 0
M  V30 10 C 2.686903 0.354450 -1.547378 0
M  V30 11 C 1.875924 1.493747 -1.593999 0
M  V30 12 O 1.291537 1.974175 -0.428421 0
M  V30 13 C 0.043390 1.580776 0.037051 0
M  V30 14 C -0.318910 2.205230 1.225486 0
M  V30 15 C -1.540971 1.939673 1.851805 0
M  V30 16 C -2.366948 1.037047 1.243918 0
M  V30 17 C -3.638483 0.765747 1.902743 0
M  V30 18 O -3.905706 1.364769 2.976896 0
M  V30 19 N -4.637115 -0.134804 1.439627 0
M  V30 20 C -5.809311 -0.264979 2.218041 0
M  V30 21 C -6.979792 0.460694 2.123613 0
M  V30 22 C -8.042445 0.204820 2.969723 0
M  V30 23 C -7.953789 -0.782169 3.926369 0
M  V30 24 C -6.775050 -1.519138 4.027753 0
M  V30 25 C -5.707728 -1.260835 3.176597 0
M  V30 26 C -2.022351 0.410349 0.066842 0
M  V30 27 C -0.815874 0.678536 -0.542912 0
M  V30 28 C 1.724014 2.061713 -2.851257 0
M  V30 29 Cl 0.713687 3.491437 -2.945931 0
M  V30 30 C 2.343885 1.514546 -3.955332 0
M  V30 31 N 3.108880 0.414893 -3.823475 0
M  V30 32 C 3.297318 -0.183256 -2.638538 0
M  V30 33 N 3.978507 -1.255739 -2.192590 0
M  V30 34 H 6.380203 -4.772319 -1.526256 0
M  V30 35 H 6.442587 -3.095606 -2.059583 0
M  V30 36 H 4.954484 -4.171206 -2.366948 0
M  V30 37 H 4.401522 -5.020988 3.386389 0
M  V30 38 H 4.265577 -3.318366 3.887434 0
M  V30 39 H 5.898973 -3.963809 3.673918 0
M  V30 40 H 3.555016 -1.843342 1.947244 0
M  V30 41 H 0.318414 2.936300 1.743875 0
M  V30 42 H -1.789383 2.451130 2.785451 0
M  V30 43 H -4.439447 -0.643879 0.550963 0
M  V30 44 H -6.963312 1.213486 1.347622 0
M  V30 45 H -8.922977 0.803752 2.844671 0
M  V30 46 H -8.795927 -0.975313 4.587088 0
M  V30 47 H -6.742501 -2.283749 4.788760 0
M  V30 48 H -4.832626 -1.893802 3.339312 0
M  V30 49 H -2.675322 -0.304464 -0.415504 0
M  V30 50 H -0.467739 0.233837 -1.463364 0
M  V30 51 H 2.187172 2.005061 -4.916369 0
M  V30 52 H 4.541774 -1.856145 -2.832403 0
M  V30 END ATOM
M  V30 BEGIN BOND
M  V30 1 1 1 2
M  V30 2 2 2 3
M  V30 3 1 3 4
M  V30 4 1 4 5
M  V30 5 1 4 6
M  V30 6 2 6 7
M  V30 7 1 7 8
M  V30 8 2 8 9
M  V30 9 1 9 10
M  V30 10 2 10 11
M  V30 11 1 11 12
M  V30 12 1 12 13
M  V30 13 2 13 14
M  V30 14 1 14 15
M  V30 15 2 15 16
M  V30 16 1 16 17
M  V30 17 2 17 18
M  V30 18 1 17 19
M  V30 19 1 19 20
M  V30 20 2 20 21
M  V30 21 1 21 22
M  V30 22 2 22 23
M  V30 23 1 23 24
M  V30 24 2 24 25
M  V30 25 1 16 26
M  V30 26 2 26 27
M  V30 27 1 11 28
M  V30 28 1 28 29
M  V30 29 2 28 30
M  V30 30 1 30 31
M  V30 31 2 31 32
M  V30 32 1 32 33
M  V30 33 1 7 2
M  V30 34 1 33 8
M  V30 35 1 32 10
M  V30 36 1 27 13
M  V30 37 1 25 20
M  V30 38 1 1 34
M  V30 39 1 1 35
M  V30 40 1 1 36
M  V30 41 1 5 37
M  V30 42 1 5 38
M  V30 43 1 5 39
M  V30 44 1 6 40
M  V30 45 1 14 41
M  V30 46 1 15 42
M  V30 47 1 19 43
M  V30 48 1 21 44
M  V30 49 1 22 45
M  V30 50 1 23 46
M  V30 51 1 24 47
M  V30 52 1 25 48
M  V30 53 1 26 49
M  V30 54 1 27 50
M  V30 55 1 30 51
M  V30 56 1 33 52
M  V30 END BOND
M  V30 END CTAB
M  END
>  <Dataset>  (297) 
ChEMBL_Kinases

>  <Ligand_Instance>  (297) 
nan

>  <PDB_ID>  (297) 
nan

>  <Standardized_SMILES>  (297) 
Cc1nn(C)cc1-c1nc2c(Oc3ccc(C(=O)Nc4ccccc4)cc3)c(Cl)cnc2[nH]1

>  <Name>  (297) 
nan

>  <Pocket>  (297) 
nan

>  <ATP_Site>  (297) 
nan

>  <Peripheral>  (297) 
nan

>  <Num_H_Atoms_ProtBoundConf>  (297) 
nan

>  <Num_Resolved_Atoms>  (297) 
nan

>  <Num_Not_Resolved_Atoms>  (297) 
nan

$$$$
CHEMBL3087490
     RDKit          3D

  0  0  0  0  0  0  0  0  0  0999 V3000
M  V30 BEGIN CTAB
M  V30 COUNTS 59 63 0 0 0
M  V30 BEGIN ATOM
M  V30 1 O -0.924237 1.310801 5.139994 0
M  V30 2 C -0.554256 0.929435 4.011905 0
M  V30 3 C 0.869573 0.971421 3.681294 0
M  V30 4 C 1.577739 1.651704 4.644934 0
M  V30 5 C 2.943460 1.829658 4.562909 0
M  V30 6 C 3.563238 1.285789 3.456834 0
M  V30 7 N 4.970899 1.427028 3.300810 0
M  V30 8 C 5.854690 0.985374 2.275849 0
M  V30 9 C 6.921902 0.128291 2.448972 0
M  V30 10 C 7.719552 -0.232671 1.363260 0
M  V30 11 C 7.448092 0.265322 0.102619 0
M  V30 12 F 8.240293 -0.100746 -0.942486 0
M  V30 13 C 6.380141 1.118599 -0.051473 0
M  V30 14 C 5.576155 1.490931 1.005976 0
M  V30 15 F 4.580343 2.335677 0.650777 0
M  V30 16 C 2.874291 0.599552 2.477583 0
M  V30 17 C 1.507524 0.433524 2.580315 0
M  V30 18 O 0.890999 -0.268964 1.552799 0
M  V30 19 C -0.250837 -1.126972 1.557710 0
M  V30 20 C -1.471185 -0.418065 2.060072 0
M  V30 21 C -2.567510 -0.764110 1.293728 0
M  V30 22 O -2.437667 -1.648041 0.238635 0
M  V30 23 C -3.499214 -2.061889 -0.600870 0
M  V30 24 C -2.932687 -3.040737 -1.638348 0
M  V30 25 C -4.009377 -3.526935 -2.569275 0
M  V30 26 C -3.394056 -4.486605 -3.562021 0
M  V30 27 C -2.336251 -3.774033 -4.331362 0
M  V30 28 O -2.898648 -2.751435 -5.056349 0
M  V30 29 C -3.582089 -1.807138 -4.334320 0
M  V30 30 C -4.602709 -2.404044 -3.393656 0
M  V30 31 C -3.810939 -0.202932 1.606079 0
M  V30 32 C -3.918532 0.676863 2.662977 0
M  V30 33 C -2.842917 1.041795 3.446402 0
M  V30 34 C -1.615576 0.466509 3.111592 0
M  V30 35 H 1.049933 2.067801 5.506305 0
M  V30 36 H 3.469368 2.361617 5.324407 0
M  V30 37 H 5.532781 1.928690 4.016809 0
M  V30 38 H 7.100292 -0.238768 3.450544 0
M  V30 39 H 8.551906 -0.902197 1.502707 0
M  V30 40 H 6.232562 1.469255 -1.084375 0
M  V30 41 H 3.303196 0.152399 1.591442 0
M  V30 42 H -0.059441 -1.971610 2.260690 0
M  V30 43 H -0.406181 -1.464778 0.531891 0
M  V30 44 H -4.211729 -2.628070 0.022763 0
M  V30 45 H -3.982415 -1.201034 -1.063577 0
M  V30 46 H -2.522286 -3.901299 -1.098142 0
M  V30 47 H -2.165002 -2.461194 -2.174745 0
M  V30 48 H -4.839482 -4.007194 -2.009331 0
M  V30 49 H -4.178744 -4.786211 -4.291530 0
M  V30 50 H -3.048011 -5.422248 -3.082418 0
M  V30 51 H -1.430710 -3.499053 -3.753336 0
M  V30 52 H -1.953707 -4.512042 -5.093997 0
M  V30 53 H -2.950644 -1.111512 -3.744611 0
M  V30 54 H -4.157959 -1.191877 -5.066595 0
M  V30 55 H -5.010267 -1.589746 -2.774481 0
M  V30 56 H -5.467115 -2.848349 -3.956841 0
M  V30 57 H -4.709463 -0.451267 1.021672 0
M  V30 58 H -4.877450 1.135928 2.936375 0
M  V30 59 H -2.870770 1.724866 4.284057 0
M  V30 END ATOM
M  V30 BEGIN BOND
M  V30 1 2 1 2
M  V30 2 1 2 3
M  V30 3 2 3 4
M  V30 4 1 4 5
M  V30 5 2 5 6
M  V30 6 1 6 7
M  V30 7 1 7 8
M  V30 8 2 8 9
M  V30 9 1 9 10
M  V30 10 2 10 11
M  V30 11 1 11 12
M  V30 12 1 11 13
M  V30 13 2 13 14
M  V30 14 1 14 15
M  V30 15 1 6 16
M  V30 16 2 16 17
M  V30 17 1 17 18
M  V30 18 1 18 19
M  V30 19 1 19 20
M  V30 20 2 20 21
M  V30 21 1 21 22
M  V30 22 1 22 23
M  V30 23 1 23 24
M  V30 24 1 24 25
M  V30 25 1 25 26
M  V30 26 1 26 27
M  V30 27 1 27 28
M  V30 28 1 28 29
M  V30 29 1 29 30
M  V30 30 1 21 31
M  V30 31 2 31 32
M  V30 32 1 32 33
M  V30 33 2 33 34
M  V30 34 1 34 2
M  V30 35 1 17 3
M  V30 36 1 34 20
M  V30 37 1 14 8
M  V30 38 1 30 25
M  V30 39 1 4 35
M  V30 40 1 5 36
M  V30 41 1 7 37
M  V30 42 1 9 38
M  V30 43 1 10 39
M  V30 44 1 13 40
M  V30 45 1 16 41
M  V30 46 1 19 42
M  V30 47 1 19 43
M  V30 48 1 23 44
M  V30 49 1 23 45
M  V30 50 1 24 46
M  V30 51 1 24 47
M  V30 52 1 25 48
M  V30 53 1 26 49
M  V30 54 1 26 50
M  V30 55 1 27 51
M  V30 56 1 27 52
M  V30 57 1 29 53
M  V30 58 1 29 54
M  V30 59 1 30 55
M  V30 60 1 30 56
M  V30 61 1 31 57
M  V30 62 1 32 58
M  V30 63 1 33 59
M  V30 END BOND
M  V30 END CTAB
M  END
>  <Dataset>  (298) 
ChEMBL_Kinases

>  <Ligand_Instance>  (298) 
nan

>  <PDB_ID>  (298) 
nan

>  <Standardized_SMILES>  (298) 
O=C1c2ccc(Nc3ccc(F)cc3F)cc2OCc2c(OCCC3CCOCC3)cccc21

>  <Name>  (298) 
nan

>  <Pocket>  (298) 
nan

>  <ATP_Site>  (298) 
nan

>  <Peripheral>  (298) 
nan

>  <Num_H_Atoms_ProtBoundConf>  (298) 
nan

>  <Num_Resolved_Atoms>  (298) 
nan

>  <Num_Not_Resolved_Atoms>  (298) 
nan

$$$$
CHEMBL3087489
     RDKit          3D

  0  0  0  0  0  0  0  0  0  0999 V3000
M  V30 BEGIN CTAB
M  V30 COUNTS 60 64 0 0 0
M  V30 BEGIN ATOM
M  V30 1 N 4.601050 -0.362730 3.054325 0
M  V30 2 C 4.384447 0.445452 4.218259 0
M  V30 3 C 4.339458 -0.202307 5.439625 0
M  V30 4 C 4.137037 0.500148 6.627879 0
M  V30 5 F 4.098546 -0.166051 7.804647 0
M  V30 6 C 3.983623 1.869781 6.531965 0
M  V30 7 C 4.023779 2.552190 5.316697 0
M  V30 8 C 4.226717 1.831135 4.144477 0
M  V30 9 N 4.284715 2.448991 2.864654 0
M  V30 10 C 3.413877 2.206826 1.746912 0
M  V30 11 C 3.632760 2.797525 0.522046 0
M  V30 12 C 2.764184 2.535238 -0.516925 0
M  V30 13 C 1.688575 1.675780 -0.289156 0
M  V30 14 C 1.487105 1.086698 0.966129 0
M  V30 15 C 2.360578 1.354806 1.999451 0
M  V30 16 O 0.403518 0.233442 1.161764 0
M  V30 17 C -0.926637 0.287560 0.707200 0
M  V30 18 C -1.094236 -0.013112 -0.738913 0
M  V30 19 C -2.120941 -0.904961 -1.138528 0
M  V30 20 O -2.715244 -1.275249 -0.048328 0
M  V30 21 C -3.712806 -2.061403 0.377751 0
M  V30 22 C -3.644419 -3.546480 0.136763 0
M  V30 23 N -3.628727 -3.846854 -1.239847 0
M  V30 24 C -4.891209 -3.574005 -1.908701 0
M  V30 25 C -4.899387 -4.143919 -3.302378 0
M  V30 26 O -3.630071 -4.279411 -3.831930 0
M  V30 27 C -2.766368 -5.048036 -3.090309 0
M  V30 28 C -3.109213 -5.127566 -1.619092 0
M  V30 29 C -2.146367 -1.074758 -2.502675 0
M  V30 30 C -1.349099 -0.523106 -3.475233 0
M  V30 31 C -0.377655 0.330442 -3.007213 0
M  V30 32 C -0.216450 0.612480 -1.646452 0
M  V30 33 C 0.903078 1.545489 -1.540926 0
M  V30 34 O 1.197642 2.247908 -2.539325 0
M  V30 35 H 5.391005 -0.107703 2.397439 0
M  V30 36 H 4.154016 -1.196313 2.654352 0
M  V30 37 H 4.459528 -1.290594 5.533491 0
M  V30 38 H 3.826881 2.405150 7.472585 0
M  V30 39 H 3.900991 3.621295 5.272838 0
M  V30 40 H 5.037667 3.141535 2.741990 0
M  V30 41 H 4.465856 3.456926 0.363600 0
M  V30 42 H 2.914936 2.987612 -1.488947 0
M  V30 43 H 2.096683 0.850153 2.896311 0
M  V30 44 H -1.471573 -0.507699 1.261660 0
M  V30 45 H -1.435845 1.244660 0.943551 0
M  V30 46 H -3.912912 -1.873056 1.495624 0
M  V30 47 H -4.715117 -1.714057 -0.054476 0
M  V30 48 H -4.499352 -3.993341 0.697832 0
M  V30 49 H -2.705748 -3.983102 0.585548 0
M  V30 50 H -5.744589 -4.002929 -1.345550 0
M  V30 51 H -5.038023 -2.481704 -1.950226 0
M  V30 52 H -5.455411 -5.122767 -3.296245 0
M  V30 53 H -5.469029 -3.473937 -3.976901 0
M  V30 54 H -2.653934 -6.086646 -3.461878 0
M  V30 55 H -1.739169 -4.587718 -3.150456 0
M  V30 56 H -3.784937 -5.977414 -1.393498 0
M  V30 57 H -2.172530 -5.321052 -1.067859 0
M  V30 58 H -2.930110 -1.741477 -2.806828 0
M  V30 59 H -1.527943 -0.781732 -4.490128 0
M  V30 60 H 0.263479 0.779003 -3.753575 0
M  V30 END ATOM
M  V30 BEGIN BOND
M  V30 1 1 1 2
M  V30 2 2 2 3
M  V30 3 1 3 4
M  V30 4 1 4 5
M  V30 5 2 4 6
M  V30 6 1 6 7
M  V30 7 2 7 8
M  V30 8 1 8 9
M  V30 9 1 9 10
M  V30 10 2 10 11
M  V30 11 1 11 12
M  V30 12 2 12 13
M  V30 13 1 13 14
M  V30 14 2 14 15
M  V30 15 1 14 16
M  V30 16 1 16 17
M  V30 17 1 17 18
M  V30 18 2 18 19
M  V30 19 1 19 20
M  V30 20 1 20 21
M  V30 21 1 21 22
M  V30 22 1 22 23
M  V30 23 1 23 24
M  V30 24 1 24 25
M  V30 25 1 25 26
M  V30 26 1 26 27
M  V30 27 1 27 28
M  V30 28 1 19 29
M  V30 29 2 29 30
M  V30 30 1 30 31
M  V30 31 2 31 32
M  V30 32 1 32 33
M  V30 33 2 33 34
M  V30 34 1 8 2
M  V30 35 1 15 10
M  V30 36 1 32 18
M  V30 37 1 33 13
M  V30 38 1 28 23
M  V30 39 1 1 35
M  V30 40 1 1 36
M  V30 41 1 3 37
M  V30 42 1 6 38
M  V30 43 1 7 39
M  V30 44 1 9 40
M  V30 45 1 11 41
M  V30 46 1 12 42
M  V30 47 1 15 43
M  V30 48 1 17 44
M  V30 49 1 17 45
M  V30 50 1 21 46
M  V30 51 1 21 47
M  V30 52 1 22 48
M  V30 53 1 22 49
M  V30 54 1 24 50
M  V30 55 1 24 51
M  V30 56 1 25 52
M  V30 57 1 25 53
M  V30 58 1 27 54
M  V30 59 1 27 55
M  V30 60 1 28 56
M  V30 61 1 28 57
M  V30 62 1 29 58
M  V30 63 1 30 59
M  V30 64 1 31 60
M  V30 END BOND
M  V30 END CTAB
M  END
>  <Dataset>  (299) 
ChEMBL_Kinases

>  <Ligand_Instance>  (299) 
nan

>  <PDB_ID>  (299) 
nan

>  <Standardized_SMILES>  (299) 
Nc1cc(F)ccc1Nc1ccc2c(c1)OCc1c(OCCN3CCOCC3)cccc1C2=O

>  <Name>  (299) 
nan

>  <Pocket>  (299) 
nan

>  <ATP_Site>  (299) 
nan

>  <Peripheral>  (299) 
nan

>  <Num_H_Atoms_ProtBoundConf>  (299) 
nan

>  <Num_Resolved_Atoms>  (299) 
nan

>  <Num_Not_Resolved_Atoms>  (299) 
nan

$$$$
CHEMBL3087488
     RDKit          3D

  0  0  0  0  0  0  0  0  0  0999 V3000
M  V30 BEGIN CTAB
M  V30 COUNTS 58 62 0 0 0
M  V30 BEGIN ATOM
M  V30 1 O -0.734873 2.834773 -0.841320 0
M  V30 2 C -0.541996 1.723918 -0.263560 0
M  V30 3 C 0.680436 1.574280 0.561968 0
M  V30 4 C 1.514768 2.681763 0.381338 0
M  V30 5 C 2.721395 2.717887 1.082863 0
M  V30 6 C 3.044690 1.673333 1.919524 0
M  V30 7 N 4.257010 1.676961 2.656997 0
M  V30 8 C 5.175261 2.757696 2.706384 0
M  V30 9 C 6.499978 2.827126 2.335071 0
M  V30 10 C 7.205086 4.003178 2.483784 0
M  V30 11 C 6.601089 5.138283 3.007553 0
M  V30 12 F 7.273946 6.289015 3.158380 0
M  V30 13 C 5.255782 5.086830 3.390054 0
M  V30 14 C 4.548005 3.889919 3.236116 0
M  V30 15 F 3.250243 3.982938 3.648178 0
M  V30 16 C 2.239910 0.578034 2.111011 0
M  V30 17 C 1.044094 0.529960 1.423193 0
M  V30 18 O 0.208649 -0.575627 1.603552 0
M  V30 19 C -1.193157 -0.720443 1.645418 0
M  V30 20 C -1.871156 -0.459359 0.349236 0
M  V30 21 C -2.879545 -1.355835 -0.069322 0
M  V30 22 O -2.993663 -2.310781 0.878355 0
M  V30 23 C -3.794812 -3.411121 0.957831 0
M  V30 24 C -3.687722 -4.592732 0.104452 0
M  V30 25 N -3.763554 -4.509009 -1.326208 0
M  V30 26 C -4.125000 -5.869962 -1.830139 0
M  V30 27 C -2.915559 -6.716869 -2.092686 0
M  V30 28 O -1.847644 -6.494898 -1.258348 0
M  V30 29 C -1.383666 -5.182154 -1.323057 0
M  V30 30 C -2.440354 -4.337755 -1.950829 0
M  V30 31 C -3.454628 -1.026361 -1.277738 0
M  V30 32 C -3.161925 0.040769 -2.088160 0
M  V30 33 C -2.173235 0.890677 -1.645053 0
M  V30 34 C -1.524661 0.653701 -0.436882 0
M  V30 35 H 1.182960 3.439147 -0.284525 0
M  V30 36 H 3.377108 3.564206 0.954850 0
M  V30 37 H 4.607288 0.898366 3.238521 0
M  V30 38 H 6.862422 1.899655 1.944853 0
M  V30 39 H 8.241196 4.000796 2.176724 0
M  V30 40 H 4.802991 5.994000 3.800017 0
M  V30 41 H 2.410464 -0.271931 2.736536 0
M  V30 42 H -1.587304 0.047656 2.344555 0
M  V30 43 H -1.479075 -1.689154 2.090396 0
M  V30 44 H -3.845422 -3.744561 2.075828 0
M  V30 45 H -4.916049 -3.087215 0.862774 0
M  V30 46 H -4.599993 -5.249979 0.371886 0
M  V30 47 H -2.854086 -5.287138 0.425286 0
M  V30 48 H -4.660824 -5.730784 -2.786637 0
M  V30 49 H -4.764800 -6.321078 -1.067351 0
M  V30 50 H -2.627475 -6.730146 -3.170315 0
M  V30 51 H -3.230836 -7.786915 -1.900655 0
M  V30 52 H -1.045415 -4.884580 -0.339031 0
M  V30 53 H -0.500433 -5.142319 -2.029829 0
M  V30 54 H -2.564961 -4.705404 -3.006951 0
M  V30 55 H -2.216172 -3.299981 -2.032009 0
M  V30 56 H -4.217387 -1.779816 -1.499556 0
M  V30 57 H -3.729337 0.108231 -2.983596 0
M  V30 58 H -1.933446 1.732957 -2.272464 0
M  V30 END ATOM
M  V30 BEGIN BOND
M  V30 1 2 1 2
M  V30 2 1 2 3
M  V30 3 2 3 4
M  V30 4 1 4 5
M  V30 5 2 5 6
M  V30 6 1 6 7
M  V30 7 1 7 8
M  V30 8 2 8 9
M  V30 9 1 9 10
M  V30 10 2 10 11
M  V30 11 1 11 12
M  V30 12 1 11 13
M  V30 13 2 13 14
M  V30 14 1 14 15
M  V30 15 1 6 16
M  V30 16 2 16 17
M  V30 17 1 17 18
M  V30 18 1 18 19
M  V30 19 1 19 20
M  V30 20 2 20 21
M  V30 21 1 21 22
M  V30 22 1 22 23
M  V30 23 1 23 24
M  V30 24 1 24 25
M  V30 25 1 25 26
M  V30 26 1 26 27
M  V30 27 1 27 28
M  V30 28 1 28 29
M  V30 29 1 29 30
M  V30 30 1 21 31
M  V30 31 2 31 32
M  V30 32 1 32 33
M  V30 33 2 33 34
M  V30 34 1 34 2
M  V30 35 1 17 3
M  V30 36 1 34 20
M  V30 37 1 14 8
M  V30 38 1 30 25
M  V30 39 1 4 35
M  V30 40 1 5 36
M  V30 41 1 7 37
M  V30 42 1 9 38
M  V30 43 1 10 39
M  V30 44 1 13 40
M  V30 45 1 16 41
M  V30 46 1 19 42
M  V30 47 1 19 43
M  V30 48 1 23 44
M  V30 49 1 23 45
M  V30 50 1 24 46
M  V30 51 1 24 47
M  V30 52 1 26 48
M  V30 53 1 26 49
M  V30 54 1 27 50
M  V30 55 1 27 51
M  V30 56 1 29 52
M  V30 57 1 29 53
M  V30 58 1 30 54
M  V30 59 1 30 55
M  V30 60 1 31 56
M  V30 61 1 32 57
M  V30 62 1 33 58
M  V30 END BOND
M  V30 END CTAB
M  END
>  <Dataset>  (300) 
ChEMBL_Kinases

>  <Ligand_Instance>  (300) 
nan

>  <PDB_ID>  (300) 
nan

>  <Standardized_SMILES>  (300) 
O=C1c2ccc(Nc3ccc(F)cc3F)cc2OCc2c(OCCN3CCOCC3)cccc21

>  <Name>  (300) 
nan

>  <Pocket>  (300) 
nan

>  <ATP_Site>  (300) 
nan

>  <Peripheral>  (300) 
nan

>  <Num_H_Atoms_ProtBoundConf>  (300) 
nan

>  <Num_Resolved_Atoms>  (300) 
nan

>  <Num_Not_Resolved_Atoms>  (300) 
nan

$$$$
CHEMBL3087487
     RDKit          3D

  0  0  0  0  0  0  0  0  0  0999 V3000
M  V30 BEGIN CTAB
M  V30 COUNTS 44 47 0 0 0
M  V30 BEGIN ATOM
M  V30 1 C 4.651883 -5.974184 0.027728 0
M  V30 2 O 3.898074 -4.815374 0.308360 0
M  V30 3 C 2.559316 -4.695689 -0.067512 0
M  V30 4 C 1.958078 -5.748517 -0.735337 0
M  V30 5 C 0.633967 -5.739224 -1.156256 0
M  V30 6 C -0.122479 -4.612539 -0.891001 0
M  V30 7 C 0.464287 -3.551697 -0.224202 0
M  V30 8 C 1.796726 -3.572721 0.194087 0
M  V30 9 C 2.584973 -2.557071 0.905073 0
M  V30 10 O 2.235192 -1.224239 0.617051 0
M  V30 11 C 1.029147 -0.543878 0.595954 0
M  V30 12 C 1.227254 0.784561 0.922084 0
M  V30 13 C 0.074661 1.544885 0.926620 0
M  V30 14 N 0.197940 2.924475 1.252989 0
M  V30 15 C -0.703982 4.010266 1.374436 0
M  V30 16 C -0.661086 5.178736 0.633155 0
M  V30 17 C -1.594036 6.174976 0.836068 0
M  V30 18 C -2.596829 6.019253 1.793490 0
M  V30 19 F -3.505309 7.024383 1.969916 0
M  V30 20 C -2.631246 4.847337 2.529572 0
M  V30 21 C -1.698511 3.852373 2.326111 0
M  V30 22 N -1.909364 2.736774 3.180841 0
M  V30 23 C -1.178611 1.044394 0.634173 0
M  V30 24 C -1.319228 -0.291109 0.314729 0
M  V30 25 C -0.193799 -1.110636 0.293027 0
M  V30 26 C -0.535045 -2.485850 -0.064302 0
M  V30 27 O -1.753603 -2.740227 -0.237413 0
M  V30 28 H 5.671693 -5.807787 0.447347 0
M  V30 29 H 4.249741 -6.880844 0.488412 0
M  V30 30 H 4.766239 -6.106032 -1.079451 0
M  V30 31 H 2.541714 -6.653159 -0.955928 0
M  V30 32 H 0.215880 -6.598347 -1.677931 0
M  V30 33 H -1.168116 -4.563010 -1.204398 0
M  V30 34 H 2.545472 -2.731568 2.003517 0
M  V30 35 H 3.664456 -2.695090 0.636973 0
M  V30 36 H 2.200003 1.192316 1.153352 0
M  V30 37 H 1.105369 3.372146 1.476497 0
M  V30 38 H 0.132440 5.258539 -0.098340 0
M  V30 39 H -1.554985 7.088138 0.251996 0
M  V30 40 H -3.446035 4.820380 3.247532 0
M  V30 41 H -2.579855 1.911821 3.147061 0
M  V30 42 H -1.499944 2.376502 4.074764 0
M  V30 43 H -2.082039 1.602013 0.628886 0
M  V30 44 H -2.272517 -0.736293 0.077859 0
M  V30 END ATOM
M  V30 BEGIN BOND
M  V30 1 1 1 2
M  V30 2 1 2 3
M  V30 3 2 3 4
M  V30 4 1 4 5
M  V30 5 2 5 6
M  V30 6 1 6 7
M  V30 7 2 7 8
M  V30 8 1 8 9
M  V30 9 1 9 10
M  V30 10 1 10 11
M  V30 11 2 11 12
M  V30 12 1 12 13
M  V30 13 1 13 14
M  V30 14 1 14 15
M  V30 15 2 15 16
M  V30 16 1 16 17
M  V30 17 2 17 18
M  V30 18 1 18 19
M  V30 19 1 18 20
M  V30 20 2 20 21
M  V30 21 1 21 22
M  V30 22 2 13 23
M  V30 23 1 23 24
M  V30 24 2 24 25
M  V30 25 1 25 26
M  V30 26 2 26 27
M  V30 27 1 8 3
M  V30 28 1 25 11
M  V30 29 1 26 7
M  V30 30 1 21 15
M  V30 31 1 1 28
M  V30 32 1 1 29
M  V30 33 1 1 30
M  V30 34 1 4 31
M  V30 35 1 5 32
M  V30 36 1 6 33
M  V30 37 1 9 34
M  V30 38 1 9 35
M  V30 39 1 12 36
M  V30 40 1 14 37
M  V30 41 1 16 38
M  V30 42 1 17 39
M  V30 43 1 20 40
M  V30 44 1 22 41
M  V30 45 1 22 42
M  V30 46 1 23 43
M  V30 47 1 24 44
M  V30 END BOND
M  V30 END CTAB
M  END
>  <Dataset>  (301) 
ChEMBL_Kinases

>  <Ligand_Instance>  (301) 
nan

>  <PDB_ID>  (301) 
nan

>  <Standardized_SMILES>  (301) 
COc1cccc2c1COc1cc(Nc3ccc(F)cc3N)ccc1C2=O

>  <Name>  (301) 
nan

>  <Pocket>  (301) 
nan

>  <ATP_Site>  (301) 
nan

>  <Peripheral>  (301) 
nan

>  <Num_H_Atoms_ProtBoundConf>  (301) 
nan

>  <Num_Resolved_Atoms>  (301) 
nan

>  <Num_Not_Resolved_Atoms>  (301) 
nan

$$$$
CHEMBL3087486
     RDKit          3D

  0  0  0  0  0  0  0  0  0  0999 V3000
M  V30 BEGIN CTAB
M  V30 COUNTS 44 47 0 0 0
M  V30 BEGIN ATOM
M  V30 1 C 2.021942 -6.082089 -3.081489 0
M  V30 2 O 1.800962 -4.917478 -2.307065 0
M  V30 3 C 0.633081 -4.688165 -1.589178 0
M  V30 4 C -0.379718 -5.650671 -1.628091 0
M  V30 5 C -1.559357 -5.460732 -0.926719 0
M  V30 6 C -1.760804 -4.307586 -0.168634 0
M  V30 7 C -0.746254 -3.360444 -0.139365 0
M  V30 8 C 0.431305 -3.544922 -0.836557 0
M  V30 9 C 1.606258 -2.695274 -0.943165 0
M  V30 10 O 1.485998 -1.355676 -0.653537 0
M  V30 11 C 0.731487 -0.578391 0.205400 0
M  V30 12 C 1.338559 0.650461 0.363830 0
M  V30 13 C 0.687284 1.532865 1.202064 0
M  V30 14 N 1.247037 2.825013 1.418254 0
M  V30 15 C 0.839442 3.927158 2.221195 0
M  V30 16 C 0.557503 5.146047 1.617381 0
M  V30 17 C 0.166659 6.189361 2.429424 0
M  V30 18 C 0.047490 6.069392 3.794958 0
M  V30 19 C 0.325509 4.856312 4.419572 0
M  V30 20 C 0.713496 3.834323 3.578806 0
M  V30 21 N 0.986745 2.622142 4.269785 0
M  V30 22 C -0.491880 1.171950 1.822434 0
M  V30 23 C -1.074532 -0.074114 1.639842 0
M  V30 24 C -0.442453 -0.980271 0.803541 0
M  V30 25 C -1.173558 -2.240050 0.713525 0
M  V30 26 O -2.212030 -2.341372 1.408936 0
M  V30 27 H 1.574065 -5.912371 -4.072862 0
M  V30 28 H 3.103824 -6.236272 -3.230907 0
M  V30 29 H 1.650406 -7.008159 -2.601173 0
M  V30 30 H -0.305271 -6.580100 -2.194888 0
M  V30 31 H -2.368999 -6.200664 -0.940993 0
M  V30 32 H -2.694899 -4.175170 0.376484 0
M  V30 33 H 2.388316 -3.119320 -0.250985 0
M  V30 34 H 2.073107 -2.831596 -1.962378 0
M  V30 35 H 2.250704 0.934741 -0.113646 0
M  V30 36 H 2.121321 3.109747 0.941276 0
M  V30 37 H 0.633020 5.301265 0.549805 0
M  V30 38 H -0.050853 7.134665 1.950200 0
M  V30 39 H -0.266703 6.940692 4.364325 0
M  V30 40 H 0.229311 4.770453 5.493912 0
M  V30 41 H 1.154643 1.599214 4.161579 0
M  V30 42 H 1.155442 1.600039 4.171908 0
M  V30 43 H -1.032133 1.838899 2.488130 0
M  V30 44 H -1.997588 -0.384673 2.112654 0
M  V30 END ATOM
M  V30 BEGIN BOND
M  V30 1 1 1 2
M  V30 2 1 2 3
M  V30 3 2 3 4
M  V30 4 1 4 5
M  V30 5 2 5 6
M  V30 6 1 6 7
M  V30 7 2 7 8
M  V30 8 1 8 9
M  V30 9 1 9 10
M  V30 10 1 10 11
M  V30 11 2 11 12
M  V30 12 1 12 13
M  V30 13 1 13 14
M  V30 14 1 14 15
M  V30 15 2 15 16
M  V30 16 1 16 17
M  V30 17 2 17 18
M  V30 18 1 18 19
M  V30 19 2 19 20
M  V30 20 1 20 21
M  V30 21 2 13 22
M  V30 22 1 22 23
M  V30 23 2 23 24
M  V30 24 1 24 25
M  V30 25 2 25 26
M  V30 26 1 8 3
M  V30 27 1 24 11
M  V30 28 1 25 7
M  V30 29 1 20 15
M  V30 30 1 1 27
M  V30 31 1 1 28
M  V30 32 1 1 29
M  V30 33 1 4 30
M  V30 34 1 5 31
M  V30 35 1 6 32
M  V30 36 1 9 33
M  V30 37 1 9 34
M  V30 38 1 12 35
M  V30 39 1 14 36
M  V30 40 1 16 37
M  V30 41 1 17 38
M  V30 42 1 18 39
M  V30 43 1 19 40
M  V30 44 1 21 41
M  V30 45 1 21 42
M  V30 46 1 22 43
M  V30 47 1 23 44
M  V30 END BOND
M  V30 END CTAB
M  END
>  <Dataset>  (302) 
ChEMBL_Kinases

>  <Ligand_Instance>  (302) 
nan

>  <PDB_ID>  (302) 
nan

>  <Standardized_SMILES>  (302) 
COc1cccc2c1COc1cc(Nc3ccccc3N)ccc1C2=O

>  <Name>  (302) 
nan

>  <Pocket>  (302) 
nan

>  <ATP_Site>  (302) 
nan

>  <Peripheral>  (302) 
nan

>  <Num_H_Atoms_ProtBoundConf>  (302) 
nan

>  <Num_Resolved_Atoms>  (302) 
nan

>  <Num_Not_Resolved_Atoms>  (302) 
nan

$$$$
CHEMBL3087485
     RDKit          3D

  0  0  0  0  0  0  0  0  0  0999 V3000
M  V30 BEGIN CTAB
M  V30 COUNTS 42 45 0 0 0
M  V30 BEGIN ATOM
M  V30 1 C -5.046963 -1.878704 -1.407134 0
M  V30 2 O -3.673420 -1.650985 -1.174681 0
M  V30 3 C -2.669254 -2.558005 -1.456208 0
M  V30 4 C -2.786276 -3.801050 -1.990625 0
M  V30 5 C -1.703346 -4.622412 -2.228292 0
M  V30 6 C -0.429936 -4.179099 -1.915135 0
M  V30 7 C -0.308503 -2.910272 -1.369438 0
M  V30 8 C -1.406276 -2.075481 -1.127600 0
M  V30 9 C -1.374123 -0.706093 -0.548484 0
M  V30 10 O -0.455133 -0.536488 0.483974 0
M  V30 11 C 0.918532 -0.716419 0.583689 0
M  V30 12 C 1.539622 0.142514 1.473747 0
M  V30 13 C 2.901654 -0.027184 1.580414 0
M  V30 14 N 3.624426 0.811292 2.470309 0
M  V30 15 C 3.151757 1.864546 3.300036 0
M  V30 16 C 3.298352 1.824564 4.671150 0
M  V30 17 C 2.846776 2.836698 5.484694 0
M  V30 18 C 2.227242 3.927531 4.913699 0
M  V30 19 F 1.780574 4.926021 5.703515 0
M  V30 20 C 2.081549 3.964475 3.535017 0
M  V30 21 C 2.532553 2.948460 2.693034 0
M  V30 22 F 2.344135 3.077280 1.358536 0
M  V30 23 C 3.660862 -0.949044 0.896500 0
M  V30 24 C 3.001718 -1.792843 0.012819 0
M  V30 25 C 1.629195 -1.669948 -0.137939 0
M  V30 26 C 1.128524 -2.656352 -1.119642 0
M  V30 27 O 1.975371 -3.310258 -1.773057 0
M  V30 28 H -5.672349 -1.538773 -0.536842 0
M  V30 29 H -5.380945 -1.231429 -2.246219 0
M  V30 30 H -5.295664 -2.946001 -1.548266 0
M  V30 31 H -3.772756 -4.123027 -2.224195 0
M  V30 32 H -1.834775 -5.599636 -2.652348 0
M  V30 33 H 0.443475 -4.785335 -2.083179 0
M  V30 34 H -1.232384 0.019913 -1.397432 0
M  V30 35 H -2.389725 -0.480506 -0.142013 0
M  V30 36 H 0.957406 0.857043 2.005694 0
M  V30 37 H 4.646162 0.770988 2.648030 0
M  V30 38 H 3.790774 0.958095 5.128144 0
M  V30 39 H 2.992762 2.744826 6.555009 0
M  V30 40 H 1.583127 4.855791 3.153526 0
M  V30 41 H 4.731629 -1.029484 1.027995 0
M  V30 42 H 3.508544 -2.547752 -0.569086 0
M  V30 END ATOM
M  V30 BEGIN BOND
M  V30 1 1 1 2
M  V30 2 1 2 3
M  V30 3 2 3 4
M  V30 4 1 4 5
M  V30 5 2 5 6
M  V30 6 1 6 7
M  V30 7 2 7 8
M  V30 8 1 8 9
M  V30 9 1 9 10
M  V30 10 1 10 11
M  V30 11 2 11 12
M  V30 12 1 12 13
M  V30 13 1 13 14
M  V30 14 1 14 15
M  V30 15 2 15 16
M  V30 16 1 16 17
M  V30 17 2 17 18
M  V30 18 1 18 19
M  V30 19 1 18 20
M  V30 20 2 20 21
M  V30 21 1 21 22
M  V30 22 2 13 23
M  V30 23 1 23 24
M  V30 24 2 24 25
M  V30 25 1 25 26
M  V30 26 2 26 27
M  V30 27 1 8 3
M  V30 28 1 25 11
M  V30 29 1 26 7
M  V30 30 1 21 15
M  V30 31 1 1 28
M  V30 32 1 1 29
M  V30 33 1 1 30
M  V30 34 1 4 31
M  V30 35 1 5 32
M  V30 36 1 6 33
M  V30 37 1 9 34
M  V30 38 1 9 35
M  V30 39 1 12 36
M  V30 40 1 14 37
M  V30 41 1 16 38
M  V30 42 1 17 39
M  V30 43 1 20 40
M  V30 44 1 23 41
M  V30 45 1 24 42
M  V30 END BOND
M  V30 END CTAB
M  END
>  <Dataset>  (303) 
ChEMBL_Kinases

>  <Ligand_Instance>  (303) 
nan

>  <PDB_ID>  (303) 
nan

>  <Standardized_SMILES>  (303) 
COc1cccc2c1COc1cc(Nc3ccc(F)cc3F)ccc1C2=O

>  <Name>  (303) 
nan

>  <Pocket>  (303) 
nan

>  <ATP_Site>  (303) 
nan

>  <Peripheral>  (303) 
nan

>  <Num_H_Atoms_ProtBoundConf>  (303) 
nan

>  <Num_Resolved_Atoms>  (303) 
nan

>  <Num_Not_Resolved_Atoms>  (303) 
nan

$$$$
CHEMBL3087484
     RDKit          3D

  0  0  0  0  0  0  0  0  0  0999 V3000
M  V30 BEGIN CTAB
M  V30 COUNTS 53 56 0 0 0
M  V30 BEGIN ATOM
M  V30 1 O 0.575387 -2.764517 1.639335 0
M  V30 2 C -0.025320 -1.754138 1.192495 0
M  V30 3 C 0.451922 -0.406797 1.569237 0
M  V30 4 C 1.249478 -0.557133 2.684488 0
M  V30 5 C 1.827825 0.558027 3.247675 0
M  V30 6 C 1.649866 1.830133 2.749646 0
M  V30 7 O 2.080561 3.080289 3.081162 0
M  V30 8 C 2.886712 3.589718 4.051640 0
M  V30 9 C 4.288523 3.044033 3.934470 0
M  V30 10 C 4.851723 3.425079 2.564243 0 CFG=1
M  V30 11 O 4.885471 4.810228 2.410361 0
M  V30 12 C 6.246205 2.901356 2.382966 0
M  V30 13 O 6.631050 3.276027 1.079504 0
M  V30 14 C 0.830482 1.949559 1.611226 0
M  V30 15 C 0.223263 0.834847 1.008982 0
M  V30 16 C -0.610029 1.125995 -0.184535 0
M  V30 17 O -1.748177 0.323082 -0.311608 0
M  V30 18 C -1.968131 -1.043254 -0.373758 0
M  V30 19 C -3.032573 -1.419188 -1.170418 0
M  V30 20 C -3.306323 -2.768280 -1.275757 0
M  V30 21 N -4.395613 -3.175364 -2.087736 0
M  V30 22 C -4.835868 -4.476178 -2.355373 0
M  V30 23 C -6.102123 -4.925595 -2.036177 0
M  V30 24 C -6.462387 -6.224213 -2.334191 0
M  V30 25 C -5.615825 -7.131721 -2.948798 0
M  V30 26 F -6.027741 -8.392665 -3.215199 0
M  V30 27 C -4.357272 -6.657386 -3.256875 0
M  V30 28 C -3.956030 -5.356882 -2.973408 0
M  V30 29 F -2.677681 -5.041496 -3.342781 0
M  V30 30 C -2.546875 -3.709901 -0.611224 0
M  V30 31 C -1.467290 -3.331037 0.196938 0
M  V30 32 C -1.194816 -1.972762 0.300611 0
M  V30 33 H 1.463946 -1.497710 3.164560 0
M  V30 34 H 2.443308 0.542321 4.105045 0
M  V30 35 H 3.001132 4.700773 3.849903 0
M  V30 36 H 2.480223 3.449136 5.079108 0
M  V30 37 H 4.266661 1.967832 4.006913 0
M  V30 38 H 4.980754 3.514763 4.666816 0
M  V30 39 H 4.209959 3.029762 1.745855 0
M  V30 40 H 5.664817 5.132369 1.896139 0
M  V30 41 H 6.958713 3.431318 3.049609 0
M  V30 42 H 6.329399 1.814465 2.510242 0
M  V30 43 H 5.826811 3.355041 0.479792 0
M  V30 44 H 0.553899 2.859132 1.052402 0
M  V30 45 H 0.047273 0.970352 -1.065834 0
M  V30 46 H -0.869361 2.211517 -0.131558 0
M  V30 47 H -3.602369 -0.655201 -1.673499 0
M  V30 48 H -4.998350 -2.485705 -2.585582 0
M  V30 49 H -6.814482 -4.259321 -1.551282 0
M  V30 50 H -7.454145 -6.588134 -2.088184 0
M  V30 51 H -3.678607 -7.352879 -3.739029 0
M  V30 52 H -2.720177 -4.758467 -0.661719 0
M  V30 53 H -0.851734 -4.035211 0.730765 0
M  V30 END ATOM
M  V30 BEGIN BOND
M  V30 1 2 1 2
M  V30 2 1 2 3
M  V30 3 2 3 4
M  V30 4 1 4 5
M  V30 5 2 5 6
M  V30 6 1 6 7
M  V30 7 1 7 8
M  V30 8 1 8 9
M  V30 9 1 9 10
M  V30 10 1 10 11
M  V30 11 1 10 12
M  V30 12 1 12 13
M  V30 13 1 6 14
M  V30 14 2 14 15
M  V30 15 1 15 16
M  V30 16 1 16 17
M  V30 17 1 17 18
M  V30 18 2 18 19
M  V30 19 1 19 20
M  V30 20 1 20 21
M  V30 21 1 21 22
M  V30 22 2 22 23
M  V30 23 1 23 24
M  V30 24 2 24 25
M  V30 25 1 25 26
M  V30 26 1 25 27
M  V30 27 2 27 28
M  V30 28 1 28 29
M  V30 29 2 20 30
M  V30 30 1 30 31
M  V30 31 2 31 32
M  V30 32 1 32 2
M  V30 33 1 15 3
M  V30 34 1 32 18
M  V30 35 1 28 22
M  V30 36 1 4 33
M  V30 37 1 5 34
M  V30 38 1 8 35
M  V30 39 1 8 36
M  V30 40 1 9 37
M  V30 41 1 9 38
M  V30 42 1 10 39 CFG=3
M  V30 43 1 11 40
M  V30 44 1 12 41
M  V30 45 1 12 42
M  V30 46 1 13 43
M  V30 47 1 14 44
M  V30 48 1 16 45
M  V30 49 1 16 46
M  V30 50 1 19 47
M  V30 51 1 21 48
M  V30 52 1 23 49
M  V30 53 1 24 50
M  V30 54 1 27 51
M  V30 55 1 30 52
M  V30 56 1 31 53
M  V30 END BOND
M  V30 END CTAB
M  END
>  <Dataset>  (304) 
ChEMBL_Kinases

>  <Ligand_Instance>  (304) 
nan

>  <PDB_ID>  (304) 
nan

>  <Standardized_SMILES>  (304) 
O=C1c2ccc(OCC[C@@H](O)CO)cc2COc2cc(Nc3ccc(F)cc3F)ccc21

>  <Name>  (304) 
nan

>  <Pocket>  (304) 
nan

>  <ATP_Site>  (304) 
nan

>  <Peripheral>  (304) 
nan

>  <Num_H_Atoms_ProtBoundConf>  (304) 
nan

>  <Num_Resolved_Atoms>  (304) 
nan

>  <Num_Not_Resolved_Atoms>  (304) 
nan

$$$$
CHEMBL3087483
     RDKit          3D

  0  0  0  0  0  0  0  0  0  0999 V3000
M  V30 BEGIN CTAB
M  V30 COUNTS 50 53 0 0 0
M  V30 BEGIN ATOM
M  V30 1 O 1.526813 -3.171344 1.428043 0
M  V30 2 C 1.004768 -2.059186 1.156819 0
M  V30 3 C 1.917675 -0.922452 1.211383 0
M  V30 4 C 3.243484 -1.278917 1.341498 0
M  V30 5 C 4.211127 -0.263195 1.403903 0
M  V30 6 C 3.856768 1.096671 1.336854 0
M  V30 7 O 4.988030 1.804912 1.422964 0
M  V30 8 C 5.368658 3.108491 1.413304 0
M  V30 9 C 5.111429 3.938712 0.204952 0 CFG=1
M  V30 10 O 3.812274 4.094250 -0.185577 0
M  V30 11 C 5.782469 5.291099 0.432698 0
M  V30 12 O 5.792211 6.076428 -0.707181 0
M  V30 13 C 2.510822 1.339005 1.208309 0
M  V30 14 C 1.515494 0.394076 1.141306 0
M  V30 15 C 0.215773 1.066001 1.005309 0
M  V30 16 O -0.766770 0.346813 0.326756 0
M  V30 17 C -1.191078 -0.967795 0.460443 0
M  V30 18 C -2.546957 -1.100824 0.172097 0
M  V30 19 C -3.058095 -2.376723 0.279022 0
M  V30 20 N -4.442326 -2.544489 -0.008799 0
M  V30 21 C -5.233375 -3.728071 0.002380 0
M  V30 22 C -6.334393 -3.836423 0.849928 0
M  V30 23 C -7.148918 -4.951384 0.916897 0
M  V30 24 C -6.833322 -6.010323 0.084026 0
M  V30 25 F -7.661405 -7.095231 0.178627 0
M  V30 26 C -5.749091 -5.972519 -0.787931 0
M  V30 27 C -4.981391 -4.824594 -0.798522 0
M  V30 28 F -3.933152 -4.794596 -1.646401 0
M  V30 29 C -2.328370 -3.488453 0.642419 0
M  V30 30 C -0.986981 -3.342930 0.925217 0
M  V30 31 C -0.437479 -2.064244 0.826593 0
M  V30 32 H 3.410913 -2.340942 1.383895 0
M  V30 33 H 5.186915 -0.736614 1.505105 0
M  V30 34 H 4.981345 3.624985 2.349457 0
M  V30 35 H 6.494658 3.146551 1.577650 0
M  V30 36 H 5.657086 3.525695 -0.696167 0
M  V30 37 H 3.571479 3.302915 -0.745232 0
M  V30 38 H 6.826409 5.092840 0.726494 0
M  V30 39 H 5.295049 5.862239 1.232817 0
M  V30 40 H 5.045569 5.794628 -1.276183 0
M  V30 41 H 2.295534 2.392479 1.174005 0
M  V30 42 H -0.143021 1.339435 2.041479 0
M  V30 43 H 0.383036 2.003887 0.409290 0
M  V30 44 H -3.148937 -0.259873 -0.114232 0
M  V30 45 H -5.071836 -1.760180 -0.278703 0
M  V30 46 H -6.578998 -2.991594 1.508403 0
M  V30 47 H -7.996653 -4.978200 1.600139 0
M  V30 48 H -5.542574 -6.826149 -1.419857 0
M  V30 49 H -2.700953 -4.482643 0.732157 0
M  V30 50 H -0.288193 -4.113659 1.221413 0
M  V30 END ATOM
M  V30 BEGIN BOND
M  V30 1 2 1 2
M  V30 2 1 2 3
M  V30 3 2 3 4
M  V30 4 1 4 5
M  V30 5 2 5 6
M  V30 6 1 6 7
M  V30 7 1 7 8
M  V30 8 1 8 9
M  V30 9 1 9 10
M  V30 10 1 9 11
M  V30 11 1 11 12
M  V30 12 1 6 13
M  V30 13 2 13 14
M  V30 14 1 14 15
M  V30 15 1 15 16
M  V30 16 1 16 17
M  V30 17 2 17 18
M  V30 18 1 18 19
M  V30 19 1 19 20
M  V30 20 1 20 21
M  V30 21 2 21 22
M  V30 22 1 22 23
M  V30 23 2 23 24
M  V30 24 1 24 25
M  V30 25 1 24 26
M  V30 26 2 26 27
M  V30 27 1 27 28
M  V30 28 2 19 29
M  V30 29 1 29 30
M  V30 30 2 30 31
M  V30 31 1 31 2
M  V30 32 1 14 3
M  V30 33 1 31 17
M  V30 34 1 27 21
M  V30 35 1 4 32
M  V30 36 1 5 33
M  V30 37 1 8 34
M  V30 38 1 8 35
M  V30 39 1 9 36 CFG=3
M  V30 40 1 10 37
M  V30 41 1 11 38
M  V30 42 1 11 39
M  V30 43 1 12 40
M  V30 44 1 13 41
M  V30 45 1 15 42
M  V30 46 1 15 43
M  V30 47 1 18 44
M  V30 48 1 20 45
M  V30 49 1 22 46
M  V30 50 1 23 47
M  V30 51 1 26 48
M  V30 52 1 29 49
M  V30 53 1 30 50
M  V30 END BOND
M  V30 END CTAB
M  END
>  <Dataset>  (305) 
ChEMBL_Kinases

>  <Ligand_Instance>  (305) 
nan

>  <PDB_ID>  (305) 
nan

>  <Standardized_SMILES>  (305) 
O=C1c2ccc(OC[C@@H](O)CO)cc2COc2cc(Nc3ccc(F)cc3F)ccc21

>  <Name>  (305) 
nan

>  <Pocket>  (305) 
nan

>  <ATP_Site>  (305) 
nan

>  <Peripheral>  (305) 
nan

>  <Num_H_Atoms_ProtBoundConf>  (305) 
nan

>  <Num_Resolved_Atoms>  (305) 
nan

>  <Num_Not_Resolved_Atoms>  (305) 
nan

$$$$
CHEMBL3086700
     RDKit          3D

  0  0  0  0  0  0  0  0  0  0999 V3000
M  V30 BEGIN CTAB
M  V30 COUNTS 58 62 0 0 0
M  V30 BEGIN ATOM
M  V30 1 O -2.638670 -1.428985 2.377431 0
M  V30 2 C -1.801894 -1.795804 1.524940 0
M  V30 3 C -0.523052 -1.062466 1.416314 0
M  V30 4 C -0.677264 0.149674 2.051973 0
M  V30 5 C 0.363262 1.047896 2.107024 0
M  V30 6 C 1.593213 0.798996 1.544243 0
M  V30 7 O 2.780651 1.461701 1.430806 0
M  V30 8 C 3.128122 2.729834 1.892662 0
M  V30 9 C 2.357427 3.875379 1.319198 0
M  V30 10 N 2.845278 5.111206 1.908248 0
M  V30 11 C 2.152800 6.264466 1.407503 0
M  V30 12 C 2.903736 7.500384 1.864675 0
M  V30 13 O 3.139409 7.465864 3.235057 0
M  V30 14 C 2.386893 6.474190 3.837477 0
M  V30 15 C 2.740608 5.099042 3.348076 0
M  V30 16 C 1.741917 -0.440782 0.897698 0
M  V30 17 C 0.697412 -1.374551 0.827403 0
M  V30 18 C 0.956911 -2.628055 0.135448 0
M  V30 19 O -0.069006 -3.151658 -0.639000 0
M  V30 20 C -1.372876 -3.576103 -0.315071 0
M  V30 21 C -1.828657 -4.651563 -1.038999 0
M  V30 22 C -3.103505 -5.076783 -0.731395 0
M  V30 23 N -3.646279 -6.171041 -1.424046 0
M  V30 24 C -3.058561 -6.965333 -2.437059 0
M  V30 25 C -3.654425 -7.033263 -3.695762 0
M  V30 26 C -3.154573 -7.781788 -4.746084 0
M  V30 27 C -1.983998 -8.512236 -4.532236 0
M  V30 28 F -1.536325 -9.227729 -5.590972 0
M  V30 29 C -1.357981 -8.474170 -3.296877 0
M  V30 30 C -1.915926 -7.705670 -2.299678 0
M  V30 31 F -1.281476 -7.695146 -1.118087 0
M  V30 32 C -3.896286 -4.489281 0.229147 0
M  V30 33 C -3.402439 -3.395891 0.948590 0
M  V30 34 C -2.127818 -2.949997 0.659821 0
M  V30 35 H -1.591659 0.466010 2.532883 0
M  V30 36 H 0.328144 1.991923 2.583880 0
M  V30 37 H 4.232419 2.867953 1.771045 0
M  V30 38 H 2.958702 2.783888 3.014168 0
M  V30 39 H 2.568952 3.990689 0.214708 0
M  V30 40 H 1.283281 3.756086 1.430411 0
M  V30 41 H 2.121064 6.300364 0.296655 0
M  V30 42 H 1.091244 6.319018 1.747877 0
M  V30 43 H 3.857645 7.598055 1.337556 0
M  V30 44 H 2.268902 8.403937 1.664117 0
M  V30 45 H 1.306907 6.699887 3.744164 0
M  V30 46 H 2.596114 6.575593 4.942588 0
M  V30 47 H 1.896443 4.427526 3.649433 0
M  V30 48 H 3.665755 4.727076 3.790776 0
M  V30 49 H 2.602675 -0.856308 0.388834 0
M  V30 50 H 1.821008 -2.443684 -0.567400 0
M  V30 51 H 1.369386 -3.344895 0.896559 0
M  V30 52 H -1.191068 -5.080442 -1.772761 0
M  V30 53 H -4.603211 -6.552589 -1.266554 0
M  V30 54 H -4.575501 -6.471614 -3.898260 0
M  V30 55 H -3.676474 -7.787093 -5.706866 0
M  V30 56 H -0.458951 -9.046285 -3.161678 0
M  V30 57 H -4.903937 -4.857639 0.443123 0
M  V30 58 H -3.979859 -2.895642 1.713540 0
M  V30 END ATOM
M  V30 BEGIN BOND
M  V30 1 2 1 2
M  V30 2 1 2 3
M  V30 3 2 3 4
M  V30 4 1 4 5
M  V30 5 2 5 6
M  V30 6 1 6 7
M  V30 7 1 7 8
M  V30 8 1 8 9
M  V30 9 1 9 10
M  V30 10 1 10 11
M  V30 11 1 11 12
M  V30 12 1 12 13
M  V30 13 1 13 14
M  V30 14 1 14 15
M  V30 15 1 6 16
M  V30 16 2 16 17
M  V30 17 1 17 18
M  V30 18 1 18 19
M  V30 19 1 19 20
M  V30 20 2 20 21
M  V30 21 1 21 22
M  V30 22 1 22 23
M  V30 23 1 23 24
M  V30 24 2 24 25
M  V30 25 1 25 26
M  V30 26 2 26 27
M  V30 27 1 27 28
M  V30 28 1 27 29
M  V30 29 2 29 30
M  V30 30 1 30 31
M  V30 31 2 22 32
M  V30 32 1 32 33
M  V30 33 2 33 34
M  V30 34 1 34 2
M  V30 35 1 17 3
M  V30 36 1 34 20
M  V30 37 1 15 10
M  V30 38 1 30 24
M  V30 39 1 4 35
M  V30 40 1 5 36
M  V30 41 1 8 37
M  V30 42 1 8 38
M  V30 43 1 9 39
M  V30 44 1 9 40
M  V30 45 1 11 41
M  V30 46 1 11 42
M  V30 47 1 12 43
M  V30 48 1 12 44
M  V30 49 1 14 45
M  V30 50 1 14 46
M  V30 51 1 15 47
M  V30 52 1 15 48
M  V30 53 1 16 49
M  V30 54 1 18 50
M  V30 55 1 18 51
M  V30 56 1 21 52
M  V30 57 1 23 53
M  V30 58 1 25 54
M  V30 59 1 26 55
M  V30 60 1 29 56
M  V30 61 1 32 57
M  V30 62 1 33 58
M  V30 END BOND
M  V30 END CTAB
M  END
>  <Dataset>  (306) 
ChEMBL_Kinases

>  <Ligand_Instance>  (306) 
nan

>  <PDB_ID>  (306) 
nan

>  <Standardized_SMILES>  (306) 
O=C1c2ccc(OCCN3CCOCC3)cc2COc2cc(Nc3ccc(F)cc3F)ccc21

>  <Name>  (306) 
nan

>  <Pocket>  (306) 
nan

>  <ATP_Site>  (306) 
nan

>  <Peripheral>  (306) 
nan

>  <Num_H_Atoms_ProtBoundConf>  (306) 
nan

>  <Num_Resolved_Atoms>  (306) 
nan

>  <Num_Not_Resolved_Atoms>  (306) 
nan

$$$$
CHEMBL3086701
     RDKit          3D

  0  0  0  0  0  0  0  0  0  0999 V3000
M  V30 BEGIN CTAB
M  V30 COUNTS 60 64 0 0 0
M  V30 BEGIN ATOM
M  V30 1 N 4.766764 0.471503 2.317120 0
M  V30 2 C 4.772918 1.104880 3.598571 0
M  V30 3 C 5.036441 0.219320 4.621455 0
M  V30 4 C 5.079826 0.691224 5.924686 0
M  V30 5 C 4.859393 2.036861 6.179317 0
M  V30 6 C 4.595589 2.925157 5.160030 0
M  V30 7 C 4.552438 2.455677 3.864882 0
M  V30 8 N 4.306996 3.162315 2.641640 0
M  V30 9 C 3.190090 2.843667 1.786615 0
M  V30 10 C 3.017317 3.426228 0.535669 0
M  V30 11 C 1.914336 3.079392 -0.238931 0
M  V30 12 C 1.009826 2.159025 0.253730 0
M  V30 13 C 1.191606 1.587894 1.496471 0
M  V30 14 C 2.278548 1.917918 2.280597 0
M  V30 15 O 0.284280 0.648444 2.020194 0
M  V30 16 C -1.114357 0.544800 1.900715 0
M  V30 17 C -1.611951 0.297231 0.547117 0
M  V30 18 C -2.641611 -0.644306 0.393475 0
M  V30 19 C -3.186906 -0.950550 -0.866506 0
M  V30 20 O -4.152112 -1.890409 -0.659940 0
M  V30 21 C -4.991370 -2.550541 -1.547720 0
M  V30 22 C -4.331579 -3.398158 -2.579146 0
M  V30 23 N -3.528194 -4.437813 -2.171991 0
M  V30 24 C -3.934967 -5.593990 -1.537287 0
M  V30 25 C -3.434641 -6.911776 -2.121896 0
M  V30 26 O -2.040470 -6.811859 -2.101541 0
M  V30 27 C -1.678185 -5.832368 -3.000049 0
M  V30 28 C -2.179897 -4.466763 -2.624611 0
M  V30 29 C -2.657347 -0.277157 -1.941691 0
M  V30 30 C -1.648340 0.649231 -1.815126 0
M  V30 31 C -1.121199 0.941300 -0.575399 0
M  V30 32 C -0.062821 1.959330 -0.748317 0
M  V30 33 O -0.099558 2.660666 -1.784524 0
M  V30 34 H 4.155609 -0.279028 1.936661 0
M  V30 35 H 5.476764 0.782195 1.614446 0
M  V30 36 H 5.219227 -0.843789 4.506642 0
M  V30 37 H 5.283576 0.022157 6.747079 0
M  V30 38 H 4.880559 2.452630 7.156342 0
M  V30 39 H 4.409206 3.982461 5.221000 0
M  V30 40 H 4.925217 3.934241 2.320733 0
M  V30 41 H 3.764337 4.144266 0.203774 0
M  V30 42 H 1.796779 3.541583 -1.206494 0
M  V30 43 H 2.310312 1.417162 3.216269 0
M  V30 44 H -1.629962 1.434209 2.359468 0
M  V30 45 H -1.420052 -0.318291 2.539536 0
M  V30 46 H -2.888750 -1.039071 1.385021 0
M  V30 47 H -5.550984 -1.730402 -2.082584 0
M  V30 48 H -5.767296 -3.069568 -0.958213 0
M  V30 49 H -3.787385 -2.749346 -3.287865 0
M  V30 50 H -5.166113 -3.830941 -3.224443 0
M  V30 51 H -5.021445 -5.665834 -1.282208 0
M  V30 52 H -3.458075 -5.596324 -0.506434 0
M  V30 53 H -3.821912 -7.695775 -1.449610 0
M  V30 54 H -3.743574 -7.099190 -3.144257 0
M  V30 55 H -1.979978 -6.033470 -4.038318 0
M  V30 56 H -0.565970 -5.793078 -3.000031 0
M  V30 57 H -1.455294 -4.060598 -1.869178 0
M  V30 58 H -2.007394 -3.820550 -3.523422 0
M  V30 59 H -3.132906 -0.563987 -2.848814 0
M  V30 60 H -1.308685 1.117002 -2.727840 0
M  V30 END ATOM
M  V30 BEGIN BOND
M  V30 1 1 1 2
M  V30 2 2 2 3
M  V30 3 1 3 4
M  V30 4 2 4 5
M  V30 5 1 5 6
M  V30 6 2 6 7
M  V30 7 1 7 8
M  V30 8 1 8 9
M  V30 9 2 9 10
M  V30 10 1 10 11
M  V30 11 2 11 12
M  V30 12 1 12 13
M  V30 13 2 13 14
M  V30 14 1 13 15
M  V30 15 1 15 16
M  V30 16 1 16 17
M  V30 17 2 17 18
M  V30 18 1 18 19
M  V30 19 1 19 20
M  V30 20 1 20 21
M  V30 21 1 21 22
M  V30 22 1 22 23
M  V30 23 1 23 24
M  V30 24 1 24 25
M  V30 25 1 25 26
M  V30 26 1 26 27
M  V30 27 1 27 28
M  V30 28 2 19 29
M  V30 29 1 29 30
M  V30 30 2 30 31
M  V30 31 1 31 32
M  V30 32 2 32 33
M  V30 33 1 7 2
M  V30 34 1 14 9
M  V30 35 1 31 17
M  V30 36 1 32 12
M  V30 37 1 28 23
M  V30 38 1 1 34
M  V30 39 1 1 35
M  V30 40 1 3 36
M  V30 41 1 4 37
M  V30 42 1 5 38
M  V30 43 1 6 39
M  V30 44 1 8 40
M  V30 45 1 10 41
M  V30 46 1 11 42
M  V30 47 1 14 43
M  V30 48 1 16 44
M  V30 49 1 16 45
M  V30 50 1 18 46
M  V30 51 1 21 47
M  V30 52 1 21 48
M  V30 53 1 22 49
M  V30 54 1 22 50
M  V30 55 1 24 51
M  V30 56 1 24 52
M  V30 57 1 25 53
M  V30 58 1 25 54
M  V30 59 1 27 55
M  V30 60 1 27 56
M  V30 61 1 28 57
M  V30 62 1 28 58
M  V30 63 1 29 59
M  V30 64 1 30 60
M  V30 END BOND
M  V30 END CTAB
M  END
>  <Dataset>  (307) 
ChEMBL_Kinases

>  <Ligand_Instance>  (307) 
nan

>  <PDB_ID>  (307) 
nan

>  <Standardized_SMILES>  (307) 
Nc1ccccc1Nc1ccc2c(c1)OCc1cc(OCCN3CCOCC3)ccc1C2=O

>  <Name>  (307) 
nan

>  <Pocket>  (307) 
nan

>  <ATP_Site>  (307) 
nan

>  <Peripheral>  (307) 
nan

>  <Num_H_Atoms_ProtBoundConf>  (307) 
nan

>  <Num_Resolved_Atoms>  (307) 
nan

>  <Num_Not_Resolved_Atoms>  (307) 
nan

$$$$
CHEMBL3086702
     RDKit          3D

  0  0  0  0  0  0  0  0  0  0999 V3000
M  V30 BEGIN CTAB
M  V30 COUNTS 60 64 0 0 0
M  V30 BEGIN ATOM
M  V30 1 N 7.372757 2.819781 -0.654130 0
M  V30 2 C 6.987472 1.760641 0.218870 0
M  V30 3 C 7.962803 1.329939 1.076734 0
M  V30 4 C 7.708572 0.318614 1.960656 0
M  V30 5 F 8.661230 -0.138072 2.834027 0
M  V30 6 C 6.470324 -0.252742 1.973370 0
M  V30 7 C 5.520216 0.209624 1.095145 0
M  V30 8 C 5.720419 1.221835 0.187040 0
M  V30 9 N 4.784076 1.750958 -0.728637 0
M  V30 10 C 3.438224 1.509851 -1.001799 0
M  V30 11 C 2.913561 1.588529 -2.298457 0
M  V30 12 C 1.599983 1.381951 -2.642258 0
M  V30 13 C 0.722130 1.070973 -1.627582 0
M  V30 14 C 1.153527 0.973316 -0.320790 0
M  V30 15 C 2.488481 1.194764 -0.052714 0
M  V30 16 O 0.354003 0.667126 0.770043 0
M  V30 17 C -1.026737 0.746575 1.034571 0
M  V30 18 C -1.902455 0.292777 -0.050207 0
M  V30 19 C -3.040583 -0.259474 0.500805 0
M  V30 20 C -4.056673 -0.775974 -0.269053 0
M  V30 21 O -5.267251 -1.371856 -0.025133 0
M  V30 22 C -5.882891 -1.666783 1.185642 0
M  V30 23 C -5.241798 -2.627949 2.101184 0
M  V30 24 N -5.095366 -3.959958 1.637344 0
M  V30 25 C -4.206230 -4.234664 0.573655 0
M  V30 26 C -2.779226 -4.455789 1.025892 0
M  V30 27 O -2.735140 -5.476948 1.979575 0
M  V30 28 C -3.442982 -5.050038 3.082696 0
M  V30 29 C -4.899862 -4.892750 2.750687 0
M  V30 30 C -3.887290 -0.717427 -1.662779 0
M  V30 31 C -2.736886 -0.159423 -2.239352 0
M  V30 32 C -1.747681 0.344208 -1.422838 0
M  V30 33 C -0.617281 0.887836 -2.184917 0
M  V30 34 O -0.861834 1.195073 -3.366688 0
M  V30 35 H 6.913500 3.626051 -1.130318 0
M  V30 36 H 8.348229 2.955443 -0.997498 0
M  V30 37 H 8.952898 1.759195 1.093664 0
M  V30 38 H 6.252775 -1.052524 2.665296 0
M  V30 39 H 4.572120 -0.268168 1.128092 0
M  V30 40 H 5.137389 2.514073 -1.379021 0
M  V30 41 H 3.606608 1.834061 -3.102344 0
M  V30 42 H 1.269612 1.459765 -3.663080 0
M  V30 43 H 2.724608 1.111738 0.975365 0
M  V30 44 H -1.262749 1.801937 1.306622 0
M  V30 45 H -1.202319 0.111004 1.926279 0
M  V30 46 H -3.270591 -0.346600 1.545712 0
M  V30 47 H -5.903885 -0.670446 1.745861 0
M  V30 48 H -6.956781 -1.918900 0.973712 0
M  V30 49 H -5.866308 -2.713176 3.054134 0
M  V30 50 H -4.270216 -2.242410 2.483097 0
M  V30 51 H -4.511979 -5.234578 0.122666 0
M  V30 52 H -4.220185 -3.525005 -0.242781 0
M  V30 53 H -2.337065 -3.534750 1.413321 0
M  V30 54 H -2.192456 -4.772029 0.140698 0
M  V30 55 H -3.023468 -4.121231 3.535961 0
M  V30 56 H -3.363708 -5.842245 3.854824 0
M  V30 57 H -5.340435 -5.867136 2.502853 0
M  V30 58 H -5.413576 -4.480911 3.634144 0
M  V30 59 H -4.563147 -1.065701 -2.462311 0
M  V30 60 H -2.551808 -0.086944 -3.300678 0
M  V30 END ATOM
M  V30 BEGIN BOND
M  V30 1 1 1 2
M  V30 2 2 2 3
M  V30 3 1 3 4
M  V30 4 1 4 5
M  V30 5 2 4 6
M  V30 6 1 6 7
M  V30 7 2 7 8
M  V30 8 1 8 9
M  V30 9 1 9 10
M  V30 10 2 10 11
M  V30 11 1 11 12
M  V30 12 2 12 13
M  V30 13 1 13 14
M  V30 14 2 14 15
M  V30 15 1 14 16
M  V30 16 1 16 17
M  V30 17 1 17 18
M  V30 18 2 18 19
M  V30 19 1 19 20
M  V30 20 1 20 21
M  V30 21 1 21 22
M  V30 22 1 22 23
M  V30 23 1 23 24
M  V30 24 1 24 25
M  V30 25 1 25 26
M  V30 26 1 26 27
M  V30 27 1 27 28
M  V30 28 1 28 29
M  V30 29 2 20 30
M  V30 30 1 30 31
M  V30 31 2 31 32
M  V30 32 1 32 33
M  V30 33 2 33 34
M  V30 34 1 8 2
M  V30 35 1 15 10
M  V30 36 1 32 18
M  V30 37 1 33 13
M  V30 38 1 29 24
M  V30 39 1 1 35
M  V30 40 1 1 36
M  V30 41 1 3 37
M  V30 42 1 6 38
M  V30 43 1 7 39
M  V30 44 1 9 40
M  V30 45 1 11 41
M  V30 46 1 12 42
M  V30 47 1 15 43
M  V30 48 1 17 44
M  V30 49 1 17 45
M  V30 50 1 19 46
M  V30 51 1 22 47
M  V30 52 1 22 48
M  V30 53 1 23 49
M  V30 54 1 23 50
M  V30 55 1 25 51
M  V30 56 1 25 52
M  V30 57 1 26 53
M  V30 58 1 26 54
M  V30 59 1 28 55
M  V30 60 1 28 56
M  V30 61 1 29 57
M  V30 62 1 29 58
M  V30 63 1 30 59
M  V30 64 1 31 60
M  V30 END BOND
M  V30 END CTAB
M  END
>  <Dataset>  (308) 
ChEMBL_Kinases

>  <Ligand_Instance>  (308) 
nan

>  <PDB_ID>  (308) 
nan

>  <Standardized_SMILES>  (308) 
Nc1cc(F)ccc1Nc1ccc2c(c1)OCc1cc(OCCN3CCOCC3)ccc1C2=O

>  <Name>  (308) 
nan

>  <Pocket>  (308) 
nan

>  <ATP_Site>  (308) 
nan

>  <Peripheral>  (308) 
nan

>  <Num_H_Atoms_ProtBoundConf>  (308) 
nan

>  <Num_Resolved_Atoms>  (308) 
nan

>  <Num_Not_Resolved_Atoms>  (308) 
nan

$$$$
CHEMBL3087468
     RDKit          3D

  0  0  0  0  0  0  0  0  0  0999 V3000
M  V30 BEGIN CTAB
M  V30 COUNTS 42 45 0 0 0
M  V30 BEGIN ATOM
M  V30 1 C -2.112238 -4.939837 -2.357802 0
M  V30 2 O -1.276850 -3.875599 -1.893757 0
M  V30 3 C 0.104814 -4.002420 -1.901732 0
M  V30 4 C 0.799063 -5.112792 -2.335621 0
M  V30 5 C 2.178705 -5.163534 -2.312358 0
M  V30 6 C 2.904918 -4.083819 -1.845634 0
M  V30 7 C 2.253618 -2.952036 -1.401614 0
M  V30 8 C 0.870402 -2.940789 -1.441220 0
M  V30 9 C 0.015807 -1.823482 -1.009828 0
M  V30 10 O -1.148332 -1.795483 -1.489818 0
M  V30 11 C 0.391530 -0.756922 -0.086263 0
M  V30 12 C -0.670459 0.051646 0.232458 0
M  V30 13 C -0.444604 1.100026 1.099748 0
M  V30 14 C 0.760014 1.414534 1.682738 0
M  V30 15 N 1.000629 2.460218 2.588619 0
M  V30 16 C 0.247447 3.050946 3.626342 0
M  V30 17 C -1.000821 2.673683 4.058324 0
M  V30 18 C -1.732669 3.267058 5.062175 0
M  V30 19 C -1.163955 4.347262 5.703153 0
M  V30 20 F -1.794167 5.006727 6.704354 0
M  V30 21 C 0.086377 4.766428 5.309240 0
M  V30 22 C 0.768350 4.130780 4.297210 0
M  V30 23 F 1.989989 4.628351 3.993569 0
M  V30 24 C 1.794266 0.547599 1.310921 0
M  V30 25 C 1.636896 -0.515290 0.451599 0
M  V30 26 O 2.799858 -1.240023 0.225280 0
M  V30 27 C 3.235184 -1.931377 -0.951366 0
M  V30 28 H -2.093542 -5.813338 -1.676043 0
M  V30 29 H -3.159056 -4.612139 -2.452933 0
M  V30 30 H -1.801982 -5.272924 -3.387044 0
M  V30 31 H 0.140691 -5.920979 -2.688609 0
M  V30 32 H 2.593505 -6.104297 -2.685499 0
M  V30 33 H 3.997948 -4.201244 -1.858978 0
M  V30 34 H -1.634715 -0.156923 -0.200336 0
M  V30 35 H -1.301800 1.691012 1.291294 0
M  V30 36 H 1.967819 2.869695 2.419532 0
M  V30 37 H -1.477398 1.826106 3.592552 0
M  V30 38 H -2.713217 2.906366 5.341641 0
M  V30 39 H 0.523261 5.618259 5.822147 0
M  V30 40 H 2.786675 0.707351 1.714320 0
M  V30 41 H 4.179531 -2.431739 -0.709595 0
M  V30 42 H 3.363401 -1.209607 -1.809455 0
M  V30 END ATOM
M  V30 BEGIN BOND
M  V30 1 1 1 2
M  V30 2 1 2 3
M  V30 3 2 3 4
M  V30 4 1 4 5
M  V30 5 2 5 6
M  V30 6 1 6 7
M  V30 7 2 7 8
M  V30 8 1 8 9
M  V30 9 2 9 10
M  V30 10 1 9 11
M  V30 11 2 11 12
M  V30 12 1 12 13
M  V30 13 2 13 14
M  V30 14 1 14 15
M  V30 15 1 15 16
M  V30 16 2 16 17
M  V30 17 1 17 18
M  V30 18 2 18 19
M  V30 19 1 19 20
M  V30 20 1 19 21
M  V30 21 2 21 22
M  V30 22 1 22 23
M  V30 23 1 14 24
M  V30 24 2 24 25
M  V30 25 1 25 26
M  V30 26 1 26 27
M  V30 27 1 8 3
M  V30 28 1 25 11
M  V30 29 1 27 7
M  V30 30 1 22 16
M  V30 31 1 1 28
M  V30 32 1 1 29
M  V30 33 1 1 30
M  V30 34 1 4 31
M  V30 35 1 5 32
M  V30 36 1 6 33
M  V30 37 1 12 34
M  V30 38 1 13 35
M  V30 39 1 15 36
M  V30 40 1 17 37
M  V30 41 1 18 38
M  V30 42 1 21 39
M  V30 43 1 24 40
M  V30 44 1 27 41
M  V30 45 1 27 42
M  V30 END BOND
M  V30 END CTAB
M  END
>  <Dataset>  (309) 
ChEMBL_Kinases

>  <Ligand_Instance>  (309) 
nan

>  <PDB_ID>  (309) 
nan

>  <Standardized_SMILES>  (309) 
COc1cccc2c1C(=O)c1ccc(Nc3ccc(F)cc3F)cc1OC2

>  <Name>  (309) 
nan

>  <Pocket>  (309) 
nan

>  <ATP_Site>  (309) 
nan

>  <Peripheral>  (309) 
nan

>  <Num_H_Atoms_ProtBoundConf>  (309) 
nan

>  <Num_Resolved_Atoms>  (309) 
nan

>  <Num_Not_Resolved_Atoms>  (309) 
nan

$$$$
CHEMBL3087469
     RDKit          3D

  0  0  0  0  0  0  0  0  0  0999 V3000
M  V30 BEGIN CTAB
M  V30 COUNTS 72 77 0 0 0
M  V30 BEGIN ATOM
M  V30 1 C -0.485838 -1.666536 5.771219 0
M  V30 2 C -0.773482 -0.223935 5.945354 0
M  V30 3 C -0.265219 0.617298 6.907940 0
M  V30 4 C -0.636311 1.952501 6.934459 0
M  V30 5 F -0.085260 2.711632 7.920329 0
M  V30 6 C -1.516770 2.451863 5.998881 0
M  V30 7 N -1.796465 3.827552 6.145704 0
M  V30 8 C -2.722558 4.627091 6.840773 0
M  V30 9 O -3.557526 4.031371 7.541132 0
M  V30 10 C -2.615407 6.048123 6.676270 0
M  V30 11 C -1.782218 6.772537 5.906864 0
M  V30 12 C -1.799373 8.164397 5.860768 0
M  V30 13 S -3.182672 8.630472 7.064690 0
M  V30 14 C -3.610397 6.863529 7.521009 0
M  V30 15 C -2.030246 1.590363 5.022292 0
M  V30 16 C -1.654430 0.248543 4.999350 0
M  V30 17 N -2.320460 -0.369688 3.907322 0
M  V30 18 C -1.968050 -1.049433 2.719708 0
M  V30 19 C -1.957603 -0.293655 1.561795 0
M  V30 20 C -1.641013 -0.769008 0.295023 0
M  V30 21 C -1.316167 -2.111389 0.230984 0
M  V30 22 C -1.314739 -2.901093 1.361907 0
M  V30 23 C -1.636906 -2.379224 2.595833 0
M  V30 24 O -1.003799 -4.251236 1.389910 0
M  V30 25 C -0.911185 -5.280553 0.461980 0
M  V30 26 C -0.339756 -4.927465 -0.842935 0
M  V30 27 C 0.333875 -5.983721 -1.438654 0
M  V30 28 C 0.939419 -5.828875 -2.678409 0
M  V30 29 C 0.902854 -4.617002 -3.382298 0
M  V30 30 O 1.574187 -4.742673 -4.566662 0
M  V30 31 C 1.794252 -3.783987 -5.559427 0
M  V30 32 C 2.575611 -2.589935 -5.171881 0
M  V30 33 N 2.807767 -1.603020 -6.173895 0
M  V30 34 C 3.665739 -1.959492 -7.243322 0
M  V30 35 C 3.067350 -1.840952 -8.623246 0
M  V30 36 O 2.405686 -0.599656 -8.677795 0
M  V30 37 C 1.261218 -0.775353 -7.887227 0
M  V30 38 C 1.747305 -0.713161 -6.449958 0
M  V30 39 C 0.229088 -3.600051 -2.763117 0
M  V30 40 C -0.370496 -3.739191 -1.543894 0
M  V30 41 C -0.998101 -2.477100 -1.167219 0
M  V30 42 O -1.274498 -1.672992 -2.093116 0
M  V30 43 H 0.167171 -1.982272 6.628554 0
M  V30 44 H -1.415762 -2.235339 5.743394 0
M  V30 45 H 0.090256 -1.768026 4.830578 0
M  V30 46 H 0.417329 0.162710 7.607814 0
M  V30 47 H -1.057358 4.233592 5.534018 0
M  V30 48 H -1.072387 6.250369 5.300155 0
M  V30 49 H -1.134718 8.785726 5.244204 0
M  V30 50 H -4.391620 6.438120 8.231071 0
M  V30 51 H -2.706052 2.142187 4.367075 0
M  V30 52 H -3.362226 -0.407991 3.825252 0
M  V30 53 H -2.208553 0.760812 1.585395 0
M  V30 54 H -1.642429 -0.153938 -0.587439 0
M  V30 55 H -1.640684 -2.990338 3.484604 0
M  V30 56 H -0.249378 -6.066985 0.932410 0
M  V30 57 H -1.861412 -5.830070 0.263874 0
M  V30 58 H 0.341233 -6.899345 -0.868102 0
M  V30 59 H 1.426932 -6.763261 -3.001115 0
M  V30 60 H 2.193325 -4.332863 -6.432714 0
M  V30 61 H 0.786802 -3.401499 -5.909805 0
M  V30 62 H 3.605557 -2.972059 -4.882695 0
M  V30 63 H 2.229873 -2.069670 -4.265905 0
M  V30 64 H 4.538415 -1.239323 -7.233903 0
M  V30 65 H 4.128827 -2.961169 -7.081071 0
M  V30 66 H 2.406189 -2.689237 -8.881034 0
M  V30 67 H 3.915283 -1.731064 -9.347736 0
M  V30 68 H 0.490340 -0.023985 -8.054894 0
M  V30 69 H 0.863151 -1.775371 -8.146576 0
M  V30 70 H 2.146167 0.324335 -6.315999 0
M  V30 71 H 0.937223 -0.811670 -5.704086 0
M  V30 72 H 0.203373 -2.697405 -3.313136 0
M  V30 END ATOM
M  V30 BEGIN BOND
M  V30 1 1 1 2
M  V30 2 2 2 3
M  V30 3 1 3 4
M  V30 4 1 4 5
M  V30 5 2 4 6
M  V30 6 1 6 7
M  V30 7 1 7 8
M  V30 8 2 8 9
M  V30 9 1 8 10
M  V30 10 1 10 11
M  V30 11 2 11 12
M  V30 12 1 12 13
M  V30 13 1 13 14
M  V30 14 1 6 15
M  V30 15 2 15 16
M  V30 16 1 16 17
M  V30 17 1 17 18
M  V30 18 2 18 19
M  V30 19 1 19 20
M  V30 20 2 20 21
M  V30 21 1 21 22
M  V30 22 2 22 23
M  V30 23 1 22 24
M  V30 24 1 24 25
M  V30 25 1 25 26
M  V30 26 2 26 27
M  V30 27 1 27 28
M  V30 28 2 28 29
M  V30 29 1 29 30
M  V30 30 1 30 31
M  V30 31 1 31 32
M  V30 32 1 32 33
M  V30 33 1 33 34
M  V30 34 1 34 35
M  V30 35 1 35 36
M  V30 36 1 36 37
M  V30 37 1 37 38
M  V30 38 1 29 39
M  V30 39 2 39 40
M  V30 40 1 40 41
M  V30 41 2 41 42
M  V30 42 1 16 2
M  V30 43 1 23 18
M  V30 44 1 40 26
M  V30 45 2 14 10
M  V30 46 1 41 21
M  V30 47 1 38 33
M  V30 48 1 1 43
M  V30 49 1 1 44
M  V30 50 1 1 45
M  V30 51 1 3 46
M  V30 52 1 7 47
M  V30 53 1 11 48
M  V30 54 1 12 49
M  V30 55 1 14 50
M  V30 56 1 15 51
M  V30 57 1 17 52
M  V30 58 1 19 53
M  V30 59 1 20 54
M  V30 60 1 23 55
M  V30 61 1 25 56
M  V30 62 1 25 57
M  V30 63 1 27 58
M  V30 64 1 28 59
M  V30 65 1 31 60
M  V30 66 1 31 61
M  V30 67 1 32 62
M  V30 68 1 32 63
M  V30 69 1 34 64
M  V30 70 1 34 65
M  V30 71 1 35 66
M  V30 72 1 35 67
M  V30 73 1 37 68
M  V30 74 1 37 69
M  V30 75 1 38 70
M  V30 76 1 38 71
M  V30 77 1 39 72
M  V30 END BOND
M  V30 END CTAB
M  END
>  <Dataset>  (310) 
ChEMBL_Kinases

>  <Ligand_Instance>  (310) 
nan

>  <PDB_ID>  (310) 
nan

>  <Standardized_SMILES>  (310) 
Cc1cc(F)c(NC(=O)c2ccsc2)cc1Nc1ccc2c(c1)OCc1ccc(OCCN3CCOCC3)cc1C2=O

>  <Name>  (310) 
nan

>  <Pocket>  (310) 
nan

>  <ATP_Site>  (310) 
nan

>  <Peripheral>  (310) 
nan

>  <Num_H_Atoms_ProtBoundConf>  (310) 
nan

>  <Num_Resolved_Atoms>  (310) 
nan

>  <Num_Not_Resolved_Atoms>  (310) 
nan

$$$$
CHEMBL3087470
     RDKit          3D

  0  0  0  0  0  0  0  0  0  0999 V3000
M  V30 BEGIN CTAB
M  V30 COUNTS 71 76 0 0 0
M  V30 BEGIN ATOM
M  V30 1 C 3.489360 -1.713082 3.348932 0
M  V30 2 C 3.828344 -0.251735 3.328102 0
M  V30 3 C 5.202352 -0.048384 3.182709 0
M  V30 4 C 5.648384 1.274351 3.153882 0
M  V30 5 F 6.993517 1.499011 3.011126 0
M  V30 6 C 4.766697 2.339340 3.264573 0
M  V30 7 N 5.332723 3.644176 3.221139 0
M  V30 8 C 5.476243 4.288359 1.993366 0
M  V30 9 O 5.081751 3.634074 1.027755 0
M  V30 10 C 6.055239 5.618915 1.964359 0
M  V30 11 C 6.140819 6.092688 0.713274 0
M  V30 12 C 6.680910 7.374243 0.497962 0
M  V30 13 S 7.105190 7.953673 2.251470 0
M  V30 14 C 6.496462 6.380675 3.072998 0
M  V30 15 C 3.426514 2.094271 3.405639 0
M  V30 16 C 2.952925 0.810817 3.437846 0
M  V30 17 N 1.592194 0.474604 3.585181 0
M  V30 18 C 0.756311 -0.246215 2.689701 0
M  V30 19 C 1.235866 -0.621887 1.452585 0
M  V30 20 C 0.406695 -1.332145 0.582897 0
M  V30 21 C -0.890955 -1.641891 0.996130 0
M  V30 22 C -1.306306 -1.234485 2.249106 0
M  V30 23 C -0.518320 -0.531479 3.137365 0
M  V30 24 O -2.598313 -1.512404 2.729487 0
M  V30 25 C -3.408204 -2.638147 2.683889 0
M  V30 26 C -3.654719 -3.205416 1.341020 0
M  V30 27 C -4.842930 -3.943577 1.303112 0
M  V30 28 C -5.208333 -4.541529 0.088506 0
M  V30 29 C -4.424094 -4.419845 -1.071245 0
M  V30 30 O -5.055826 -5.107383 -2.044185 0
M  V30 31 C -4.879786 -5.387648 -3.357545 0
M  V30 32 C -4.884998 -4.239268 -4.334880 0 CFG=1
M  V30 33 C -6.185283 -3.460845 -4.270444 0
M  V30 34 O -5.839542 -2.150783 -3.987149 0
M  V30 35 C -4.484519 -2.027140 -4.287080 0
M  V30 36 C -3.782007 -1.058041 -3.355099 0
M  V30 37 C -4.293343 -1.541117 -5.711569 0
M  V30 38 O -3.932851 -3.287773 -4.165745 0
M  V30 39 C -3.274796 -3.679563 -0.946742 0
M  V30 40 C -2.868140 -3.071900 0.216782 0
M  V30 41 C -1.607001 -2.386103 -0.051230 0
M  V30 42 O -1.099400 -2.417981 -1.200488 0
M  V30 43 H 4.225115 -2.278991 3.958923 0
M  V30 44 H 2.473278 -1.916968 3.730521 0
M  V30 45 H 3.548834 -2.122354 2.322693 0
M  V30 46 H 5.948374 -0.825605 3.090957 0
M  V30 47 H 5.621187 4.067912 4.138307 0
M  V30 48 H 5.926944 5.829347 -0.296795 0
M  V30 49 H 7.026447 8.284191 -0.045029 0
M  V30 50 H 6.403684 5.942980 4.089587 0
M  V30 51 H 2.745875 2.922054 3.491650 0
M  V30 52 H 1.269835 0.853993 4.500619 0
M  V30 53 H 2.219658 -0.403751 1.099340 0
M  V30 54 H 0.749580 -1.642729 -0.394284 0
M  V30 55 H -0.894305 -0.236822 4.106814 0
M  V30 56 H -4.418146 -2.309679 3.071324 0
M  V30 57 H -3.116793 -3.444337 3.415942 0
M  V30 58 H -5.383471 -3.987455 2.229652 0
M  V30 59 H -6.151836 -5.070448 0.243151 0
M  V30 60 H -3.987448 -6.031688 -3.586872 0
M  V30 61 H -5.741329 -6.065959 -3.674496 0
M  V30 62 H -4.843012 -4.705139 -5.365744 0
M  V30 63 H -6.770788 -3.510435 -5.210582 0
M  V30 64 H -6.816586 -3.848262 -3.417803 0
M  V30 65 H -3.835807 -0.017563 -3.730166 0
M  V30 66 H -2.689533 -1.301918 -3.286159 0
M  V30 67 H -4.155786 -1.129211 -2.310320 0
M  V30 68 H -3.383147 -2.038427 -6.104608 0
M  V30 69 H -5.147810 -1.841839 -6.353009 0
M  V30 70 H -4.100288 -0.451440 -5.742803 0
M  V30 71 H -2.714278 -3.630321 -1.848705 0
M  V30 END ATOM
M  V30 BEGIN BOND
M  V30 1 1 1 2
M  V30 2 2 2 3
M  V30 3 1 3 4
M  V30 4 1 4 5
M  V30 5 2 4 6
M  V30 6 1 6 7
M  V30 7 1 7 8
M  V30 8 2 8 9
M  V30 9 1 8 10
M  V30 10 1 10 11
M  V30 11 2 11 12
M  V30 12 1 12 13
M  V30 13 1 13 14
M  V30 14 1 6 15
M  V30 15 2 15 16
M  V30 16 1 16 17
M  V30 17 1 17 18
M  V30 18 2 18 19
M  V30 19 1 19 20
M  V30 20 2 20 21
M  V30 21 1 21 22
M  V30 22 2 22 23
M  V30 23 1 22 24
M  V30 24 1 24 25
M  V30 25 1 25 26
M  V30 26 2 26 27
M  V30 27 1 27 28
M  V30 28 2 28 29
M  V30 29 1 29 30
M  V30 30 1 30 31
M  V30 31 1 31 32
M  V30 32 1 32 33
M  V30 33 1 33 34
M  V30 34 1 34 35
M  V30 35 1 35 36
M  V30 36 1 35 37
M  V30 37 1 35 38
M  V30 38 1 29 39
M  V30 39 2 39 40
M  V30 40 1 40 41
M  V30 41 2 41 42
M  V30 42 1 16 2
M  V30 43 1 23 18
M  V30 44 1 40 26
M  V30 45 2 14 10
M  V30 46 1 41 21
M  V30 47 1 38 32
M  V30 48 1 1 43
M  V30 49 1 1 44
M  V30 50 1 1 45
M  V30 51 1 3 46
M  V30 52 1 7 47
M  V30 53 1 11 48
M  V30 54 1 12 49
M  V30 55 1 14 50
M  V30 56 1 15 51
M  V30 57 1 17 52
M  V30 58 1 19 53
M  V30 59 1 20 54
M  V30 60 1 23 55
M  V30 61 1 25 56
M  V30 62 1 25 57
M  V30 63 1 27 58
M  V30 64 1 28 59
M  V30 65 1 31 60
M  V30 66 1 31 61
M  V30 67 1 32 62 CFG=3
M  V30 68 1 33 63
M  V30 69 1 33 64
M  V30 70 1 36 65
M  V30 71 1 36 66
M  V30 72 1 36 67
M  V30 73 1 37 68
M  V30 74 1 37 69
M  V30 75 1 37 70
M  V30 76 1 39 71
M  V30 END BOND
M  V30 END CTAB
M  END
>  <Dataset>  (311) 
ChEMBL_Kinases

>  <Ligand_Instance>  (311) 
nan

>  <PDB_ID>  (311) 
nan

>  <Standardized_SMILES>  (311) 
Cc1cc(F)c(NC(=O)c2ccsc2)cc1Nc1ccc2c(c1)OCc1ccc(OC[C@H]3COC(C)(C)O3)cc1C2=O

>  <Name>  (311) 
nan

>  <Pocket>  (311) 
nan

>  <ATP_Site>  (311) 
nan

>  <Peripheral>  (311) 
nan

>  <Num_H_Atoms_ProtBoundConf>  (311) 
nan

>  <Num_Resolved_Atoms>  (311) 
nan

>  <Num_Not_Resolved_Atoms>  (311) 
nan

$$$$
CHEMBL3087471
     RDKit          3D

  0  0  0  0  0  0  0  0  0  0999 V3000
M  V30 BEGIN CTAB
M  V30 COUNTS 64 68 0 0 0
M  V30 BEGIN ATOM
M  V30 1 C 3.821730 -3.625662 5.064682 0
M  V30 2 C 3.950568 -2.217396 4.609664 0
M  V30 3 C 4.925596 -1.408974 5.119727 0
M  V30 4 C 4.999324 -0.120743 4.665232 0
M  V30 5 F 5.994014 0.585118 5.235746 0
M  V30 6 C 4.178720 0.458115 3.729479 0
M  V30 7 N 4.197825 1.756377 3.219024 0
M  V30 8 C 5.009461 2.877904 3.432921 0
M  V30 9 O 5.924398 2.735511 4.242682 0
M  V30 10 C 4.845436 4.154711 2.781720 0
M  V30 11 C 3.853806 4.394807 1.901128 0
M  V30 12 C 3.663674 5.619213 1.248138 0
M  V30 13 S 5.082084 6.622269 1.954574 0
M  V30 14 C 5.766479 5.258364 3.054640 0
M  V30 15 C 3.225346 -0.416926 3.264476 0
M  V30 16 C 3.085839 -1.717634 3.668473 0
M  V30 17 N 2.076251 -2.569460 3.168491 0
M  V30 18 C 0.998128 -2.421832 2.271034 0
M  V30 19 C 0.164354 -1.324250 2.224478 0
M  V30 20 C -0.880576 -1.120220 1.348277 0
M  V30 21 C -1.111549 -2.115469 0.429685 0
M  V30 22 C -0.324455 -3.247049 0.408609 0
M  V30 23 C 0.700231 -3.375505 1.317228 0
M  V30 24 O -0.500958 -4.289506 -0.489062 0
M  V30 25 C -1.636250 -4.831961 -1.135995 0
M  V30 26 C -2.395910 -3.827688 -1.929870 0
M  V30 27 C -2.894558 -4.316844 -3.135447 0
M  V30 28 C -3.629083 -3.468926 -3.974092 0
M  V30 29 C -3.881165 -2.130850 -3.636117 0
M  V30 30 O -4.615448 -1.559532 -4.641593 0
M  V30 31 C -5.112713 -0.277684 -4.769158 0
M  V30 32 C -6.088214 0.165253 -3.733497 0 CFG=2
M  V30 33 O -7.226161 -0.653724 -3.713157 0
M  V30 34 C -6.612885 1.540894 -4.175035 0
M  V30 35 O -7.559415 2.033232 -3.298920 0
M  V30 36 C -3.373777 -1.689889 -2.443837 0
M  V30 37 C -2.653847 -2.509437 -1.614975 0
M  V30 38 C -2.256447 -1.746429 -0.435490 0
M  V30 39 O -2.938326 -0.731227 -0.166047 0
M  V30 40 H 2.819290 -3.716941 5.538855 0
M  V30 41 H 4.634106 -3.834013 5.765796 0
M  V30 42 H 3.843418 -4.294811 4.173696 0
M  V30 43 H 5.582946 -1.835947 5.854256 0
M  V30 44 H 3.457210 1.988174 2.515922 0
M  V30 45 H 3.088914 3.719518 1.576003 0
M  V30 46 H 3.032623 6.074704 0.563412 0
M  V30 47 H 6.620561 5.246995 3.732612 0
M  V30 48 H 2.517764 -0.107856 2.515684 0
M  V30 49 H 2.056385 -3.579310 3.507623 0
M  V30 50 H 0.279267 -0.505512 2.932211 0
M  V30 51 H -1.503016 -0.249594 1.348720 0
M  V30 52 H 1.274328 -4.292528 1.237963 0
M  V30 53 H -2.311162 -5.230993 -0.323785 0
M  V30 54 H -1.287653 -5.642946 -1.798985 0
M  V30 55 H -2.667390 -5.335883 -3.328844 0
M  V30 56 H -3.940659 -4.021358 -4.875046 0
M  V30 57 H -5.671727 -0.251484 -5.754845 0
M  V30 58 H -4.302437 0.489429 -4.919331 0
M  V30 59 H -5.684800 0.241829 -2.733664 0
M  V30 60 H -7.831030 -0.368386 -4.464661 0
M  V30 61 H -7.055518 1.480412 -5.187315 0
M  V30 62 H -5.749445 2.248004 -4.112665 0
M  V30 63 H -7.174297 2.381033 -2.453011 0
M  V30 64 H -3.588738 -0.674867 -2.244702 0
M  V30 END ATOM
M  V30 BEGIN BOND
M  V30 1 1 1 2
M  V30 2 2 2 3
M  V30 3 1 3 4
M  V30 4 1 4 5
M  V30 5 2 4 6
M  V30 6 1 6 7
M  V30 7 1 7 8
M  V30 8 2 8 9
M  V30 9 1 8 10
M  V30 10 1 10 11
M  V30 11 2 11 12
M  V30 12 1 12 13
M  V30 13 1 13 14
M  V30 14 1 6 15
M  V30 15 2 15 16
M  V30 16 1 16 17
M  V30 17 1 17 18
M  V30 18 2 18 19
M  V30 19 1 19 20
M  V30 20 2 20 21
M  V30 21 1 21 22
M  V30 22 2 22 23
M  V30 23 1 22 24
M  V30 24 1 24 25
M  V30 25 1 25 26
M  V30 26 2 26 27
M  V30 27 1 27 28
M  V30 28 2 28 29
M  V30 29 1 29 30
M  V30 30 1 30 31
M  V30 31 1 31 32
M  V30 32 1 32 33
M  V30 33 1 32 34
M  V30 34 1 34 35
M  V30 35 1 29 36
M  V30 36 2 36 37
M  V30 37 1 37 38
M  V30 38 2 38 39
M  V30 39 1 16 2
M  V30 40 1 23 18
M  V30 41 1 37 26
M  V30 42 2 14 10
M  V30 43 1 38 21
M  V30 44 1 1 40
M  V30 45 1 1 41
M  V30 46 1 1 42
M  V30 47 1 3 43
M  V30 48 1 7 44
M  V30 49 1 11 45
M  V30 50 1 12 46
M  V30 51 1 14 47
M  V30 52 1 15 48
M  V30 53 1 17 49
M  V30 54 1 19 50
M  V30 55 1 20 51
M  V30 56 1 23 52
M  V30 57 1 25 53
M  V30 58 1 25 54
M  V30 59 1 27 55
M  V30 60 1 28 56
M  V30 61 1 31 57
M  V30 62 1 31 58
M  V30 63 1 32 59 CFG=1
M  V30 64 1 33 60
M  V30 65 1 34 61
M  V30 66 1 34 62
M  V30 67 1 35 63
M  V30 68 1 36 64
M  V30 END BOND
M  V30 END CTAB
M  END
>  <Dataset>  (312) 
ChEMBL_Kinases

>  <Ligand_Instance>  (312) 
nan

>  <PDB_ID>  (312) 
nan

>  <Standardized_SMILES>  (312) 
Cc1cc(F)c(NC(=O)c2ccsc2)cc1Nc1ccc2c(c1)OCc1ccc(OC[C@H](O)CO)cc1C2=O

>  <Name>  (312) 
nan

>  <Pocket>  (312) 
nan

>  <ATP_Site>  (312) 
nan

>  <Peripheral>  (312) 
nan

>  <Num_H_Atoms_ProtBoundConf>  (312) 
nan

>  <Num_Resolved_Atoms>  (312) 
nan

>  <Num_Not_Resolved_Atoms>  (312) 
nan

$$$$
CHEMBL3087472
     RDKit          3D

  0  0  0  0  0  0  0  0  0  0999 V3000
M  V30 BEGIN CTAB
M  V30 COUNTS 72 77 0 0 0
M  V30 BEGIN ATOM
M  V30 1 O 6.554574 -2.360022 -0.620357 0
M  V30 2 C 5.768636 -2.552022 0.345215 0
M  V30 3 N 5.543842 -1.459462 1.197553 0
M  V30 4 C 6.079374 -0.126946 1.140489 0
M  V30 5 C 5.355077 0.821434 0.409062 0
M  V30 6 C 5.729222 2.157279 0.252375 0
M  V30 7 N 4.939894 3.081979 -0.484097 0
M  V30 8 C 3.539874 3.027112 -0.721771 0
M  V30 9 C 2.862847 3.558353 -1.800879 0
M  V30 10 C 1.490384 3.459823 -1.921275 0
M  V30 11 C 0.760045 2.815111 -0.944258 0
M  V30 12 C 1.418235 2.279826 0.139453 0
M  V30 13 C 2.788047 2.377961 0.260524 0
M  V30 14 O 0.719031 1.624665 1.142876 0
M  V30 15 C -0.565342 1.834861 1.698580 0
M  V30 16 C -1.675103 1.631156 0.766501 0
M  V30 17 C -2.795724 0.929015 1.231635 0
M  V30 18 C -3.915987 0.680339 0.421204 0
M  V30 19 O -4.808110 -0.017498 1.181984 0
M  V30 20 C -6.051832 -0.515993 0.887065 0
M  V30 21 C -6.140447 -1.541421 -0.203920 0
M  V30 22 N -7.544011 -1.944019 -0.347945 0
M  V30 23 C -7.655673 -2.944816 -1.400774 0
M  V30 24 C -7.344027 -4.319747 -0.804800 0
M  V30 25 O -8.411585 -4.730602 0.013920 0
M  V30 26 C -9.047601 -3.619127 0.567312 0
M  V30 27 C -8.002228 -2.551900 0.886650 0
M  V30 28 C -3.866926 1.160432 -0.863067 0
M  V30 29 C -2.774587 1.849769 -1.330780 0
M  V30 30 C -1.673766 2.098007 -0.546809 0
M  V30 31 C -0.668154 2.850188 -1.325924 0
M  V30 32 O -1.059389 3.505103 -2.301736 0
M  V30 33 C 6.895199 2.566925 0.862019 0
M  V30 34 C 7.618313 1.641679 1.585777 0
M  V30 35 C 7.242501 0.308680 1.741343 0
M  V30 36 F 7.935799 -0.603742 2.441200 0
M  V30 37 C 5.107656 -3.825243 0.597134 0
M  V30 38 C 4.218379 -4.100822 1.649585 0
M  V30 39 C 3.659266 -5.352750 1.771085 0
M  V30 40 C 3.954797 -6.354262 0.874179 0
M  V30 41 C 4.816984 -6.146422 -0.175201 0
M  V30 42 C 5.375203 -4.871511 -0.283928 0
M  V30 43 H 4.919716 -1.473702 2.033917 0
M  V30 44 H 4.436424 0.450246 -0.076488 0
M  V30 45 H 5.454719 3.911218 -0.905882 0
M  V30 46 H 3.518176 4.043158 -2.510547 0
M  V30 47 H 1.016074 3.899451 -2.795578 0
M  V30 48 H 3.138764 1.915708 1.172595 0
M  V30 49 H -0.636018 2.852406 2.170524 0
M  V30 50 H -0.677569 1.096149 2.536822 0
M  V30 51 H -2.607276 0.649815 2.269201 0
M  V30 52 H -6.491870 -0.957055 1.818845 0
M  V30 53 H -6.758031 0.333699 0.638050 0
M  V30 54 H -5.542691 -2.442736 -0.000433 0
M  V30 55 H -5.867496 -1.123634 -1.186799 0
M  V30 56 H -8.700097 -2.911006 -1.774856 0
M  V30 57 H -6.941131 -2.759106 -2.226866 0
M  V30 58 H -7.124663 -5.061117 -1.599960 0
M  V30 59 H -6.465341 -4.255519 -0.130655 0
M  V30 60 H -9.545107 -3.972784 1.502520 0
M  V30 61 H -9.828767 -3.266418 -0.114686 0
M  V30 62 H -8.454396 -1.852838 1.587438 0
M  V30 63 H -7.179307 -3.096113 1.404495 0
M  V30 64 H -4.771108 0.925998 -1.398490 0
M  V30 65 H -2.805176 2.197992 -2.350999 0
M  V30 66 H 7.270368 3.579329 0.800224 0
M  V30 67 H 8.546704 1.863465 2.101432 0
M  V30 68 H 4.022950 -3.277793 2.324741 0
M  V30 69 H 2.978215 -5.554564 2.583073 0
M  V30 70 H 3.483835 -7.332314 1.013118 0
M  V30 71 H 5.072397 -6.910467 -0.899497 0
M  V30 72 H 6.047287 -4.710972 -1.101819 0
M  V30 END ATOM
M  V30 BEGIN BOND
M  V30 1 2 1 2
M  V30 2 1 2 3
M  V30 3 1 3 4
M  V30 4 2 4 5
M  V30 5 1 5 6
M  V30 6 1 6 7
M  V30 7 1 7 8
M  V30 8 2 8 9
M  V30 9 1 9 10
M  V30 10 2 10 11
M  V30 11 1 11 12
M  V30 12 2 12 13
M  V30 13 1 12 14
M  V30 14 1 14 15
M  V30 15 1 15 16
M  V30 16 2 16 17
M  V30 17 1 17 18
M  V30 18 1 18 19
M  V30 19 1 19 20
M  V30 20 1 20 21
M  V30 21 1 21 22
M  V30 22 1 22 23
M  V30 23 1 23 24
M  V30 24 1 24 25
M  V30 25 1 25 26
M  V30 26 1 26 27
M  V30 27 2 18 28
M  V30 28 1 28 29
M  V30 29 2 29 30
M  V30 30 1 30 31
M  V30 31 2 31 32
M  V30 32 2 6 33
M  V30 33 1 33 34
M  V30 34 2 34 35
M  V30 35 1 35 36
M  V30 36 1 2 37
M  V30 37 2 37 38
M  V30 38 1 38 39
M  V30 39 2 39 40
M  V30 40 1 40 41
M  V30 41 2 41 42
M  V30 42 1 35 4
M  V30 43 1 42 37
M  V30 44 1 13 8
M  V30 45 1 30 16
M  V30 46 1 31 11
M  V30 47 1 27 22
M  V30 48 1 3 43
M  V30 49 1 5 44
M  V30 50 1 7 45
M  V30 51 1 9 46
M  V30 52 1 10 47
M  V30 53 1 13 48
M  V30 54 1 15 49
M  V30 55 1 15 50
M  V30 56 1 17 51
M  V30 57 1 20 52
M  V30 58 1 20 53
M  V30 59 1 21 54
M  V30 60 1 21 55
M  V30 61 1 23 56
M  V30 62 1 23 57
M  V30 63 1 24 58
M  V30 64 1 24 59
M  V30 65 1 26 60
M  V30 66 1 26 61
M  V30 67 1 27 62
M  V30 68 1 27 63
M  V30 69 1 28 64
M  V30 70 1 29 65
M  V30 71 1 33 66
M  V30 72 1 34 67
M  V30 73 1 38 68
M  V30 74 1 39 69
M  V30 75 1 40 70
M  V30 76 1 41 71
M  V30 77 1 42 72
M  V30 END BOND
M  V30 END CTAB
M  END
>  <Dataset>  (313) 
ChEMBL_Kinases

>  <Ligand_Instance>  (313) 
nan

>  <PDB_ID>  (313) 
nan

>  <Standardized_SMILES>  (313) 
O=C(Nc1cc(Nc2ccc3c(c2)OCc2cc(OCCN4CCOCC4)ccc2C3=O)ccc1F)c1ccccc1

>  <Name>  (313) 
nan

>  <Pocket>  (313) 
nan

>  <ATP_Site>  (313) 
nan

>  <Peripheral>  (313) 
nan

>  <Num_H_Atoms_ProtBoundConf>  (313) 
nan

>  <Num_Resolved_Atoms>  (313) 
nan

>  <Num_Not_Resolved_Atoms>  (313) 
nan

$$$$
CHEMBL3087482
     RDKit          3D

  0  0  0  0  0  0  0  0  0  0999 V3000
M  V30 BEGIN CTAB
M  V30 COUNTS 60 64 0 0 0
M  V30 BEGIN ATOM
M  V30 1 C 5.296426 1.009887 5.583439 0
M  V30 2 C 5.689896 1.100978 4.107135 0
M  V30 3 C 6.641679 -0.059590 3.812007 0
M  V30 4 O 6.325365 2.292092 3.868000 0
M  V30 5 C 5.631742 2.906321 2.799308 0
M  V30 6 C 4.280202 2.284369 2.965855 0 CFG=1
M  V30 7 C 3.396740 2.397287 1.762166 0
M  V30 8 C 3.917492 1.767044 0.533611 0
M  V30 9 O 3.075612 1.888098 -0.572730 0
M  V30 10 C 1.809016 1.409484 -0.757331 0
M  V30 11 C 1.416008 1.829327 -2.041633 0
M  V30 12 C 0.153000 1.507655 -2.564117 0
M  V30 13 C -0.711921 0.762756 -1.790174 0
M  V30 14 C -0.347210 0.340582 -0.528731 0
M  V30 15 C 0.897640 0.668626 -0.038111 0
M  V30 16 C -1.040345 -0.443686 0.498743 0
M  V30 17 O -1.929342 -1.417645 0.014641 0
M  V30 18 C -2.868450 -1.419548 -1.006459 0
M  V30 19 C -3.862553 -2.368970 -0.902715 0
M  V30 20 C -4.895648 -2.559117 -1.792270 0
M  V30 21 N -5.887030 -3.531788 -1.712354 0
M  V30 22 C -5.928947 -4.869847 -1.264033 0
M  V30 23 C -4.876144 -5.614648 -0.787828 0
M  V30 24 C -4.947533 -6.910125 -0.344455 0
M  V30 25 C -6.158640 -7.546719 -0.364983 0
M  V30 26 F -6.317312 -8.817324 0.052088 0
M  V30 27 C -7.250511 -6.848007 -0.833300 0
M  V30 28 C -7.126648 -5.548730 -1.267130 0
M  V30 29 F -8.280449 -4.951615 -1.711845 0
M  V30 30 C -4.846406 -1.662533 -2.858954 0
M  V30 31 C -3.904742 -0.682078 -3.057975 0
M  V30 32 C -2.917854 -0.584886 -2.103960 0
M  V30 33 C -1.990671 0.494322 -2.445152 0
M  V30 34 O -2.278519 1.285356 -3.378432 0
M  V30 35 O 4.568877 0.993043 3.326826 0
M  V30 36 H 4.232588 1.219533 5.746167 0
M  V30 37 H 5.463718 -0.049874 5.930302 0
M  V30 38 H 5.958118 1.652540 6.205398 0
M  V30 39 H 6.949747 -0.547784 4.752126 0
M  V30 40 H 7.554640 0.311730 3.302210 0
M  V30 41 H 6.149828 -0.796200 3.164407 0
M  V30 42 H 6.174259 2.617363 1.902502 0
M  V30 43 H 5.619813 3.996603 2.870568 0
M  V30 44 H 3.770306 2.793597 3.809055 0
M  V30 45 H 2.396793 2.074896 2.076870 0
M  V30 46 H 3.278219 3.506586 1.567211 0
M  V30 47 H 4.974106 2.007278 0.302663 0
M  V30 48 H 3.965529 0.650596 0.747635 0
M  V30 49 H 1.951100 2.417542 -2.793957 0
M  V30 50 H -0.232367 1.784718 -3.533126 0
M  V30 51 H 1.305720 0.394128 0.918338 0
M  V30 52 H -0.342642 -0.936703 1.191451 0
M  V30 53 H -1.614495 0.304709 1.120084 0
M  V30 54 H -3.783271 -2.983254 -0.019261 0
M  V30 55 H -6.808389 -3.141458 -2.077134 0
M  V30 56 H -3.896734 -5.171376 -0.758811 0
M  V30 57 H -4.064285 -7.434552 0.019974 0
M  V30 58 H -8.210765 -7.347493 -0.851645 0
M  V30 59 H -5.639433 -1.745518 -3.619950 0
M  V30 60 H -3.928246 -0.022939 -3.907356 0
M  V30 END ATOM
M  V30 BEGIN BOND
M  V30 1 1 1 2
M  V30 2 1 2 3
M  V30 3 1 2 4
M  V30 4 1 4 5
M  V30 5 1 5 6
M  V30 6 1 6 7
M  V30 7 1 7 8
M  V30 8 1 8 9
M  V30 9 1 9 10
M  V30 10 2 10 11
M  V30 11 1 11 12
M  V30 12 2 12 13
M  V30 13 1 13 14
M  V30 14 2 14 15
M  V30 15 1 14 16
M  V30 16 1 16 17
M  V30 17 1 17 18
M  V30 18 2 18 19
M  V30 19 1 19 20
M  V30 20 1 20 21
M  V30 21 1 21 22
M  V30 22 2 22 23
M  V30 23 1 23 24
M  V30 24 2 24 25
M  V30 25 1 25 26
M  V30 26 1 25 27
M  V30 27 2 27 28
M  V30 28 1 28 29
M  V30 29 2 20 30
M  V30 30 1 30 31
M  V30 31 2 31 32
M  V30 32 1 32 33
M  V30 33 2 33 34
M  V30 34 1 6 35
M  V30 35 1 35 2
M  V30 36 1 15 10
M  V30 37 1 32 18
M  V30 38 1 33 13
M  V30 39 1 28 22
M  V30 40 1 1 36
M  V30 41 1 1 37
M  V30 42 1 1 38
M  V30 43 1 3 39
M  V30 44 1 3 40
M  V30 45 1 3 41
M  V30 46 1 5 42
M  V30 47 1 5 43
M  V30 48 1 6 44 CFG=1
M  V30 49 1 7 45
M  V30 50 1 7 46
M  V30 51 1 8 47
M  V30 52 1 8 48
M  V30 53 1 11 49
M  V30 54 1 12 50
M  V30 55 1 15 51
M  V30 56 1 16 52
M  V30 57 1 16 53
M  V30 58 1 19 54
M  V30 59 1 21 55
M  V30 60 1 23 56
M  V30 61 1 24 57
M  V30 62 1 27 58
M  V30 63 1 30 59
M  V30 64 1 31 60
M  V30 END BOND
M  V30 END CTAB
M  END
>  <Dataset>  (314) 
ChEMBL_Kinases

>  <Ligand_Instance>  (314) 
nan

>  <PDB_ID>  (314) 
nan

>  <Standardized_SMILES>  (314) 
CC1(C)OC[C@@H](CCOc2ccc3c(c2)COc2cc(Nc4ccc(F)cc4F)ccc2C3=O)O1

>  <Name>  (314) 
nan

>  <Pocket>  (314) 
nan

>  <ATP_Site>  (314) 
nan

>  <Peripheral>  (314) 
nan

>  <Num_H_Atoms_ProtBoundConf>  (314) 
nan

>  <Num_Resolved_Atoms>  (314) 
nan

>  <Num_Not_Resolved_Atoms>  (314) 
nan

$$$$
CHEMBL3087474
     RDKit          3D

  0  0  0  0  0  0  0  0  0  0999 V3000
M  V30 BEGIN CTAB
M  V30 COUNTS 69 74 0 0 0
M  V30 BEGIN ATOM
M  V30 1 O 2.841194 -0.750105 5.628679 0
M  V30 2 C 3.048338 -1.579303 4.684060 0
M  V30 3 N 3.706882 -1.267898 3.478108 0
M  V30 4 C 4.222150 0.023994 3.174453 0
M  V30 5 C 5.542643 0.299688 3.543483 0
M  V30 6 C 6.036924 1.551594 3.247511 0
M  V30 7 C 5.279459 2.506896 2.614845 0
M  V30 8 C 3.976570 2.274840 2.235362 0
M  V30 9 N 3.183520 3.263805 1.596524 0
M  V30 10 C 2.023214 3.190376 0.786323 0
M  V30 11 C 1.200793 4.304893 0.703770 0
M  V30 12 C 0.072113 4.324862 -0.061916 0
M  V30 13 C -0.274157 3.202620 -0.784457 0
M  V30 14 C 0.501657 2.064215 -0.744587 0
M  V30 15 C 1.626577 2.099733 0.042012 0
M  V30 16 O 0.266152 0.879726 -1.418151 0
M  V30 17 C -0.910137 0.175787 -1.680364 0
M  V30 18 C -2.056444 0.985911 -2.122805 0
M  V30 19 C -3.003999 0.125083 -2.685022 0
M  V30 20 O -2.772061 -1.243779 -2.752941 0
M  V30 21 C -3.783270 -2.044846 -3.336290 0
M  V30 22 C -3.377272 -3.503675 -3.335171 0
M  V30 23 N -3.133302 -4.048842 -2.041754 0
M  V30 24 C -1.988031 -3.550965 -1.352567 0
M  V30 25 C -1.548222 -4.664205 -0.394255 0
M  V30 26 O -2.569544 -5.558383 -0.129260 0
M  V30 27 C -3.814588 -4.962400 0.041521 0
M  V30 28 C -4.286058 -4.292443 -1.235664 0
M  V30 29 C -4.176752 0.707865 -3.166529 0
M  V30 30 C -4.439358 2.057818 -3.115908 0
M  V30 31 C -3.514608 2.896644 -2.567490 0
M  V30 32 C -2.351792 2.336603 -2.087668 0
M  V30 33 C -1.509157 3.398144 -1.547715 0
M  V30 34 O -1.854270 4.610940 -1.742508 0
M  V30 35 C 3.509355 1.019788 2.542735 0
M  V30 36 C 2.547506 -2.929522 4.922689 0
M  V30 37 C 1.886955 -3.377857 6.049432 0
M  V30 38 C 1.612442 -4.727635 5.810134 0
M  V30 39 O 2.072703 -5.048651 4.639800 0
M  V30 40 C 2.643579 -4.023462 4.053724 0
M  V30 41 H 3.812670 -2.039920 2.782149 0
M  V30 42 H 6.176601 -0.407969 4.038068 0
M  V30 43 H 7.060065 1.788442 3.524937 0
M  V30 44 H 5.734970 3.477361 2.411713 0
M  V30 45 H 3.556602 4.248681 1.777664 0
M  V30 46 H 1.461105 5.197249 1.267840 0
M  V30 47 H -0.571787 5.185278 -0.131853 0
M  V30 48 H 2.232467 1.230108 0.064981 0
M  V30 49 H -0.743584 -0.576659 -2.508267 0
M  V30 50 H -1.221331 -0.427801 -0.802133 0
M  V30 51 H -4.708601 -1.862375 -2.785311 0
M  V30 52 H -3.986090 -1.777689 -4.399593 0
M  V30 53 H -4.174934 -4.118359 -3.800992 0
M  V30 54 H -2.482353 -3.653559 -3.972216 0
M  V30 55 H -2.177364 -2.629024 -0.772682 0
M  V30 56 H -1.212882 -3.333607 -2.112368 0
M  V30 57 H -1.078080 -4.251546 0.522935 0
M  V30 58 H -0.737455 -5.245045 -0.895889 0
M  V30 59 H -4.506154 -5.784518 0.324965 0
M  V30 60 H -3.852338 -4.222632 0.850925 0
M  V30 61 H -4.917851 -5.025482 -1.814229 0
M  V30 62 H -4.860730 -3.381677 -1.037790 0
M  V30 63 H -4.923253 0.051610 -3.606639 0
M  V30 64 H -5.354406 2.449019 -3.499851 0
M  V30 65 H -3.702500 3.956360 -2.519153 0
M  V30 66 H 2.511027 0.704402 2.317223 0
M  V30 67 H 1.625567 -2.818780 6.943262 0
M  V30 68 H 1.086585 -5.326575 6.559711 0
M  V30 69 H 3.125172 -3.938920 3.084771 0
M  V30 END ATOM
M  V30 BEGIN BOND
M  V30 1 2 1 2
M  V30 2 1 2 3
M  V30 3 1 3 4
M  V30 4 2 4 5
M  V30 5 1 5 6
M  V30 6 2 6 7
M  V30 7 1 7 8
M  V30 8 1 8 9
M  V30 9 1 9 10
M  V30 10 2 10 11
M  V30 11 1 11 12
M  V30 12 2 12 13
M  V30 13 1 13 14
M  V30 14 2 14 15
M  V30 15 1 14 16
M  V30 16 1 16 17
M  V30 17 1 17 18
M  V30 18 2 18 19
M  V30 19 1 19 20
M  V30 20 1 20 21
M  V30 21 1 21 22
M  V30 22 1 22 23
M  V30 23 1 23 24
M  V30 24 1 24 25
M  V30 25 1 25 26
M  V30 26 1 26 27
M  V30 27 1 27 28
M  V30 28 1 19 29
M  V30 29 2 29 30
M  V30 30 1 30 31
M  V30 31 2 31 32
M  V30 32 1 32 33
M  V30 33 2 33 34
M  V30 34 2 8 35
M  V30 35 1 2 36
M  V30 36 1 36 37
M  V30 37 2 37 38
M  V30 38 1 38 39
M  V30 39 1 39 40
M  V30 40 1 35 4
M  V30 41 2 40 36
M  V30 42 1 15 10
M  V30 43 1 32 18
M  V30 44 1 33 13
M  V30 45 1 28 23
M  V30 46 1 3 41
M  V30 47 1 5 42
M  V30 48 1 6 43
M  V30 49 1 7 44
M  V30 50 1 9 45
M  V30 51 1 11 46
M  V30 52 1 12 47
M  V30 53 1 15 48
M  V30 54 1 17 49
M  V30 55 1 17 50
M  V30 56 1 21 51
M  V30 57 1 21 52
M  V30 58 1 22 53
M  V30 59 1 22 54
M  V30 60 1 24 55
M  V30 61 1 24 56
M  V30 62 1 25 57
M  V30 63 1 25 58
M  V30 64 1 27 59
M  V30 65 1 27 60
M  V30 66 1 28 61
M  V30 67 1 28 62
M  V30 68 1 29 63
M  V30 69 1 30 64
M  V30 70 1 31 65
M  V30 71 1 35 66
M  V30 72 1 37 67
M  V30 73 1 38 68
M  V30 74 1 40 69
M  V30 END BOND
M  V30 END CTAB
M  END
>  <Dataset>  (315) 
ChEMBL_Kinases

>  <Ligand_Instance>  (315) 
nan

>  <PDB_ID>  (315) 
nan

>  <Standardized_SMILES>  (315) 
O=C(Nc1cccc(Nc2ccc3c(c2)OCc2c(OCCN4CCOCC4)cccc2C3=O)c1)c1ccoc1

>  <Name>  (315) 
nan

>  <Pocket>  (315) 
nan

>  <ATP_Site>  (315) 
nan

>  <Peripheral>  (315) 
nan

>  <Num_H_Atoms_ProtBoundConf>  (315) 
nan

>  <Num_Resolved_Atoms>  (315) 
nan

>  <Num_Not_Resolved_Atoms>  (315) 
nan

$$$$
CHEMBL3087475
     RDKit          3D

  0  0  0  0  0  0  0  0  0  0999 V3000
M  V30 BEGIN CTAB
M  V30 COUNTS 57 61 0 0 0
M  V30 BEGIN ATOM
M  V30 1 C 3.772372 1.012125 3.597335 0
M  V30 2 C 3.742486 2.441930 3.065302 0
M  V30 3 C 2.807799 3.231390 3.925553 0
M  V30 4 O 5.010912 3.008975 3.118631 0
M  V30 5 C 5.611739 2.741884 1.892054 0
M  V30 6 C 4.423011 2.756308 0.946106 0 CFG=1
M  V30 7 C 4.770850 1.916291 -0.232738 0
M  V30 8 O 3.823788 1.736338 -1.214215 0
M  V30 9 C 2.613610 1.150234 -1.214937 0
M  V30 10 C 2.112657 1.310012 -2.522888 0
M  V30 11 C 0.852443 0.812155 -2.893286 0
M  V30 12 C 0.071422 0.144900 -1.959022 0
M  V30 13 C 0.547762 -0.018304 -0.680754 0
M  V30 14 C 1.768353 0.478221 -0.369582 0
M  V30 15 C -0.020028 -0.658985 0.499553 0
M  V30 16 O 0.510025 -0.419019 1.612995 0
M  V30 17 C -1.185779 -1.571565 0.431207 0
M  V30 18 C -1.510173 -2.008591 1.697021 0
M  V30 19 C -2.555042 -2.870878 1.936222 0
M  V30 20 C -3.261651 -3.272749 0.822804 0
M  V30 21 N -4.361634 -4.163594 0.957547 0
M  V30 22 C -5.268788 -4.760642 0.062829 0
M  V30 23 C -6.625172 -4.613115 0.073533 0
M  V30 24 C -7.388464 -5.265289 -0.872208 0
M  V30 25 C -6.819399 -6.071364 -1.840128 0
M  V30 26 F -7.609853 -6.696017 -2.753611 0
M  V30 27 C -5.449344 -6.211174 -1.839083 0
M  V30 28 C -4.669833 -5.566609 -0.901037 0
M  V30 29 F -3.340641 -5.831296 -1.067026 0
M  V30 30 C -2.986813 -2.871881 -0.464773 0
M  V30 31 C -1.921922 -1.997967 -0.674145 0
M  V30 32 O -1.629283 -1.582632 -1.964770 0
M  V30 33 C -1.236218 -0.326765 -2.475966 0
M  V30 34 O 3.385950 2.380254 1.727416 0
M  V30 35 H 4.684523 0.902905 4.220379 0
M  V30 36 H 3.817413 0.286920 2.736251 0
M  V30 37 H 2.918265 0.782819 4.237026 0
M  V30 38 H 2.009050 2.566281 4.365221 0
M  V30 39 H 3.379270 3.565584 4.838768 0
M  V30 40 H 2.381645 4.126745 3.470915 0
M  V30 41 H 6.291500 3.539145 1.592367 0
M  V30 42 H 6.062307 1.727574 1.847428 0
M  V30 43 H 4.264991 3.830986 0.674156 0
M  V30 44 H 5.714095 2.338413 -0.719389 0
M  V30 45 H 5.134704 0.888524 0.106236 0
M  V30 46 H 2.533968 1.786329 -3.405264 0
M  V30 47 H 0.372585 0.876353 -3.857792 0
M  V30 48 H 2.180323 0.360184 0.593745 0
M  V30 49 H -0.911104 -1.652157 2.529868 0
M  V30 50 H -2.836864 -3.233317 2.914568 0
M  V30 51 H -4.635705 -4.508827 1.892882 0
M  V30 52 H -7.053737 -3.969916 0.849192 0
M  V30 53 H -8.474749 -5.121376 -0.830364 0
M  V30 54 H -5.067630 -6.864184 -2.633683 0
M  V30 55 H -3.498627 -3.150959 -1.355145 0
M  V30 56 H -1.995648 0.460725 -2.219071 0
M  V30 57 H -1.193704 -0.395083 -3.583138 0
M  V30 END ATOM
M  V30 BEGIN BOND
M  V30 1 1 1 2
M  V30 2 1 2 3
M  V30 3 1 2 4
M  V30 4 1 4 5
M  V30 5 1 5 6
M  V30 6 1 6 7
M  V30 7 1 7 8
M  V30 8 1 8 9
M  V30 9 2 9 10
M  V30 10 1 10 11
M  V30 11 2 11 12
M  V30 12 1 12 13
M  V30 13 2 13 14
M  V30 14 1 13 15
M  V30 15 2 15 16
M  V30 16 1 15 17
M  V30 17 2 17 18
M  V30 18 1 18 19
M  V30 19 2 19 20
M  V30 20 1 20 21
M  V30 21 1 21 22
M  V30 22 2 22 23
M  V30 23 1 23 24
M  V30 24 2 24 25
M  V30 25 1 25 26
M  V30 26 1 25 27
M  V30 27 2 27 28
M  V30 28 1 28 29
M  V30 29 1 20 30
M  V30 30 2 30 31
M  V30 31 1 31 32
M  V30 32 1 32 33
M  V30 33 1 6 34
M  V30 34 1 34 2
M  V30 35 1 14 9
M  V30 36 1 31 17
M  V30 37 1 33 12
M  V30 38 1 28 22
M  V30 39 1 1 35
M  V30 40 1 1 36
M  V30 41 1 1 37
M  V30 42 1 3 38
M  V30 43 1 3 39
M  V30 44 1 3 40
M  V30 45 1 5 41
M  V30 46 1 5 42
M  V30 47 1 6 43 CFG=3
M  V30 48 1 7 44
M  V30 49 1 7 45
M  V30 50 1 10 46
M  V30 51 1 11 47
M  V30 52 1 14 48
M  V30 53 1 18 49
M  V30 54 1 19 50
M  V30 55 1 21 51
M  V30 56 1 23 52
M  V30 57 1 24 53
M  V30 58 1 27 54
M  V30 59 1 30 55
M  V30 60 1 33 56
M  V30 61 1 33 57
M  V30 END BOND
M  V30 END CTAB
M  END
>  <Dataset>  (316) 
ChEMBL_Kinases

>  <Ligand_Instance>  (316) 
nan

>  <PDB_ID>  (316) 
nan

>  <Standardized_SMILES>  (316) 
CC1(C)OC[C@@H](COc2ccc3c(c2)C(=O)c2ccc(Nc4ccc(F)cc4F)cc2OC3)O1

>  <Name>  (316) 
nan

>  <Pocket>  (316) 
nan

>  <ATP_Site>  (316) 
nan

>  <Peripheral>  (316) 
nan

>  <Num_H_Atoms_ProtBoundConf>  (316) 
nan

>  <Num_Resolved_Atoms>  (316) 
nan

>  <Num_Not_Resolved_Atoms>  (316) 
nan

$$$$
CHEMBL3087476
     RDKit          3D

  0  0  0  0  0  0  0  0  0  0999 V3000
M  V30 BEGIN CTAB
M  V30 COUNTS 57 61 0 0 0
M  V30 BEGIN ATOM
M  V30 1 C 5.115059 0.438270 3.491740 0
M  V30 2 C 4.295609 1.425993 2.709566 0
M  V30 3 C 2.966235 1.605007 3.405362 0
M  V30 4 O 4.966758 2.647184 2.689317 0
M  V30 5 C 5.821255 2.571943 1.578970 0
M  V30 6 C 4.925806 1.819268 0.590106 0 CFG=2
M  V30 7 C 4.261583 2.753631 -0.363740 0
M  V30 8 O 3.439331 2.226030 -1.321320 0
M  V30 9 C 2.285512 1.528665 -1.336525 0
M  V30 10 C 1.988590 1.279847 -2.690033 0
M  V30 11 C 0.845391 0.571332 -3.071345 0
M  V30 12 C -0.015275 0.104131 -2.077255 0
M  V30 13 C 0.246786 0.331333 -0.743131 0
M  V30 14 C 1.374814 1.026899 -0.441344 0
M  V30 15 C -0.433248 -0.013452 0.502988 0
M  V30 16 O -0.049376 0.496235 1.582965 0
M  V30 17 C -1.576031 -0.957774 0.530446 0
M  V30 18 C -2.088242 -1.055577 1.807919 0
M  V30 19 C -3.159722 -1.872138 2.103289 0
M  V30 20 C -3.711764 -2.598560 1.067941 0
M  V30 21 N -4.805598 -3.451367 1.287543 0
M  V30 22 C -5.531742 -4.313359 0.436159 0
M  V30 23 C -6.871994 -4.296153 0.109650 0
M  V30 24 C -7.392079 -5.243176 -0.753336 0
M  V30 25 C -6.608439 -6.225621 -1.313089 0
M  V30 26 F -7.164503 -7.140130 -2.160040 0
M  V30 27 C -5.252605 -6.246577 -0.985486 0
M  V30 28 C -4.722402 -5.307129 -0.125784 0
M  V30 29 F -3.388013 -5.502491 0.063195 0
M  V30 30 C -3.239312 -2.538240 -0.226863 0
M  V30 31 C -2.161225 -1.706645 -0.485163 0
M  V30 32 O -1.676963 -1.641168 -1.797920 0
M  V30 33 C -1.187477 -0.629242 -2.619613 0
M  V30 34 O 4.132756 1.051500 1.379434 0
M  V30 35 H 6.156242 0.808981 3.660527 0
M  V30 36 H 5.194216 -0.533034 2.939364 0
M  V30 37 H 4.711454 0.236282 4.517929 0
M  V30 38 H 2.540410 2.622456 3.258121 0
M  V30 39 H 3.129177 1.384127 4.500846 0
M  V30 40 H 2.274365 0.837398 3.011239 0
M  V30 41 H 6.704098 1.962958 1.828063 0
M  V30 42 H 6.045937 3.590839 1.225210 0
M  V30 43 H 5.636071 1.161139 0.007248 0
M  V30 44 H 5.095041 3.308658 -0.906828 0
M  V30 45 H 3.745051 3.534811 0.280051 0
M  V30 46 H 2.522180 1.554711 -3.595164 0
M  V30 47 H 0.524252 0.326348 -4.067545 0
M  V30 48 H 1.634752 1.251873 0.558557 0
M  V30 49 H -1.626842 -0.466183 2.603188 0
M  V30 50 H -3.561802 -1.947261 3.112333 0
M  V30 51 H -5.226105 -3.522279 2.239550 0
M  V30 52 H -7.414981 -3.498015 0.588209 0
M  V30 53 H -8.436300 -5.187944 -0.975572 0
M  V30 54 H -4.713294 -7.047727 -1.467239 0
M  V30 55 H -3.616934 -3.070965 -1.078223 0
M  V30 56 H -1.997097 0.130853 -2.789980 0
M  V30 57 H -0.887347 -1.090246 -3.583393 0
M  V30 END ATOM
M  V30 BEGIN BOND
M  V30 1 1 1 2
M  V30 2 1 2 3
M  V30 3 1 2 4
M  V30 4 1 4 5
M  V30 5 1 5 6
M  V30 6 1 6 7
M  V30 7 1 7 8
M  V30 8 1 8 9
M  V30 9 2 9 10
M  V30 10 1 10 11
M  V30 11 2 11 12
M  V30 12 1 12 13
M  V30 13 2 13 14
M  V30 14 1 13 15
M  V30 15 2 15 16
M  V30 16 1 15 17
M  V30 17 2 17 18
M  V30 18 1 18 19
M  V30 19 2 19 20
M  V30 20 1 20 21
M  V30 21 1 21 22
M  V30 22 2 22 23
M  V30 23 1 23 24
M  V30 24 2 24 25
M  V30 25 1 25 26
M  V30 26 1 25 27
M  V30 27 2 27 28
M  V30 28 1 28 29
M  V30 29 1 20 30
M  V30 30 2 30 31
M  V30 31 1 31 32
M  V30 32 1 32 33
M  V30 33 1 6 34
M  V30 34 1 34 2
M  V30 35 1 14 9
M  V30 36 1 31 17
M  V30 37 1 33 12
M  V30 38 1 28 22
M  V30 39 1 1 35
M  V30 40 1 1 36
M  V30 41 1 1 37
M  V30 42 1 3 38
M  V30 43 1 3 39
M  V30 44 1 3 40
M  V30 45 1 5 41
M  V30 46 1 5 42
M  V30 47 1 6 43 CFG=3
M  V30 48 1 7 44
M  V30 49 1 7 45
M  V30 50 1 10 46
M  V30 51 1 11 47
M  V30 52 1 14 48
M  V30 53 1 18 49
M  V30 54 1 19 50
M  V30 55 1 21 51
M  V30 56 1 23 52
M  V30 57 1 24 53
M  V30 58 1 27 54
M  V30 59 1 30 55
M  V30 60 1 33 56
M  V30 61 1 33 57
M  V30 END BOND
M  V30 END CTAB
M  END
>  <Dataset>  (317) 
ChEMBL_Kinases

>  <Ligand_Instance>  (317) 
nan

>  <PDB_ID>  (317) 
nan

>  <Standardized_SMILES>  (317) 
CC1(C)OC[C@H](COc2ccc3c(c2)C(=O)c2ccc(Nc4ccc(F)cc4F)cc2OC3)O1

>  <Name>  (317) 
nan

>  <Pocket>  (317) 
nan

>  <ATP_Site>  (317) 
nan

>  <Peripheral>  (317) 
nan

>  <Num_H_Atoms_ProtBoundConf>  (317) 
nan

>  <Num_Resolved_Atoms>  (317) 
nan

>  <Num_Not_Resolved_Atoms>  (317) 
nan

$$$$
CHEMBL3087477
     RDKit          3D

  0  0  0  0  0  0  0  0  0  0999 V3000
M  V30 BEGIN CTAB
M  V30 COUNTS 61 65 0 0 0
M  V30 BEGIN ATOM
M  V30 1 C 4.595371 2.203418 3.053364 0
M  V30 2 C 4.148531 3.268823 3.999596 0
M  V30 3 C 4.457131 3.001701 5.322311 0
M  V30 4 C 4.119535 3.888543 6.329115 0
M  V30 5 C 3.464012 5.043635 5.944806 0
M  V30 6 C 3.133850 5.356401 4.640744 0
M  V30 7 C 3.483220 4.452453 3.657633 0
M  V30 8 N 3.219710 4.628048 2.263912 0
M  V30 9 C 2.393495 3.723459 1.499477 0
M  V30 10 C 2.263995 3.833962 0.113698 0
M  V30 11 C 1.446116 2.939241 -0.570347 0
M  V30 12 C 0.773660 1.954309 0.129925 0
M  V30 13 C 0.904717 1.848355 1.503397 0
M  V30 14 C 1.717480 2.735743 2.192988 0
M  V30 15 O 0.244521 0.871823 2.239630 0
M  V30 16 C -0.975389 0.224265 2.113397 0
M  V30 17 C -1.248015 -0.450288 0.854247 0
M  V30 18 C -2.007212 -1.624715 0.923151 0
M  V30 19 C -2.346805 -2.377309 -0.214022 0
M  V30 20 O -3.087521 -3.456922 0.188099 0
M  V30 21 C -3.647643 -4.487352 -0.540494 0
M  V30 22 C -2.723507 -5.370680 -1.306871 0
M  V30 23 N -3.381636 -6.432728 -2.051386 0
M  V30 24 C -4.168750 -5.989066 -3.152772 0
M  V30 25 C -3.264772 -5.673474 -4.331909 0
M  V30 26 O -2.410542 -6.694677 -4.657145 0
M  V30 27 C -2.548122 -7.808210 -3.845979 0
M  V30 28 C -2.417317 -7.451210 -2.403756 0
M  V30 29 C -1.897069 -1.909913 -1.431228 0
M  V30 30 C -1.147958 -0.753453 -1.508624 0
M  V30 31 C -0.812858 -0.012774 -0.394348 0
M  V30 32 C -0.017434 1.149154 -0.824827 0
M  V30 33 O -0.014445 1.461495 -2.043402 0
M  V30 34 H 4.081191 1.249900 3.179466 0
M  V30 35 H 5.687813 2.062194 3.297600 0
M  V30 36 H 4.606775 2.577146 2.007557 0
M  V30 37 H 4.972215 2.102676 5.659939 0
M  V30 38 H 4.350417 3.703434 7.380579 0
M  V30 39 H 3.160106 5.796770 6.673182 0
M  V30 40 H 2.623938 6.256039 4.345252 0
M  V30 41 H 3.621219 5.425589 1.745905 0
M  V30 42 H 2.804375 4.616001 -0.405101 0
M  V30 43 H 1.327960 3.002972 -1.641215 0
M  V30 44 H 1.748435 2.573554 3.242174 0
M  V30 45 H -0.977728 -0.581519 2.905610 0
M  V30 46 H -1.804505 0.895774 2.417484 0
M  V30 47 H -2.268198 -1.828291 1.974614 0
M  V30 48 H -4.193753 -5.138334 0.210563 0
M  V30 49 H -4.440479 -4.135096 -1.259711 0
M  V30 50 H -2.097838 -5.936067 -0.545051 0
M  V30 51 H -1.989408 -4.839937 -1.914842 0
M  V30 52 H -4.827344 -6.834543 -3.476733 0
M  V30 53 H -4.792627 -5.119346 -2.971862 0
M  V30 54 H -3.848211 -5.398827 -5.220288 0
M  V30 55 H -2.633390 -4.783396 -4.064064 0
M  V30 56 H -1.805749 -8.605703 -4.126878 0
M  V30 57 H -3.534743 -8.297554 -4.002519 0
M  V30 58 H -2.609459 -8.361035 -1.774770 0
M  V30 59 H -1.386466 -7.142525 -2.134426 0
M  V30 60 H -2.204490 -2.533051 -2.233573 0
M  V30 61 H -0.846222 -0.479495 -2.525838 0
M  V30 END ATOM
M  V30 BEGIN BOND
M  V30 1 1 1 2
M  V30 2 2 2 3
M  V30 3 1 3 4
M  V30 4 2 4 5
M  V30 5 1 5 6
M  V30 6 2 6 7
M  V30 7 1 7 8
M  V30 8 1 8 9
M  V30 9 2 9 10
M  V30 10 1 10 11
M  V30 11 2 11 12
M  V30 12 1 12 13
M  V30 13 2 13 14
M  V30 14 1 13 15
M  V30 15 1 15 16
M  V30 16 1 16 17
M  V30 17 2 17 18
M  V30 18 1 18 19
M  V30 19 1 19 20
M  V30 20 1 20 21
M  V30 21 1 21 22
M  V30 22 1 22 23
M  V30 23 1 23 24
M  V30 24 1 24 25
M  V30 25 1 25 26
M  V30 26 1 26 27
M  V30 27 1 27 28
M  V30 28 2 19 29
M  V30 29 1 29 30
M  V30 30 2 30 31
M  V30 31 1 31 32
M  V30 32 2 32 33
M  V30 33 1 7 2
M  V30 34 1 14 9
M  V30 35 1 31 17
M  V30 36 1 32 12
M  V30 37 1 28 23
M  V30 38 1 1 34
M  V30 39 1 1 35
M  V30 40 1 1 36
M  V30 41 1 3 37
M  V30 42 1 4 38
M  V30 43 1 5 39
M  V30 44 1 6 40
M  V30 45 1 8 41
M  V30 46 1 10 42
M  V30 47 1 11 43
M  V30 48 1 14 44
M  V30 49 1 16 45
M  V30 50 1 16 46
M  V30 51 1 18 47
M  V30 52 1 21 48
M  V30 53 1 21 49
M  V30 54 1 22 50
M  V30 55 1 22 51
M  V30 56 1 24 52
M  V30 57 1 24 53
M  V30 58 1 25 54
M  V30 59 1 25 55
M  V30 60 1 27 56
M  V30 61 1 27 57
M  V30 62 1 28 58
M  V30 63 1 28 59
M  V30 64 1 29 60
M  V30 65 1 30 61
M  V30 END BOND
M  V30 END CTAB
M  END
>  <Dataset>  (318) 
ChEMBL_Kinases

>  <Ligand_Instance>  (318) 
nan

>  <PDB_ID>  (318) 
nan

>  <Standardized_SMILES>  (318) 
Cc1ccccc1Nc1ccc2c(c1)OCc1cc(OCCN3CCOCC3)ccc1C2=O

>  <Name>  (318) 
nan

>  <Pocket>  (318) 
nan

>  <ATP_Site>  (318) 
nan

>  <Peripheral>  (318) 
nan

>  <Num_H_Atoms_ProtBoundConf>  (318) 
nan

>  <Num_Resolved_Atoms>  (318) 
nan

>  <Num_Not_Resolved_Atoms>  (318) 
nan

$$$$
CHEMBL3087478
     RDKit          3D

  0  0  0  0  0  0  0  0  0  0999 V3000
M  V30 BEGIN CTAB
M  V30 COUNTS 61 65 0 0 0
M  V30 BEGIN ATOM
M  V30 1 C 4.955821 1.934238 0.929086 0
M  V30 2 C 5.067510 2.258900 2.372097 0
M  V30 3 C 5.950131 1.425834 3.069452 0
M  V30 4 C 6.153655 1.622221 4.418749 0
M  V30 5 F 7.009115 0.832863 5.144885 0
M  V30 6 C 5.493368 2.634530 5.087333 0
M  V30 7 C 4.614334 3.467173 4.402844 0
M  V30 8 C 4.399437 3.283931 3.052669 0
M  V30 9 N 3.526264 4.083068 2.262205 0
M  V30 10 C 2.359538 3.648006 1.532997 0
M  V30 11 C 1.673053 4.516282 0.702078 0
M  V30 12 C 0.559089 4.033066 0.038915 0
M  V30 13 C 0.158619 2.724550 0.211661 0
M  V30 14 C 0.843998 1.858684 1.041326 0
M  V30 15 C 1.955866 2.338979 1.703725 0
M  V30 16 O 0.492160 0.530432 1.258410 0
M  V30 17 C -0.761303 -0.132571 1.320057 0
M  V30 18 C -1.606640 0.108343 0.122810 0
M  V30 19 C -2.337685 -1.038556 -0.092535 0
M  V30 20 C -3.233474 -1.170812 -1.128740 0
M  V30 21 O -4.074759 -2.137396 -1.593984 0
M  V30 22 C -4.323903 -3.427453 -1.144139 0
M  V30 23 C -3.177453 -4.377241 -1.156914 0
M  V30 24 N -3.497979 -5.707568 -0.680075 0
M  V30 25 C -4.366410 -6.457832 -1.520648 0
M  V30 26 C -3.649196 -7.435229 -2.420244 0
M  V30 27 O -2.273579 -7.432023 -2.202268 0
M  V30 28 C -2.050289 -7.667762 -0.854392 0
M  V30 29 C -2.394080 -6.399854 -0.110105 0
M  V30 30 C -3.377614 -0.061097 -1.980275 0
M  V30 31 C -2.642776 1.118764 -1.779763 0
M  V30 32 C -1.755264 1.191227 -0.718384 0
M  V30 33 C -1.045020 2.462449 -0.602657 0
M  V30 34 O -1.554044 3.388062 -1.285876 0
M  V30 35 H 6.005668 1.763017 0.549637 0
M  V30 36 H 4.464710 2.724819 0.329960 0
M  V30 37 H 4.359508 1.007395 0.806369 0
M  V30 38 H 6.505503 0.617289 2.637249 0
M  V30 39 H 5.672693 2.765597 6.145658 0
M  V30 40 H 4.083728 4.267785 4.900823 0
M  V30 41 H 3.768660 5.092858 2.213453 0
M  V30 42 H 1.999938 5.526415 0.583051 0
M  V30 43 H 0.000267 4.674632 -0.614388 0
M  V30 44 H 2.442879 1.598996 2.338088 0
M  V30 45 H -1.321603 0.280510 2.171341 0
M  V30 46 H -0.533280 -1.212478 1.433733 0
M  V30 47 H -2.307691 -1.934941 0.503535 0
M  V30 48 H -5.219008 -3.816065 -1.679816 0
M  V30 49 H -4.700594 -3.310703 -0.080173 0
M  V30 50 H -2.768013 -4.529609 -2.189620 0
M  V30 51 H -2.351136 -4.016162 -0.526905 0
M  V30 52 H -5.193660 -6.972734 -0.993462 0
M  V30 53 H -4.877751 -5.744585 -2.217519 0
M  V30 54 H -4.000800 -8.476525 -2.226929 0
M  V30 55 H -3.796891 -7.244317 -3.499950 0
M  V30 56 H -2.671061 -8.509043 -0.454814 0
M  V30 57 H -0.977490 -7.909129 -0.715631 0
M  V30 58 H -1.489404 -5.736532 -0.122160 0
M  V30 59 H -2.530044 -6.673326 0.954747 0
M  V30 60 H -4.007755 0.080883 -2.850488 0
M  V30 61 H -2.675678 2.009123 -2.360658 0
M  V30 END ATOM
M  V30 BEGIN BOND
M  V30 1 1 1 2
M  V30 2 2 2 3
M  V30 3 1 3 4
M  V30 4 1 4 5
M  V30 5 2 4 6
M  V30 6 1 6 7
M  V30 7 2 7 8
M  V30 8 1 8 9
M  V30 9 1 9 10
M  V30 10 2 10 11
M  V30 11 1 11 12
M  V30 12 2 12 13
M  V30 13 1 13 14
M  V30 14 2 14 15
M  V30 15 1 14 16
M  V30 16 1 16 17
M  V30 17 1 17 18
M  V30 18 2 18 19
M  V30 19 1 19 20
M  V30 20 1 20 21
M  V30 21 1 21 22
M  V30 22 1 22 23
M  V30 23 1 23 24
M  V30 24 1 24 25
M  V30 25 1 25 26
M  V30 26 1 26 27
M  V30 27 1 27 28
M  V30 28 1 28 29
M  V30 29 2 20 30
M  V30 30 1 30 31
M  V30 31 2 31 32
M  V30 32 1 32 33
M  V30 33 2 33 34
M  V30 34 1 8 2
M  V30 35 1 15 10
M  V30 36 1 32 18
M  V30 37 1 33 13
M  V30 38 1 29 24
M  V30 39 1 1 35
M  V30 40 1 1 36
M  V30 41 1 1 37
M  V30 42 1 3 38
M  V30 43 1 6 39
M  V30 44 1 7 40
M  V30 45 1 9 41
M  V30 46 1 11 42
M  V30 47 1 12 43
M  V30 48 1 15 44
M  V30 49 1 17 45
M  V30 50 1 17 46
M  V30 51 1 19 47
M  V30 52 1 22 48
M  V30 53 1 22 49
M  V30 54 1 23 50
M  V30 55 1 23 51
M  V30 56 1 25 52
M  V30 57 1 25 53
M  V30 58 1 26 54
M  V30 59 1 26 55
M  V30 60 1 28 56
M  V30 61 1 28 57
M  V30 62 1 29 58
M  V30 63 1 29 59
M  V30 64 1 30 60
M  V30 65 1 31 61
M  V30 END BOND
M  V30 END CTAB
M  END
>  <Dataset>  (319) 
ChEMBL_Kinases

>  <Ligand_Instance>  (319) 
nan

>  <PDB_ID>  (319) 
nan

>  <Standardized_SMILES>  (319) 
Cc1cc(F)ccc1Nc1ccc2c(c1)OCc1cc(OCCN3CCOCC3)ccc1C2=O

>  <Name>  (319) 
nan

>  <Pocket>  (319) 
nan

>  <ATP_Site>  (319) 
nan

>  <Peripheral>  (319) 
nan

>  <Num_H_Atoms_ProtBoundConf>  (319) 
nan

>  <Num_Resolved_Atoms>  (319) 
nan

>  <Num_Not_Resolved_Atoms>  (319) 
nan

$$$$
CHEMBL3087479
     RDKit          3D

  0  0  0  0  0  0  0  0  0  0999 V3000
M  V30 BEGIN CTAB
M  V30 COUNTS 59 63 0 0 0
M  V30 BEGIN ATOM
M  V30 1 O -1.778955 -1.164068 3.127830 0
M  V30 2 C -1.261824 -1.592422 2.069767 0
M  V30 3 C 0.047713 -1.040214 1.657339 0
M  V30 4 C 0.190549 0.154727 2.326854 0
M  V30 5 C 1.362762 0.828104 2.070478 0
M  V30 6 C 2.373766 0.426974 1.230859 0
M  V30 7 O 3.547243 0.862215 0.822612 0
M  V30 8 C 4.473765 1.825480 0.884500 0
M  V30 9 C 4.148974 3.219661 0.463904 0
M  V30 10 C 3.108588 3.955644 1.204740 0
M  V30 11 C 2.983013 5.326064 0.543515 0
M  V30 12 C 2.215282 6.282965 1.423970 0
M  V30 13 O 2.810456 6.383392 2.679107 0
M  V30 14 C 2.529400 5.156236 3.324871 0
M  V30 15 C 3.379767 4.107781 2.676285 0
M  V30 16 C 2.142911 -0.807281 0.587817 0
M  V30 17 C 0.976563 -1.569705 0.784847 0
M  V30 18 C 0.859029 -2.838541 0.056033 0
M  V30 19 O -0.422146 -3.088473 -0.487378 0
M  V30 20 C -1.650797 -3.304264 0.170600 0
M  V30 21 C -2.450621 -4.250412 -0.434563 0
M  V30 22 C -3.663102 -4.495361 0.173885 0
M  V30 23 N -4.558627 -5.452677 -0.375402 0
M  V30 24 C -4.340174 -6.184040 -1.574947 0
M  V30 25 C -4.270769 -7.561212 -1.625175 0
M  V30 26 C -4.057775 -8.181935 -2.840096 0
M  V30 27 C -3.906552 -7.475955 -4.039644 0
M  V30 28 F -3.698302 -8.087053 -5.226734 0
M  V30 29 C -3.987679 -6.104450 -3.910970 0
M  V30 30 C -4.198244 -5.422383 -2.730521 0
M  V30 31 F -4.245893 -4.075084 -2.828535 0
M  V30 32 C -4.052023 -3.834242 1.317971 0
M  V30 33 C -3.249693 -2.887902 1.921431 0
M  V30 34 C -2.031038 -2.623129 1.333753 0
M  V30 35 H -0.511390 0.590072 3.008130 0
M  V30 36 H 1.560024 1.749282 2.542860 0
M  V30 37 H 5.319207 1.520664 0.169427 0
M  V30 38 H 5.045462 1.822969 1.868834 0
M  V30 39 H 5.105961 3.792714 0.339154 0
M  V30 40 H 3.777233 3.130397 -0.603333 0
M  V30 41 H 2.131452 3.478314 1.068372 0
M  V30 42 H 3.977719 5.777143 0.359437 0
M  V30 43 H 2.460601 5.277114 -0.431616 0
M  V30 44 H 1.210450 5.829595 1.614957 0
M  V30 45 H 2.157911 7.290534 1.020435 0
M  V30 46 H 2.761672 5.283206 4.386375 0
M  V30 47 H 1.451326 4.947803 3.150571 0
M  V30 48 H 3.276530 3.170278 3.230469 0
M  V30 49 H 4.442543 4.436573 2.866796 0
M  V30 50 H 2.776273 -1.357120 -0.126004 0
M  V30 51 H 1.234723 -3.655345 0.706271 0
M  V30 52 H 1.553760 -2.776984 -0.826998 0
M  V30 53 H -2.115119 -4.747206 -1.325076 0
M  V30 54 H -5.456614 -5.695751 0.065180 0
M  V30 55 H -4.384496 -8.132641 -0.710486 0
M  V30 56 H -3.997610 -9.277526 -2.913013 0
M  V30 57 H -3.867297 -5.567588 -4.858789 0
M  V30 58 H -5.015589 -4.019435 1.813932 0
M  V30 59 H -3.551430 -2.370442 2.814661 0
M  V30 END ATOM
M  V30 BEGIN BOND
M  V30 1 2 1 2
M  V30 2 1 2 3
M  V30 3 2 3 4
M  V30 4 1 4 5
M  V30 5 2 5 6
M  V30 6 1 6 7
M  V30 7 1 7 8
M  V30 8 1 8 9
M  V30 9 1 9 10
M  V30 10 1 10 11
M  V30 11 1 11 12
M  V30 12 1 12 13
M  V30 13 1 13 14
M  V30 14 1 14 15
M  V30 15 1 6 16
M  V30 16 2 16 17
M  V30 17 1 17 18
M  V30 18 1 18 19
M  V30 19 1 19 20
M  V30 20 2 20 21
M  V30 21 1 21 22
M  V30 22 1 22 23
M  V30 23 1 23 24
M  V30 24 2 24 25
M  V30 25 1 25 26
M  V30 26 2 26 27
M  V30 27 1 27 28
M  V30 28 1 27 29
M  V30 29 2 29 30
M  V30 30 1 30 31
M  V30 31 2 22 32
M  V30 32 1 32 33
M  V30 33 2 33 34
M  V30 34 1 34 2
M  V30 35 1 17 3
M  V30 36 1 34 20
M  V30 37 1 15 10
M  V30 38 1 30 24
M  V30 39 1 4 35
M  V30 40 1 5 36
M  V30 41 1 8 37
M  V30 42 1 8 38
M  V30 43 1 9 39
M  V30 44 1 9 40
M  V30 45 1 10 41
M  V30 46 1 11 42
M  V30 47 1 11 43
M  V30 48 1 12 44
M  V30 49 1 12 45
M  V30 50 1 14 46
M  V30 51 1 14 47
M  V30 52 1 15 48
M  V30 53 1 15 49
M  V30 54 1 16 50
M  V30 55 1 18 51
M  V30 56 1 18 52
M  V30 57 1 21 53
M  V30 58 1 23 54
M  V30 59 1 25 55
M  V30 60 1 26 56
M  V30 61 1 29 57
M  V30 62 1 32 58
M  V30 63 1 33 59
M  V30 END BOND
M  V30 END CTAB
M  END
>  <Dataset>  (320) 
ChEMBL_Kinases

>  <Ligand_Instance>  (320) 
nan

>  <PDB_ID>  (320) 
nan

>  <Standardized_SMILES>  (320) 
O=C1c2ccc(OCCC3CCOCC3)cc2COc2cc(Nc3ccc(F)cc3F)ccc21

>  <Name>  (320) 
nan

>  <Pocket>  (320) 
nan

>  <ATP_Site>  (320) 
nan

>  <Peripheral>  (320) 
nan

>  <Num_H_Atoms_ProtBoundConf>  (320) 
nan

>  <Num_Resolved_Atoms>  (320) 
nan

>  <Num_Not_Resolved_Atoms>  (320) 
nan

$$$$
CHEMBL3087480
     RDKit          3D

  0  0  0  0  0  0  0  0  0  0999 V3000
M  V30 BEGIN CTAB
M  V30 COUNTS 53 56 0 0 0
M  V30 BEGIN ATOM
M  V30 1 C 4.902452 3.070592 6.184962 0
M  V30 2 N 5.295699 2.297452 5.028100 0
M  V30 3 C 5.754844 1.011335 5.475667 0
M  V30 4 C 4.173142 2.186646 4.086797 0
M  V30 5 C 4.541842 1.394392 2.878527 0
M  V30 6 O 3.537189 1.229779 1.921414 0
M  V30 7 C 2.324054 0.607327 2.044974 0
M  V30 8 C 1.666348 -0.055978 3.055325 0
M  V30 9 C 0.414240 -0.591318 2.881280 0
M  V30 10 C -0.232304 -0.486737 1.691175 0
M  V30 11 C 0.366664 0.167816 0.624138 0
M  V30 12 C 1.646322 0.708655 0.820782 0
M  V30 13 C -0.202273 0.370191 -0.732377 0
M  V30 14 O -0.868444 -0.727933 -1.263837 0
M  V30 15 C -1.960032 -1.440831 -0.795649 0
M  V30 16 C -2.787557 -2.000991 -1.766080 0
M  V30 17 C -3.871481 -2.708848 -1.292846 0
M  V30 18 N -4.748642 -3.302846 -2.241176 0
M  V30 19 C -4.637448 -3.292174 -3.658594 0
M  V30 20 C -5.562183 -2.761136 -4.534677 0
M  V30 21 C -5.312654 -2.827880 -5.909518 0
M  V30 22 C -4.167608 -3.409667 -6.419477 0
M  V30 23 F -3.976033 -3.446795 -7.771250 0
M  V30 24 C -3.248096 -3.938249 -5.537700 0
M  V30 25 C -3.492731 -3.874105 -4.163262 0
M  V30 26 F -2.467382 -4.451948 -3.461909 0
M  V30 27 C -4.192497 -2.900854 0.033741 0
M  V30 28 C -3.357723 -2.336346 0.976420 0
M  V30 29 C -2.264457 -1.621642 0.553308 0
M  V30 30 C -1.540989 -1.129132 1.744287 0
M  V30 31 O -2.044335 -1.250805 2.879633 0
M  V30 32 H 3.853229 3.383009 6.058162 0
M  V30 33 H 4.983432 2.469262 7.129950 0
M  V30 34 H 5.557941 3.957244 6.328092 0
M  V30 35 H 6.341458 1.165953 6.410355 0
M  V30 36 H 6.459027 0.531981 4.768479 0
M  V30 37 H 4.888866 0.361292 5.717700 0
M  V30 38 H 4.004552 3.246761 3.720213 0
M  V30 39 H 3.230096 1.920550 4.576278 0
M  V30 40 H 5.433333 1.856634 2.366006 0
M  V30 41 H 4.920587 0.394783 3.247153 0
M  V30 42 H 2.254278 -0.098258 3.952486 0
M  V30 43 H -0.040013 -1.090720 3.700091 0
M  V30 44 H 1.988001 1.188648 -0.096021 0
M  V30 45 H 0.606545 0.692085 -1.424383 0
M  V30 46 H -0.932209 1.215992 -0.616879 0
M  V30 47 H -2.530221 -1.845388 -2.782825 0
M  V30 48 H -5.603695 -3.832714 -1.997443 0
M  V30 49 H -6.439582 -2.317038 -4.107938 0
M  V30 50 H -6.061612 -2.399158 -6.590352 0
M  V30 51 H -2.384437 -4.373034 -6.007330 0
M  V30 52 H -5.052195 -3.463112 0.349223 0
M  V30 53 H -3.579243 -2.466728 2.034406 0
M  V30 END ATOM
M  V30 BEGIN BOND
M  V30 1 1 1 2
M  V30 2 1 2 3
M  V30 3 1 2 4
M  V30 4 1 4 5
M  V30 5 1 5 6
M  V30 6 1 6 7
M  V30 7 2 7 8
M  V30 8 1 8 9
M  V30 9 2 9 10
M  V30 10 1 10 11
M  V30 11 2 11 12
M  V30 12 1 11 13
M  V30 13 1 13 14
M  V30 14 1 14 15
M  V30 15 2 15 16
M  V30 16 1 16 17
M  V30 17 1 17 18
M  V30 18 1 18 19
M  V30 19 2 19 20
M  V30 20 1 20 21
M  V30 21 2 21 22
M  V30 22 1 22 23
M  V30 23 1 22 24
M  V30 24 2 24 25
M  V30 25 1 25 26
M  V30 26 2 17 27
M  V30 27 1 27 28
M  V30 28 2 28 29
M  V30 29 1 29 30
M  V30 30 2 30 31
M  V30 31 1 12 7
M  V30 32 1 29 15
M  V30 33 1 30 10
M  V30 34 1 25 19
M  V30 35 1 1 32
M  V30 36 1 1 33
M  V30 37 1 1 34
M  V30 38 1 3 35
M  V30 39 1 3 36
M  V30 40 1 3 37
M  V30 41 1 4 38
M  V30 42 1 4 39
M  V30 43 1 5 40
M  V30 44 1 5 41
M  V30 45 1 8 42
M  V30 46 1 9 43
M  V30 47 1 12 44
M  V30 48 1 13 45
M  V30 49 1 13 46
M  V30 50 1 16 47
M  V30 51 1 18 48
M  V30 52 1 20 49
M  V30 53 1 21 50
M  V30 54 1 24 51
M  V30 55 1 27 52
M  V30 56 1 28 53
M  V30 END BOND
M  V30 END CTAB
M  END
>  <Dataset>  (321) 
ChEMBL_Kinases

>  <Ligand_Instance>  (321) 
nan

>  <PDB_ID>  (321) 
nan

>  <Standardized_SMILES>  (321) 
CN(C)CCOc1ccc2c(c1)COc1cc(Nc3ccc(F)cc3F)ccc1C2=O

>  <Name>  (321) 
nan

>  <Pocket>  (321) 
nan

>  <ATP_Site>  (321) 
nan

>  <Peripheral>  (321) 
nan

>  <Num_H_Atoms_ProtBoundConf>  (321) 
nan

>  <Num_Resolved_Atoms>  (321) 
nan

>  <Num_Not_Resolved_Atoms>  (321) 
nan

$$$$
CHEMBL3087481
     RDKit          3D

  0  0  0  0  0  0  0  0  0  0999 V3000
M  V30 BEGIN CTAB
M  V30 COUNTS 57 61 0 0 0
M  V30 BEGIN ATOM
M  V30 1 C 3.814073 1.126992 5.039480 0
M  V30 2 C 4.351066 2.537589 4.804123 0
M  V30 3 C 4.474795 3.189763 6.162598 0
M  V30 4 O 5.585238 2.457190 4.161759 0
M  V30 5 C 5.346140 2.525292 2.814795 0
M  V30 6 C 4.016097 3.187072 2.680169 0 CFG=1
M  V30 7 C 3.084318 2.306155 1.863555 0
M  V30 8 O 1.771050 2.833875 1.831444 0
M  V30 9 C 0.776650 2.156685 1.131349 0
M  V30 10 C -0.449063 2.799888 1.195649 0
M  V30 11 C -1.531227 2.237071 0.543602 0
M  V30 12 C -1.329568 1.041189 -0.150303 0
M  V30 13 C -0.099378 0.397289 -0.214046 0
M  V30 14 C 0.969707 0.974749 0.443576 0
M  V30 15 C 0.305094 -0.856999 -0.889273 0
M  V30 16 O -0.674980 -1.868247 -0.866611 0
M  V30 17 C -2.034293 -1.878853 -1.138120 0
M  V30 18 C -2.564643 -3.106149 -1.477755 0
M  V30 19 C -3.888790 -3.331250 -1.783750 0
M  V30 20 N -4.430071 -4.579624 -2.159766 0
M  V30 21 C -3.947915 -5.661872 -2.929191 0
M  V30 22 C -2.750513 -5.744155 -3.582106 0
M  V30 23 C -2.311843 -6.819006 -4.310005 0
M  V30 24 C -3.132196 -7.922442 -4.406025 0
M  V30 25 F -2.760963 -9.018010 -5.109360 0
M  V30 26 C -4.347878 -7.882369 -3.763964 0
M  V30 27 C -4.740425 -6.781407 -3.047132 0
M  V30 28 F -5.976754 -6.855077 -2.447756 0
M  V30 29 C -4.670380 -2.194166 -1.720980 0
M  V30 30 C -4.230273 -0.931277 -1.392254 0
M  V30 31 C -2.890284 -0.796668 -1.101128 0
M  V30 32 C -2.576494 0.595565 -0.772869 0
M  V30 33 O -3.422965 1.488686 -1.035090 0
M  V30 34 O 3.532702 3.266129 3.977027 0
M  V30 35 H 4.208917 0.786152 6.017835 0
M  V30 36 H 4.140538 0.452209 4.220866 0
M  V30 37 H 2.707973 1.207032 5.108826 0
M  V30 38 H 3.523039 3.720459 6.443849 0
M  V30 39 H 5.325771 3.882360 6.142593 0
M  V30 40 H 4.611997 2.429931 6.977111 0
M  V30 41 H 6.141233 3.078371 2.261527 0
M  V30 42 H 5.283630 1.491195 2.375226 0
M  V30 43 H 4.080716 4.202794 2.228433 0
M  V30 44 H 3.147128 1.261102 2.176011 0
M  V30 45 H 3.471062 2.385856 0.813970 0
M  V30 46 H -0.648335 3.715249 1.714333 0
M  V30 47 H -2.526484 2.674344 0.542102 0
M  V30 48 H 1.964489 0.551553 0.453461 0
M  V30 49 H 1.219819 -1.270854 -0.455818 0
M  V30 50 H 0.442968 -0.579524 -1.970542 0
M  V30 51 H -1.845083 -3.906498 -1.473437 0
M  V30 52 H -5.406027 -4.672087 -1.746167 0
M  V30 53 H -2.082037 -4.908453 -3.547514 0
M  V30 54 H -1.350258 -6.819631 -4.802914 0
M  V30 55 H -4.996667 -8.750192 -3.837710 0
M  V30 56 H -5.729550 -2.262826 -1.943582 0
M  V30 57 H -4.888857 -0.075901 -1.359012 0
M  V30 END ATOM
M  V30 BEGIN BOND
M  V30 1 1 1 2
M  V30 2 1 2 3
M  V30 3 1 2 4
M  V30 4 1 4 5
M  V30 5 1 5 6
M  V30 6 1 6 7
M  V30 7 1 7 8
M  V30 8 1 8 9
M  V30 9 2 9 10
M  V30 10 1 10 11
M  V30 11 2 11 12
M  V30 12 1 12 13
M  V30 13 2 13 14
M  V30 14 1 13 15
M  V30 15 1 15 16
M  V30 16 1 16 17
M  V30 17 2 17 18
M  V30 18 1 18 19
M  V30 19 1 19 20
M  V30 20 1 20 21
M  V30 21 2 21 22
M  V30 22 1 22 23
M  V30 23 2 23 24
M  V30 24 1 24 25
M  V30 25 1 24 26
M  V30 26 2 26 27
M  V30 27 1 27 28
M  V30 28 2 19 29
M  V30 29 1 29 30
M  V30 30 2 30 31
M  V30 31 1 31 32
M  V30 32 2 32 33
M  V30 33 1 6 34
M  V30 34 1 34 2
M  V30 35 1 14 9
M  V30 36 1 31 17
M  V30 37 1 32 12
M  V30 38 1 27 21
M  V30 39 1 1 35
M  V30 40 1 1 36
M  V30 41 1 1 37
M  V30 42 1 3 38
M  V30 43 1 3 39
M  V30 44 1 3 40
M  V30 45 1 5 41
M  V30 46 1 5 42
M  V30 47 1 6 43 CFG=3
M  V30 48 1 7 44
M  V30 49 1 7 45
M  V30 50 1 10 46
M  V30 51 1 11 47
M  V30 52 1 14 48
M  V30 53 1 15 49
M  V30 54 1 15 50
M  V30 55 1 18 51
M  V30 56 1 20 52
M  V30 57 1 22 53
M  V30 58 1 23 54
M  V30 59 1 26 55
M  V30 60 1 29 56
M  V30 61 1 30 57
M  V30 END BOND
M  V30 END CTAB
M  END
>  <Dataset>  (322) 
ChEMBL_Kinases

>  <Ligand_Instance>  (322) 
nan

>  <PDB_ID>  (322) 
nan

>  <Standardized_SMILES>  (322) 
CC1(C)OC[C@@H](COc2ccc3c(c2)COc2cc(Nc4ccc(F)cc4F)ccc2C3=O)O1

>  <Name>  (322) 
nan

>  <Pocket>  (322) 
nan

>  <ATP_Site>  (322) 
nan

>  <Peripheral>  (322) 
nan

>  <Num_H_Atoms_ProtBoundConf>  (322) 
nan

>  <Num_Resolved_Atoms>  (322) 
nan

>  <Num_Not_Resolved_Atoms>  (322) 
nan

$$$$
CHEMBL3087473
     RDKit          3D

  0  0  0  0  0  0  0  0  0  0999 V3000
M  V30 BEGIN CTAB
M  V30 COUNTS 72 77 0 0 0
M  V30 BEGIN ATOM
M  V30 1 O 4.146142 -2.500970 0.983678 0
M  V30 2 C 5.384731 -2.776262 1.137598 0
M  V30 3 N 6.117764 -1.792565 1.829450 0
M  V30 4 C 5.273369 -0.699802 2.202467 0
M  V30 5 C 4.641839 -0.748981 3.436139 0
M  V30 6 C 3.819158 0.320969 3.796208 0
M  V30 7 C 3.681770 1.365456 2.905317 0
M  V30 8 F 2.862390 2.341746 3.384740 0
M  V30 9 C 4.310235 1.409723 1.680943 0
M  V30 10 N 4.106594 2.526193 0.830937 0
M  V30 11 C 2.838398 2.916395 0.312173 0
M  V30 12 C 2.611134 4.052041 -0.468138 0
M  V30 13 C 1.353110 4.354145 -0.933224 0
M  V30 14 C 0.260446 3.557925 -0.655770 0
M  V30 15 C 0.423199 2.424717 0.108490 0
M  V30 16 C 1.714209 2.138846 0.570516 0
M  V30 17 O -0.516547 1.502983 0.501459 0
M  V30 18 C -1.666704 0.997925 -0.115279 0
M  V30 19 C -2.421716 1.963010 -0.905421 0
M  V30 20 C -3.656773 1.400556 -1.202658 0
M  V30 21 O -3.977403 0.149582 -0.760419 0
M  V30 22 C -5.159319 -0.564692 -0.963533 0
M  V30 23 C -4.992069 -1.882773 -0.257947 0
M  V30 24 N -6.110924 -2.772943 -0.352271 0
M  V30 25 C -5.719343 -3.963839 0.413519 0
M  V30 26 C -6.891103 -4.706157 0.973512 0
M  V30 27 O -7.949845 -4.564147 0.096613 0
M  V30 28 C -8.418114 -3.254930 0.108042 0
M  V30 29 C -7.314683 -2.232466 0.243305 0
M  V30 30 C -4.621462 2.056160 -1.948941 0
M  V30 31 C -4.355775 3.334925 -2.428399 0
M  V30 32 C -3.131105 3.945323 -2.157883 0
M  V30 33 C -2.224978 3.236986 -1.413592 0
M  V30 34 C -1.007338 4.020418 -1.228015 0
M  V30 35 O -0.981668 5.233062 -1.579340 0
M  V30 36 C 5.125695 0.357041 1.315441 0
M  V30 37 C 5.878509 -4.042677 0.591769 0
M  V30 38 C 4.954026 -4.829597 -0.059227 0
M  V30 39 C 5.427677 -6.034893 -0.578071 0
M  V30 40 C 6.760714 -6.440011 -0.455691 0
M  V30 41 C 7.619688 -5.574250 0.220250 0
M  V30 42 C 7.206628 -4.368076 0.755068 0
M  V30 43 H 7.143673 -2.003938 1.963624 0
M  V30 44 H 4.794952 -1.600399 4.091069 0
M  V30 45 H 3.372263 0.210314 4.753727 0
M  V30 46 H 4.921211 3.133912 0.539367 0
M  V30 47 H 3.477591 4.681709 -0.685891 0
M  V30 48 H 1.179327 5.234892 -1.538703 0
M  V30 49 H 1.856324 1.240849 1.171682 0
M  V30 50 H -1.473038 0.040964 -0.642258 0
M  V30 51 H -2.352033 0.690305 0.735718 0
M  V30 52 H -6.038769 0.005868 -0.675339 0
M  V30 53 H -5.214136 -0.773701 -2.069454 0
M  V30 54 H -4.109429 -2.390602 -0.698830 0
M  V30 55 H -4.698142 -1.714610 0.820270 0
M  V30 56 H -5.122601 -4.663646 -0.205533 0
M  V30 57 H -5.044825 -3.651517 1.263947 0
M  V30 58 H -7.217588 -4.353339 1.973878 0
M  V30 59 H -6.645433 -5.783347 1.046664 0
M  V30 60 H -8.950539 -3.109556 -0.854365 0
M  V30 61 H -9.138123 -3.168814 0.974016 0
M  V30 62 H -7.165522 -1.874150 1.269434 0
M  V30 63 H -7.633593 -1.353804 -0.379476 0
M  V30 64 H -5.575887 1.601344 -2.167123 0
M  V30 65 H -5.053377 3.896261 -3.010482 0
M  V30 66 H -2.867283 4.938884 -2.501014 0
M  V30 67 H 5.631774 0.363642 0.362541 0
M  V30 68 H 3.911734 -4.580790 -0.191046 0
M  V30 69 H 4.785882 -6.738922 -1.112807 0
M  V30 70 H 7.124018 -7.374543 -0.858749 0
M  V30 71 H 8.652195 -5.926438 0.296040 0
M  V30 72 H 7.931087 -3.751059 1.265910 0
M  V30 END ATOM
M  V30 BEGIN BOND
M  V30 1 2 1 2
M  V30 2 1 2 3
M  V30 3 1 3 4
M  V30 4 2 4 5
M  V30 5 1 5 6
M  V30 6 2 6 7
M  V30 7 1 7 8
M  V30 8 1 7 9
M  V30 9 1 9 10
M  V30 10 1 10 11
M  V30 11 2 11 12
M  V30 12 1 12 13
M  V30 13 2 13 14
M  V30 14 1 14 15
M  V30 15 2 15 16
M  V30 16 1 15 17
M  V30 17 1 17 18
M  V30 18 1 18 19
M  V30 19 2 19 20
M  V30 20 1 20 21
M  V30 21 1 21 22
M  V30 22 1 22 23
M  V30 23 1 23 24
M  V30 24 1 24 25
M  V30 25 1 25 26
M  V30 26 1 26 27
M  V30 27 1 27 28
M  V30 28 1 28 29
M  V30 29 1 20 30
M  V30 30 2 30 31
M  V30 31 1 31 32
M  V30 32 2 32 33
M  V30 33 1 33 34
M  V30 34 2 34 35
M  V30 35 2 9 36
M  V30 36 1 2 37
M  V30 37 2 37 38
M  V30 38 1 38 39
M  V30 39 2 39 40
M  V30 40 1 40 41
M  V30 41 2 41 42
M  V30 42 1 36 4
M  V30 43 1 42 37
M  V30 44 1 16 11
M  V30 45 1 33 19
M  V30 46 1 34 14
M  V30 47 1 29 24
M  V30 48 1 3 43
M  V30 49 1 5 44
M  V30 50 1 6 45
M  V30 51 1 10 46
M  V30 52 1 12 47
M  V30 53 1 13 48
M  V30 54 1 16 49
M  V30 55 1 18 50
M  V30 56 1 18 51
M  V30 57 1 22 52
M  V30 58 1 22 53
M  V30 59 1 23 54
M  V30 60 1 23 55
M  V30 61 1 25 56
M  V30 62 1 25 57
M  V30 63 1 26 58
M  V30 64 1 26 59
M  V30 65 1 28 60
M  V30 66 1 28 61
M  V30 67 1 29 62
M  V30 68 1 29 63
M  V30 69 1 30 64
M  V30 70 1 31 65
M  V30 71 1 32 66
M  V30 72 1 36 67
M  V30 73 1 38 68
M  V30 74 1 39 69
M  V30 75 1 40 70
M  V30 76 1 41 71
M  V30 77 1 42 72
M  V30 END BOND
M  V30 END CTAB
M  END
>  <Dataset>  (323) 
ChEMBL_Kinases

>  <Ligand_Instance>  (323) 
nan

>  <PDB_ID>  (323) 
nan

>  <Standardized_SMILES>  (323) 
O=C(Nc1ccc(F)c(Nc2ccc3c(c2)OCc2c(OCCN4CCOCC4)cccc2C3=O)c1)c1ccccc1

>  <Name>  (323) 
nan

>  <Pocket>  (323) 
nan

>  <ATP_Site>  (323) 
nan

>  <Peripheral>  (323) 
nan

>  <Num_H_Atoms_ProtBoundConf>  (323) 
nan

>  <Num_Resolved_Atoms>  (323) 
nan

>  <Num_Not_Resolved_Atoms>  (323) 
nan

$$$$
CHEMBL293798
     RDKit          3D

  0  0  0  0  0  0  0  0  0  0999 V3000
M  V30 BEGIN CTAB
M  V30 COUNTS 20 21 0 0 0
M  V30 BEGIN ATOM
M  V30 1 N -0.657426 -2.858275 3.169459 0
M  V30 2 C 0.261255 -2.268302 2.792065 0
M  V30 3 C 1.411094 -1.551047 2.342122 0
M  V30 4 C 2.653852 -1.876956 3.020879 0
M  V30 5 N 3.645838 -2.118350 3.566636 0
M  V30 6 C 1.449463 -0.638962 1.387390 0
M  V30 7 C 2.635882 0.096871 0.927620 0
M  V30 8 O 3.813637 -0.007435 1.354441 0
M  V30 9 N 2.232223 0.977351 -0.112445 0
M  V30 10 C 0.834692 0.837515 -0.340001 0
M  V30 11 C 0.005303 1.477212 -1.239694 0
M  V30 12 C -1.336053 1.160395 -1.264900 0
M  V30 13 C -1.836192 0.216288 -0.400362 0
M  V30 14 C -0.954514 -0.383198 0.470835 0
M  V30 15 C 0.379553 -0.116736 0.547361 0
M  V30 16 H 2.892819 1.630580 -0.626101 0
M  V30 17 H 0.415174 2.218207 -1.913581 0
M  V30 18 H -2.005338 1.652415 -1.965321 0
M  V30 19 H -2.894364 0.000048 -0.455894 0
M  V30 20 H -1.386804 -1.118739 1.132928 0
M  V30 END ATOM
M  V30 BEGIN BOND
M  V30 1 3 1 2
M  V30 2 1 2 3
M  V30 3 1 3 4
M  V30 4 3 4 5
M  V30 5 2 3 6 CFG=2
M  V30 6 1 6 7
M  V30 7 2 7 8
M  V30 8 1 7 9
M  V30 9 1 9 10
M  V30 10 2 10 11
M  V30 11 1 11 12
M  V30 12 2 12 13
M  V30 13 1 13 14
M  V30 14 2 14 15
M  V30 15 1 15 6
M  V30 16 1 15 10
M  V30 17 1 9 16
M  V30 18 1 11 17
M  V30 19 1 12 18
M  V30 20 1 13 19
M  V30 21 1 14 20
M  V30 END BOND
M  V30 END CTAB
M  END
>  <Dataset>  (324) 
ChEMBL_Kinases

>  <Ligand_Instance>  (324) 
nan

>  <PDB_ID>  (324) 
nan

>  <Standardized_SMILES>  (324) 
N#CC(C#N)=C1C(=O)Nc2ccccc21

>  <Name>  (324) 
nan

>  <Pocket>  (324) 
nan

>  <ATP_Site>  (324) 
nan

>  <Peripheral>  (324) 
nan

>  <Num_H_Atoms_ProtBoundConf>  (324) 
nan

>  <Num_Resolved_Atoms>  (324) 
nan

>  <Num_Not_Resolved_Atoms>  (324) 
nan

$$$$
CHEMBL293542
     RDKit          3D

  0  0  0  0  0  0  0  0  0  0999 V3000
M  V30 BEGIN CTAB
M  V30 COUNTS 41 44 0 0 0
M  V30 BEGIN ATOM
M  V30 1 C -0.963203 -5.256553 2.783364 0
M  V30 2 O 0.379994 -4.795027 2.900012 0
M  V30 3 C 0.804608 -3.768093 2.068014 0
M  V30 4 C 2.101959 -3.313952 2.178449 0
M  V30 5 C 2.516851 -2.293103 1.349350 0
M  V30 6 C 1.691196 -1.707521 0.415449 0
M  V30 7 C 0.396717 -2.204749 0.349116 0
M  V30 8 C -0.563486 -1.644661 -0.594342 0
M  V30 9 C -0.661655 -0.320167 -0.811531 0
M  V30 10 C 0.045311 0.822721 -0.257423 0
M  V30 11 C 0.608399 1.819257 -1.047772 0
M  V30 12 N 1.175319 2.755401 -0.265463 0
M  V30 13 C 1.862674 3.945891 -0.744831 0
M  V30 14 C 1.011632 2.421499 1.026086 0
M  V30 15 C 1.379658 3.018633 2.235586 0
M  V30 16 C 1.004682 2.347869 3.379543 0
M  V30 17 C 0.307784 1.155966 3.432807 0
M  V30 18 C -0.035134 0.601348 2.209049 0
M  V30 19 C 0.316612 1.232191 1.053600 0
M  V30 20 C -1.730056 -0.127128 -1.816613 0
M  V30 21 O -2.215409 0.912392 -2.361907 0
M  V30 22 N -2.239167 -1.423598 -2.163753 0
M  V30 23 C -1.512622 -2.399264 -1.399190 0
M  V30 24 O -1.640574 -3.651861 -1.398495 0
M  V30 25 C -0.101298 -3.226047 1.142876 0
M  V30 26 H -1.217061 -6.019621 3.512679 0
M  V30 27 H -1.207113 -5.557313 1.734732 0
M  V30 28 H -1.639130 -4.364736 2.955270 0
M  V30 29 H 2.806471 -3.732140 2.894901 0
M  V30 30 H 3.540303 -1.910755 1.407049 0
M  V30 31 H 1.964255 -0.899205 -0.263341 0
M  V30 32 H 0.607609 1.858996 -2.146317 0
M  V30 33 H 2.769190 4.112146 -0.108514 0
M  V30 34 H 1.168261 4.804146 -0.759416 0
M  V30 35 H 2.221246 3.815215 -1.790929 0
M  V30 36 H 1.925910 3.951142 2.255050 0
M  V30 37 H 1.292499 2.814297 4.330943 0
M  V30 38 H 0.063209 0.715695 4.393219 0
M  V30 39 H -0.579072 -0.315071 2.249666 0
M  V30 40 H -2.994288 -1.685203 -2.833585 0
M  V30 41 H -1.110249 -3.585085 1.061694 0
M  V30 END ATOM
M  V30 BEGIN BOND
M  V30 1 1 1 2
M  V30 2 1 2 3
M  V30 3 2 3 4
M  V30 4 1 4 5
M  V30 5 2 5 6
M  V30 6 1 6 7
M  V30 7 1 7 8
M  V30 8 2 8 9
M  V30 9 1 9 10
M  V30 10 2 10 11
M  V30 11 1 11 12
M  V30 12 1 12 13
M  V30 13 1 12 14
M  V30 14 2 14 15
M  V30 15 1 15 16
M  V30 16 2 16 17
M  V30 17 1 17 18
M  V30 18 2 18 19
M  V30 19 1 9 20
M  V30 20 2 20 21
M  V30 21 1 20 22
M  V30 22 1 22 23
M  V30 23 2 23 24
M  V30 24 2 7 25
M  V30 25 1 25 3
M  V30 26 1 23 8
M  V30 27 1 19 10
M  V30 28 1 19 14
M  V30 29 1 1 26
M  V30 30 1 1 27
M  V30 31 1 1 28
M  V30 32 1 4 29
M  V30 33 1 5 30
M  V30 34 1 6 31
M  V30 35 1 11 32
M  V30 36 1 13 33
M  V30 37 1 13 34
M  V30 38 1 13 35
M  V30 39 1 15 36
M  V30 40 1 16 37
M  V30 41 1 17 38
M  V30 42 1 18 39
M  V30 43 1 22 40
M  V30 44 1 25 41
M  V30 END BOND
M  V30 END CTAB
M  END
>  <Dataset>  (325) 
ChEMBL_Kinases

>  <Ligand_Instance>  (325) 
nan

>  <PDB_ID>  (325) 
nan

>  <Standardized_SMILES>  (325) 
COc1cccc(C2=C(c3cn(C)c4ccccc34)C(=O)NC2=O)c1

>  <Name>  (325) 
nan

>  <Pocket>  (325) 
nan

>  <ATP_Site>  (325) 
nan

>  <Peripheral>  (325) 
nan

>  <Num_H_Atoms_ProtBoundConf>  (325) 
nan

>  <Num_Resolved_Atoms>  (325) 
nan

>  <Num_Not_Resolved_Atoms>  (325) 
nan

$$$$
CHEMBL292746
     RDKit          3D

  0  0  0  0  0  0  0  0  0  0999 V3000
M  V30 BEGIN CTAB
M  V30 COUNTS 44 49 0 0 0
M  V30 BEGIN ATOM
M  V30 1 N 4.463609 -2.980168 2.073827 0
M  V30 2 C 3.337478 -3.229318 2.113226 0
M  V30 3 C 1.927537 -3.525530 2.142510 0
M  V30 4 C 1.240951 -3.345251 0.803222 0
M  V30 5 N 1.335714 -1.997325 0.290363 0
M  V30 6 C 2.363602 -1.644742 -0.534946 0
M  V30 7 C 3.447245 -2.322074 -1.057141 0
M  V30 8 C 4.379742 -1.748159 -1.890371 0
M  V30 9 C 4.245474 -0.421757 -2.237980 0
M  V30 10 C 3.171240 0.275306 -1.728808 0
M  V30 11 C 2.250788 -0.321757 -0.896190 0
M  V30 12 C 1.123687 0.140262 -0.272326 0
M  V30 13 C 0.513698 1.388055 -0.263199 0
M  V30 14 C -0.634157 1.559216 0.475183 0
M  V30 15 C -1.175503 0.533288 1.190417 0
M  V30 16 C -2.286155 0.495558 1.979922 0
M  V30 17 C -3.285774 1.314917 2.404759 0
M  V30 18 C -4.319731 0.967295 3.244446 0
M  V30 19 C -4.376263 -0.340513 3.721986 0
M  V30 20 C -3.371008 -1.189267 3.303050 0
M  V30 21 C -2.335483 -0.799892 2.448284 0
M  V30 22 N -1.283989 -1.517633 1.953145 0
M  V30 23 C -0.565578 -0.701002 1.176727 0
M  V30 24 C 0.580952 -0.904711 0.448984 0
M  V30 25 C -0.981958 2.939779 0.258188 0
M  V30 26 O -1.902731 3.668096 0.654417 0
M  V30 27 N -0.070202 3.607682 -0.594924 0
M  V30 28 C 0.947957 2.622037 -0.972845 0
M  V30 29 H 1.358086 -3.030075 2.953659 0
M  V30 30 H 1.840502 -4.620344 2.371528 0
M  V30 31 H 0.218929 -3.744019 0.892510 0
M  V30 32 H 1.721430 -4.069557 0.059076 0
M  V30 33 H 3.600419 -3.379325 -0.811881 0
M  V30 34 H 5.214623 -2.344991 -2.267806 0
M  V30 35 H 4.976156 0.040413 -2.895021 0
M  V30 36 H 3.080572 1.333825 -2.017575 0
M  V30 37 H -3.332831 2.329966 2.097683 0
M  V30 38 H -5.101442 1.641613 3.565432 0
M  V30 39 H -5.164988 -0.653468 4.378520 0
M  V30 40 H -3.461191 -2.201778 3.705231 0
M  V30 41 H -1.183697 -2.515157 2.222420 0
M  V30 42 H 0.036315 4.565846 -0.986733 0
M  V30 43 H 0.931862 2.539438 -2.060996 0
M  V30 44 H 1.921998 2.914403 -0.562387 0
M  V30 END ATOM
M  V30 BEGIN BOND
M  V30 1 3 1 2
M  V30 2 1 2 3
M  V30 3 1 3 4
M  V30 4 1 4 5
M  V30 5 1 5 6
M  V30 6 2 6 7
M  V30 7 1 7 8
M  V30 8 2 8 9
M  V30 9 1 9 10
M  V30 10 2 10 11
M  V30 11 1 11 12
M  V30 12 2 12 13
M  V30 13 1 13 14
M  V30 14 2 14 15
M  V30 15 1 15 16
M  V30 16 2 16 17
M  V30 17 1 17 18
M  V30 18 2 18 19
M  V30 19 1 19 20
M  V30 20 2 20 21
M  V30 21 1 21 22
M  V30 22 1 22 23
M  V30 23 2 23 24
M  V30 24 1 14 25
M  V30 25 2 25 26
M  V30 26 1 25 27
M  V30 27 1 27 28
M  V30 28 1 24 5
M  V30 29 1 11 6
M  V30 30 1 24 12
M  V30 31 1 28 13
M  V30 32 1 23 15
M  V30 33 1 21 16
M  V30 34 1 3 29
M  V30 35 1 3 30
M  V30 36 1 4 31
M  V30 37 1 4 32
M  V30 38 1 7 33
M  V30 39 1 8 34
M  V30 40 1 9 35
M  V30 41 1 10 36
M  V30 42 1 17 37
M  V30 43 1 18 38
M  V30 44 1 19 39
M  V30 45 1 20 40
M  V30 46 1 22 41
M  V30 47 1 27 42
M  V30 48 1 28 43
M  V30 49 1 28 44
M  V30 END BOND
M  V30 END CTAB
M  END
>  <Dataset>  (326) 
ChEMBL_Kinases

>  <Ligand_Instance>  (326) 
nan

>  <PDB_ID>  (326) 
nan

>  <Standardized_SMILES>  (326) 
N#CCCn1c2ccccc2c2c3c(c4c5ccccc5[nH]c4c21)C(=O)NC3

>  <Name>  (326) 
nan

>  <Pocket>  (326) 
nan

>  <ATP_Site>  (326) 
nan

>  <Peripheral>  (326) 
nan

>  <Num_H_Atoms_ProtBoundConf>  (326) 
nan

>  <Num_Resolved_Atoms>  (326) 
nan

>  <Num_Not_Resolved_Atoms>  (326) 
nan

$$$$
CHEMBL291920
     RDKit          3D

  0  0  0  0  0  0  0  0  0  0999 V3000
M  V30 BEGIN CTAB
M  V30 COUNTS 48 53 0 0 0
M  V30 BEGIN ATOM
M  V30 1 O 3.569578 -3.897202 -0.090061 0
M  V30 2 C 2.702132 -3.390307 0.636375 0
M  V30 3 N 2.448187 -4.162799 1.782698 0
M  V30 4 C 1.412352 -3.476296 2.568170 0
M  V30 5 C 1.149195 -2.275864 1.727033 0
M  V30 6 C 1.902039 -2.203038 0.576691 0
M  V30 7 C 1.783603 -1.177173 -0.294267 0
M  V30 8 C 2.434480 -0.934933 -1.470490 0
M  V30 9 C 3.389689 -1.491932 -2.271137 0
M  V30 10 C 3.857129 -0.978798 -3.459727 0
M  V30 11 C 3.330603 0.213023 -3.915671 0
M  V30 12 C 2.363411 0.804367 -3.132727 0
M  V30 13 C 1.907114 0.255857 -1.924191 0
M  V30 14 N 0.970096 0.707453 -1.042675 0
M  V30 15 C 0.883638 -0.167047 -0.031989 0
M  V30 16 C 0.095914 -0.157725 1.085085 0
M  V30 17 C 0.244351 -1.234948 1.965390 0
M  V30 18 C -0.634762 -1.028750 3.017438 0
M  V30 19 C -0.918067 -1.744937 4.160112 0
M  V30 20 C -1.855052 -1.307724 5.071819 0
M  V30 21 C -2.506418 -0.122166 4.804907 0
M  V30 22 C -2.194145 0.563864 3.651039 0
M  V30 23 C -1.265835 0.158066 2.719034 0
M  V30 24 N -0.824765 0.687404 1.547947 0
M  V30 25 C -1.344121 1.911513 1.031010 0
M  V30 26 C -2.514417 1.704173 0.094056 0
M  V30 27 O -2.142517 0.917421 -0.998774 0
M  V30 28 C -3.709773 1.073676 0.740865 0
M  V30 29 O -4.747370 1.008889 -0.214727 0
M  V30 30 H 2.779651 -5.053049 2.211166 0
M  V30 31 H 0.539444 -4.154323 2.635883 0
M  V30 32 H 1.786349 -3.245145 3.570427 0
M  V30 33 H 3.849759 -2.409418 -1.998364 0
M  V30 34 H 4.617541 -1.457487 -4.061321 0
M  V30 35 H 3.669319 0.649096 -4.842103 0
M  V30 36 H 1.980082 1.744485 -3.538130 0
M  V30 37 H 0.485357 1.598105 -1.257269 0
M  V30 38 H -0.404509 -2.677273 4.368253 0
M  V30 39 H -2.037567 -1.909574 5.951302 0
M  V30 40 H -3.238396 0.208034 5.528951 0
M  V30 41 H -2.760229 1.477839 3.550587 0
M  V30 42 H -0.590397 2.516523 0.523109 0
M  V30 43 H -1.759473 2.553382 1.881065 0
M  V30 44 H -2.800323 2.692390 -0.335727 0
M  V30 45 H -2.817057 0.218810 -1.201188 0
M  V30 46 H -3.464000 0.063658 1.103305 0
M  V30 47 H -4.069185 1.692858 1.594979 0
M  V30 48 H -4.808608 0.069810 -0.523435 0
M  V30 END ATOM
M  V30 BEGIN BOND
M  V30 1 2 1 2
M  V30 2 1 2 3
M  V30 3 1 3 4
M  V30 4 1 4 5
M  V30 5 2 5 6
M  V30 6 1 6 7
M  V30 7 1 7 8
M  V30 8 2 8 9
M  V30 9 1 9 10
M  V30 10 2 10 11
M  V30 11 1 11 12
M  V30 12 2 12 13
M  V30 13 1 13 14
M  V30 14 1 14 15
M  V30 15 1 15 16
M  V30 16 2 16 17
M  V30 17 1 17 18
M  V30 18 2 18 19
M  V30 19 1 19 20
M  V30 20 2 20 21
M  V30 21 1 21 22
M  V30 22 2 22 23
M  V30 23 1 23 24
M  V30 24 1 24 25
M  V30 25 1 25 26
M  V30 26 1 26 27
M  V30 27 1 26 28
M  V30 28 1 28 29
M  V30 29 1 6 2
M  V30 30 2 15 7
M  V30 31 1 24 16
M  V30 32 1 17 5
M  V30 33 1 23 18
M  V30 34 1 13 8
M  V30 35 1 3 30
M  V30 36 1 4 31
M  V30 37 1 4 32
M  V30 38 1 9 33
M  V30 39 1 10 34
M  V30 40 1 11 35
M  V30 41 1 12 36
M  V30 42 1 14 37
M  V30 43 1 19 38
M  V30 44 1 20 39
M  V30 45 1 21 40
M  V30 46 1 22 41
M  V30 47 1 25 42
M  V30 48 1 25 43
M  V30 49 1 26 44
M  V30 50 1 27 45
M  V30 51 1 28 46
M  V30 52 1 28 47
M  V30 53 1 29 48
M  V30 END BOND
M  V30 END CTAB
M  END
>  <Dataset>  (327) 
ChEMBL_Kinases

>  <Ligand_Instance>  (327) 
nan

>  <PDB_ID>  (327) 
nan

>  <Standardized_SMILES>  (327) 
O=C1NCc2c1c1c3ccccc3[nH]c1c1c2c2ccccc2n1CC(O)CO

>  <Name>  (327) 
nan

>  <Pocket>  (327) 
nan

>  <ATP_Site>  (327) 
nan

>  <Peripheral>  (327) 
nan

>  <Num_H_Atoms_ProtBoundConf>  (327) 
nan

>  <Num_Resolved_Atoms>  (327) 
nan

>  <Num_Not_Resolved_Atoms>  (327) 
nan

$$$$
CHEMBL291481
     RDKit          3D

  0  0  0  0  0  0  0  0  0  0999 V3000
M  V30 BEGIN CTAB
M  V30 COUNTS 34 33 0 0 0
M  V30 BEGIN ATOM
M  V30 1 C -0.237729 0.287300 4.810332 0
M  V30 2 C -0.355523 -0.738371 3.769356 0
M  V30 3 O -0.017428 -1.884171 4.137979 0
M  V30 4 N -0.801776 -0.512800 2.458701 0
M  V30 5 C -0.942265 -1.464098 1.386265 0
M  V30 6 C 0.436067 -2.054449 1.112122 0
M  V30 7 C 0.434987 -3.032590 0.011868 0
M  V30 8 C 0.048337 -2.522418 -1.321609 0
M  V30 9 C 0.874664 -1.557488 -2.047035 0
M  V30 10 C 1.161385 -0.200645 -1.508368 0
M  V30 11 N -0.027621 0.601311 -1.275400 0
M  V30 12 C 0.248468 1.900930 -0.753928 0
M  V30 13 C -0.880829 2.839699 -0.464045 0
M  V30 14 O 1.427805 2.311095 -0.517996 0
M  V30 15 H -0.541157 -0.107166 5.803317 0
M  V30 16 H -0.887207 1.162868 4.605397 0
M  V30 17 H 0.810612 0.654520 4.907788 0
M  V30 18 H -1.052255 0.487850 2.287117 0
M  V30 19 H -1.632381 -2.303973 1.674767 0
M  V30 20 H -1.330247 -0.989215 0.493948 0
M  V30 21 H 0.782904 -2.566646 2.075614 0
M  V30 22 H 1.132183 -1.251000 0.974358 0
M  V30 23 H -0.256637 -3.895137 0.258541 0
M  V30 24 H 1.461610 -3.519701 -0.019514 0
M  V30 25 H -0.102355 -3.470442 -1.962103 0
M  V30 26 H -1.015396 -2.109156 -1.217552 0
M  V30 27 H 0.375979 -1.404464 -3.074828 0
M  V30 28 H 1.848673 -2.058006 -2.384428 0
M  V30 29 H 1.672295 0.391072 -2.383288 0
M  V30 30 H 1.921627 -0.116725 -0.736814 0
M  V30 31 H -1.019211 0.372259 -1.431790 0
M  V30 32 H -1.742019 2.278078 -0.022691 0
M  V30 33 H -0.556741 3.616714 0.229356 0
M  V30 34 H -1.240428 3.311480 -1.417194 0
M  V30 END ATOM
M  V30 BEGIN BOND
M  V30 1 1 1 2
M  V30 2 2 2 3
M  V30 3 1 2 4
M  V30 4 1 4 5
M  V30 5 1 5 6
M  V30 6 1 6 7
M  V30 7 1 7 8
M  V30 8 1 8 9
M  V30 9 1 9 10
M  V30 10 1 10 11
M  V30 11 1 11 12
M  V30 12 1 12 13
M  V30 13 2 12 14
M  V30 14 1 1 15
M  V30 15 1 1 16
M  V30 16 1 1 17
M  V30 17 1 4 18
M  V30 18 1 5 19
M  V30 19 1 5 20
M  V30 20 1 6 21
M  V30 21 1 6 22
M  V30 22 1 7 23
M  V30 23 1 7 24
M  V30 24 1 8 25
M  V30 25 1 8 26
M  V30 26 1 9 27
M  V30 27 1 9 28
M  V30 28 1 10 29
M  V30 29 1 10 30
M  V30 30 1 11 31
M  V30 31 1 13 32
M  V30 32 1 13 33
M  V30 33 1 13 34
M  V30 END BOND
M  V30 END CTAB
M  END
>  <Dataset>  (328) 
ChEMBL_Kinases

>  <Ligand_Instance>  (328) 
nan

>  <PDB_ID>  (328) 
nan

>  <Standardized_SMILES>  (328) 
CC(=O)NCCCCCCNC(C)=O

>  <Name>  (328) 
HEXAMETHYLENEBISACETAMIDE

>  <Pocket>  (328) 
nan

>  <ATP_Site>  (328) 
nan

>  <Peripheral>  (328) 
nan

>  <Num_H_Atoms_ProtBoundConf>  (328) 
nan

>  <Num_Resolved_Atoms>  (328) 
nan

>  <Num_Not_Resolved_Atoms>  (328) 
nan

$$$$
CHEMBL290352
     RDKit          3D

  0  0  0  0  0  0  0  0  0  0999 V3000
M  V30 BEGIN CTAB
M  V30 COUNTS 76 83 0 0 0
M  V30 BEGIN ATOM
M  V30 1 C 1.303815 7.843858 -3.434631 0
M  V30 2 C 0.059865 6.998132 -3.292950 0
M  V30 3 S -0.587558 7.081026 -1.614855 0
M  V30 4 C 0.541125 6.327880 -0.419479 0
M  V30 5 C 0.628728 4.878179 -0.686602 0
M  V30 6 C 1.609065 4.401874 -1.566408 0
M  V30 7 C 1.698193 3.055759 -1.819818 0
M  V30 8 C 0.812790 2.199502 -1.196147 0
M  V30 9 C -0.168768 2.612584 -0.324042 0
M  V30 10 C -0.200668 3.950579 -0.119485 0
M  V30 11 C -0.819545 1.482034 0.067124 0
M  V30 12 C -1.837022 1.282769 0.916627 0
M  V30 13 C -2.296487 0.010035 1.155738 0
M  V30 14 C -1.737660 -1.090059 0.538985 0
M  V30 15 C -1.927993 -2.453117 0.529676 0
M  V30 16 C -2.848495 -3.188278 1.242389 0
M  V30 17 C -2.868264 -4.564232 1.094787 0
M  V30 18 C -3.803891 -5.449745 1.796512 0
M  V30 19 S -3.198846 -6.035095 3.398570 0
M  V30 20 C -3.044502 -4.689735 4.583594 0
M  V30 21 C -2.551141 -5.236673 5.898510 0
M  V30 22 C -1.929976 -5.113430 0.213451 0
M  V30 23 C -1.026899 -4.339338 -0.479363 0
M  V30 24 C -0.998022 -2.973891 -0.342084 0
M  V30 25 N -0.224309 -2.058757 -0.897803 0
M  V30 26 C -0.694293 -0.899124 -0.335647 0
M  V30 27 C -0.252643 0.393688 -0.552065 0
M  V30 28 N 0.764007 0.859640 -1.332797 0
M  V30 29 C 1.626528 -0.068479 -2.098177 0 CFG=1
M  V30 30 C 2.417432 -0.780990 -0.995619 0
M  V30 31 C 2.205452 -2.212064 -1.407270 0 CFG=2
M  V30 32 O 2.437782 -3.110301 -0.383139 0
M  V30 33 C 3.121812 -2.432121 -2.563745 0
M  V30 34 O 3.153229 -1.783700 -3.641217 0
M  V30 35 O 4.050071 -3.465467 -2.452166 0
M  V30 36 C 4.989352 -3.838092 -3.403921 0
M  V30 37 C 0.811727 -2.176754 -1.900371 0 CFG=1
M  V30 38 C 0.519975 -3.262522 -2.927194 0
M  V30 39 O 0.814760 -0.988333 -2.672309 0
M  V30 40 C -3.426532 -0.032803 2.123437 0
M  V30 41 N -3.589139 1.378597 2.434115 0
M  V30 42 C -2.647037 2.159258 1.719842 0
M  V30 43 O -2.698990 3.380733 1.913814 0
M  V30 44 H 1.255175 8.460855 -4.361408 0
M  V30 45 H 2.205262 7.205447 -3.421374 0
M  V30 46 H 1.373672 8.493979 -2.528086 0
M  V30 47 H 0.324818 5.966032 -3.597507 0
M  V30 48 H -0.706496 7.334749 -4.022950 0
M  V30 49 H 0.256783 6.541578 0.616235 0
M  V30 50 H 1.572973 6.752736 -0.596018 0
M  V30 51 H 2.298161 5.091401 -2.049444 0
M  V30 52 H 2.446874 2.696277 -2.490497 0
M  V30 53 H -0.920719 4.369894 0.535514 0
M  V30 54 H -3.545732 -2.723288 1.903519 0
M  V30 55 H -4.758357 -4.900007 2.011994 0
M  V30 56 H -4.107816 -6.321164 1.176097 0
M  V30 57 H -2.295391 -3.964241 4.219736 0
M  V30 58 H -3.997219 -4.170267 4.706527 0
M  V30 59 H -2.122655 -6.250832 5.793488 0
M  V30 60 H -1.806431 -4.577929 6.389164 0
M  V30 61 H -3.421758 -5.253134 6.601932 0
M  V30 62 H -1.912398 -6.188193 0.069116 0
M  V30 63 H -0.336300 -4.811292 -1.122534 0
M  V30 64 H 2.290407 0.476096 -2.779070 0
M  V30 65 H 3.485133 -0.480721 -1.034544 0
M  V30 66 H 1.982556 -0.641668 0.004899 0
M  V30 67 H 2.641487 -3.977170 -0.789115 0
M  V30 68 H 4.863236 -3.174653 -4.281449 0
M  V30 69 H 6.008705 -3.668874 -2.954375 0
M  V30 70 H 4.881833 -4.905095 -3.668398 0
M  V30 71 H 1.117935 -4.163992 -2.816042 0
M  V30 72 H -0.574737 -3.397446 -2.972449 0
M  V30 73 H 0.780013 -2.897150 -3.973879 0
M  V30 74 H -3.146327 -0.513491 3.075643 0
M  V30 75 H -4.318571 -0.459001 1.635408 0
M  V30 76 H -4.345668 1.612697 3.112087 0
M  V30 END ATOM
M  V30 BEGIN BOND
M  V30 1 1 1 2
M  V30 2 1 2 3
M  V30 3 1 3 4
M  V30 4 1 4 5
M  V30 5 2 5 6
M  V30 6 1 6 7
M  V30 7 2 7 8
M  V30 8 1 8 9
M  V30 9 2 9 10
M  V30 10 1 9 11
M  V30 11 2 11 12
M  V30 12 1 12 13
M  V30 13 2 13 14
M  V30 14 1 14 15
M  V30 15 2 15 16
M  V30 16 1 16 17
M  V30 17 1 17 18
M  V30 18 1 18 19
M  V30 19 1 19 20
M  V30 20 1 20 21
M  V30 21 2 17 22
M  V30 22 1 22 23
M  V30 23 2 23 24
M  V30 24 1 24 25
M  V30 25 1 25 26
M  V30 26 2 26 27
M  V30 27 1 27 28
M  V30 28 1 28 29
M  V30 29 1 29 30
M  V30 30 1 30 31
M  V30 31 1 31 32 CFG=1
M  V30 32 1 31 33
M  V30 33 2 33 34
M  V30 34 1 33 35
M  V30 35 1 35 36
M  V30 36 1 31 37
M  V30 37 1 37 38 CFG=3
M  V30 38 1 37 39
M  V30 39 1 13 40
M  V30 40 1 40 41
M  V30 41 1 41 42
M  V30 42 2 42 43
M  V30 43 1 10 5
M  V30 44 1 27 11
M  V30 45 1 39 29
M  V30 46 1 28 8
M  V30 47 1 42 12
M  V30 48 1 26 14
M  V30 49 1 24 15
M  V30 50 1 37 25
M  V30 51 1 1 44
M  V30 52 1 1 45
M  V30 53 1 1 46
M  V30 54 1 2 47
M  V30 55 1 2 48
M  V30 56 1 4 49
M  V30 57 1 4 50
M  V30 58 1 6 51
M  V30 59 1 7 52
M  V30 60 1 10 53
M  V30 61 1 16 54
M  V30 62 1 18 55
M  V30 63 1 18 56
M  V30 64 1 20 57
M  V30 65 1 20 58
M  V30 66 1 21 59
M  V30 67 1 21 60
M  V30 68 1 21 61
M  V30 69 1 22 62
M  V30 70 1 23 63
M  V30 71 1 29 64 CFG=3
M  V30 72 1 30 65
M  V30 73 1 30 66
M  V30 74 1 32 67
M  V30 75 1 36 68
M  V30 76 1 36 69
M  V30 77 1 36 70
M  V30 78 1 38 71
M  V30 79 1 38 72
M  V30 80 1 38 73
M  V30 81 1 40 74
M  V30 82 1 40 75
M  V30 83 1 41 76
M  V30 END BOND
M  V30 END CTAB
M  END
>  <Dataset>  (329) 
ChEMBL_Kinases

>  <Ligand_Instance>  (329) 
nan

>  <PDB_ID>  (329) 
nan

>  <Standardized_SMILES>  (329) 
CCSCc1ccc2c(c1)c1c3c(c4c5cc(CSCC)ccc5n5c4c1n2[C@H]1C[C@](O)(C(=O)OC)[C@]5(C)O1)CNC3=O

>  <Name>  (329) 
CEP-1347

>  <Pocket>  (329) 
nan

>  <ATP_Site>  (329) 
nan

>  <Peripheral>  (329) 
nan

>  <Num_H_Atoms_ProtBoundConf>  (329) 
nan

>  <Num_Resolved_Atoms>  (329) 
nan

>  <Num_Not_Resolved_Atoms>  (329) 
nan

$$$$
CHEMBL28837
     RDKit          3D

  0  0  0  0  0  0  0  0  0  0999 V3000
M  V30 BEGIN CTAB
M  V30 COUNTS 64 64 0 0 0
M  V30 BEGIN ATOM
M  V30 1 C 2.962513 -5.808006 4.139976 0
M  V30 2 C 2.841633 -4.686169 3.128516 0
M  V30 3 C 2.804796 -3.340352 3.830040 0
M  V30 4 C 2.683306 -2.254146 2.773468 0
M  V30 5 C 2.648155 -0.930269 3.484051 0
M  V30 6 C 2.518022 0.246672 2.553351 0
M  V30 7 C 3.700903 0.259067 1.619215 0
M  V30 8 C 3.637296 1.429678 0.657228 0
M  V30 9 C 2.416011 1.428362 -0.212553 0
M  V30 10 C 2.349994 0.194813 -1.047541 0
M  V30 11 C 1.110023 0.155880 -1.954650 0
M  V30 12 C 1.055805 1.299173 -2.910600 0
M  V30 13 C -0.106245 1.346831 -3.833948 0
M  V30 14 C -1.463934 1.428574 -3.201068 0
M  V30 15 O -1.764251 0.330587 -2.360613 0
M  V30 16 C -2.988479 0.271409 -1.718711 0
M  V30 17 O -3.422023 1.348321 -2.185374 0
M  V30 18 C -3.082121 -0.953427 -0.898246 0
M  V30 19 C -4.397809 -1.079787 -0.163146 0 CFG=2
M  V30 20 C -5.499980 -1.106991 -1.189843 0
M  V30 21 C -5.838272 0.323087 -1.347107 0
M  V30 22 O -6.547009 0.836041 -2.236852 0
M  V30 23 O -5.233675 1.035722 -0.328565 0
M  V30 24 C -4.697956 0.159128 0.631910 0 CFG=1
M  V30 25 C -5.716897 -0.115637 1.718193 0
M  V30 26 O -6.879491 -0.695758 1.221193 0
M  V30 27 H 3.237521 -6.743087 3.583837 0
M  V30 28 H 3.759168 -5.596010 4.863687 0
M  V30 29 H 1.997738 -5.925493 4.673495 0
M  V30 30 H 1.909338 -4.855948 2.577574 0
M  V30 31 H 3.724907 -4.708661 2.467681 0
M  V30 32 H 3.739119 -3.191670 4.393601 0
M  V30 33 H 1.932620 -3.254840 4.492776 0
M  V30 34 H 1.810399 -2.414891 2.128779 0
M  V30 35 H 3.618485 -2.311497 2.166849 0
M  V30 36 H 3.589045 -0.765626 4.070233 0
M  V30 37 H 1.835023 -0.885474 4.246483 0
M  V30 38 H 1.561472 0.120204 1.990473 0
M  V30 39 H 2.475277 1.185591 3.132996 0
M  V30 40 H 4.612645 0.404190 2.223363 0
M  V30 41 H 3.704663 -0.673924 1.008269 0
M  V30 42 H 4.532240 1.408831 0.018138 0
M  V30 43 H 3.639481 2.386649 1.208029 0
M  V30 44 H 2.502102 2.337367 -0.848890 0
M  V30 45 H 1.517384 1.489897 0.433941 0
M  V30 46 H 2.197768 -0.686437 -0.358680 0
M  V30 47 H 3.251736 -0.014670 -1.619685 0
M  V30 48 H 0.265729 0.059888 -1.264471 0
M  V30 49 H 1.195317 -0.818843 -2.478449 0
M  V30 50 H 1.963840 1.186725 -3.576344 0
M  V30 51 H 1.220588 2.283366 -2.426062 0
M  V30 52 H -0.134397 0.522765 -4.556078 0
M  V30 53 H 0.004579 2.274467 -4.434125 0
M  V30 54 H -1.640986 2.397557 -2.687655 0
M  V30 55 H -2.193387 1.385666 -4.037982 0
M  V30 56 H -3.025226 -1.876686 -1.542885 0
M  V30 57 H -2.264811 -1.006706 -0.180143 0
M  V30 58 H -4.410308 -1.995189 0.477068 0
M  V30 59 H -6.369807 -1.691872 -0.818952 0
M  V30 60 H -5.128127 -1.533483 -2.153268 0
M  V30 61 H -3.790725 0.578581 1.120841 0
M  V30 62 H -5.258773 -0.704145 2.531443 0
M  V30 63 H -5.980884 0.868883 2.180741 0
M  V30 64 H -7.480599 0.056341 0.958766 0
M  V30 END ATOM
M  V30 BEGIN BOND
M  V30 1 1 1 2
M  V30 2 1 2 3
M  V30 3 1 3 4
M  V30 4 1 4 5
M  V30 5 1 5 6
M  V30 6 1 6 7
M  V30 7 1 7 8
M  V30 8 1 8 9
M  V30 9 1 9 10
M  V30 10 1 10 11
M  V30 11 1 11 12
M  V30 12 1 12 13
M  V30 13 1 13 14
M  V30 14 1 14 15
M  V30 15 1 15 16
M  V30 16 2 16 17
M  V30 17 1 16 18
M  V30 18 1 18 19
M  V30 19 1 19 20
M  V30 20 1 20 21
M  V30 21 2 21 22
M  V30 22 1 21 23
M  V30 23 1 23 24
M  V30 24 1 24 25
M  V30 25 1 25 26
M  V30 26 1 24 19
M  V30 27 1 1 27
M  V30 28 1 1 28
M  V30 29 1 1 29
M  V30 30 1 2 30
M  V30 31 1 2 31
M  V30 32 1 3 32
M  V30 33 1 3 33
M  V30 34 1 4 34
M  V30 35 1 4 35
M  V30 36 1 5 36
M  V30 37 1 5 37
M  V30 38 1 6 38
M  V30 39 1 6 39
M  V30 40 1 7 40
M  V30 41 1 7 41
M  V30 42 1 8 42
M  V30 43 1 8 43
M  V30 44 1 9 44
M  V30 45 1 9 45
M  V30 46 1 10 46
M  V30 47 1 10 47
M  V30 48 1 11 48
M  V30 49 1 11 49
M  V30 50 1 12 50
M  V30 51 1 12 51
M  V30 52 1 13 52
M  V30 53 1 13 53
M  V30 54 1 14 54
M  V30 55 1 14 55
M  V30 56 1 18 56
M  V30 57 1 18 57
M  V30 58 1 19 58 CFG=1
M  V30 59 1 20 59
M  V30 60 1 20 60
M  V30 61 1 24 61 CFG=1
M  V30 62 1 25 62
M  V30 63 1 25 63
M  V30 64 1 26 64
M  V30 END BOND
M  V30 END CTAB
M  END
>  <Dataset>  (330) 
ChEMBL_Kinases

>  <Ligand_Instance>  (330) 
nan

>  <PDB_ID>  (330) 
nan

>  <Standardized_SMILES>  (330) 
CCCCCCCCCCCCCCOC(=O)C[C@@H]1CC(=O)O[C@H]1CO

>  <Name>  (330) 
nan

>  <Pocket>  (330) 
nan

>  <ATP_Site>  (330) 
nan

>  <Peripheral>  (330) 
nan

>  <Num_H_Atoms_ProtBoundConf>  (330) 
nan

>  <Num_Resolved_Atoms>  (330) 
nan

>  <Num_Not_Resolved_Atoms>  (330) 
nan

$$$$
CHEMBL288096
     RDKit          3D

  0  0  0  0  0  0  0  0  0  0999 V3000
M  V30 BEGIN CTAB
M  V30 COUNTS 44 47 0 0 0
M  V30 BEGIN ATOM
M  V30 1 C 1.129656 -3.582669 2.509536 0
M  V30 2 C 1.456610 -2.230607 1.861764 0
M  V30 3 C 1.471423 -1.229589 2.984809 0
M  V30 4 N 1.758786 0.116930 2.605774 0
M  V30 5 C 3.089642 0.337837 2.168193 0
M  V30 6 C 3.163953 1.480484 1.180573 0
M  V30 7 C 2.262091 1.024117 0.072367 0
M  V30 8 C 2.654159 0.931947 -1.245887 0
M  V30 9 C 1.778039 0.502851 -2.235448 0
M  V30 10 O 2.235334 0.431599 -3.544508 0
M  V30 11 C 0.506146 0.180654 -1.811404 0
M  V30 12 C 0.089254 0.262796 -0.509084 0
M  V30 13 C 0.975986 0.689454 0.449285 0
M  V30 14 C 0.738661 0.837736 1.929665 0 CFG=1
M  V30 15 C -0.660349 0.582094 2.308781 0
M  V30 16 C -1.546198 0.084110 1.227955 0
M  V30 17 C -2.829497 -0.240758 1.680119 0
M  V30 18 C -3.747258 -0.697417 0.754194 0
M  V30 19 C -3.437849 -0.843233 -0.602476 0
M  V30 20 O -4.452146 -1.315093 -1.444133 0
M  V30 21 C -2.162827 -0.512889 -1.006344 0
M  V30 22 O -1.968530 -0.691537 -2.341499 0
M  V30 23 C -1.255987 -0.061111 -0.087062 0
M  V30 24 H 0.671081 -3.452636 3.509460 0
M  V30 25 H 2.043865 -4.185156 2.511674 0
M  V30 26 H 0.382036 -4.132999 1.904952 0
M  V30 27 H 0.687354 -2.063140 1.101935 0
M  V30 28 H 2.455274 -2.270159 1.398125 0
M  V30 29 H 0.611653 -1.406502 3.617359 0
M  V30 30 H 2.360784 -1.543479 3.622337 0
M  V30 31 H 3.511814 -0.541031 1.595341 0
M  V30 32 H 3.808603 0.477608 2.999951 0
M  V30 33 H 4.222525 1.490895 0.818451 0
M  V30 34 H 2.865514 2.441116 1.616644 0
M  V30 35 H 3.669109 1.202068 -1.505738 0
M  V30 36 H 2.894074 -0.299289 -3.777332 0
M  V30 37 H -0.092959 -0.135318 -2.632585 0
M  V30 38 H 0.978166 1.930797 2.110836 0
M  V30 39 H -0.756879 -0.026781 3.216275 0
M  V30 40 H -1.147158 1.566719 2.609367 0
M  V30 41 H -3.147355 -0.158546 2.702183 0
M  V30 42 H -4.745088 -0.951658 1.095489 0
M  V30 43 H -4.625772 -2.306386 -1.430178 0
M  V30 44 H -2.497857 -0.364651 -3.112128 0
M  V30 END ATOM
M  V30 BEGIN BOND
M  V30 1 1 1 2
M  V30 2 1 2 3
M  V30 3 1 3 4
M  V30 4 1 4 5
M  V30 5 1 5 6
M  V30 6 1 6 7
M  V30 7 2 7 8
M  V30 8 1 8 9
M  V30 9 1 9 10
M  V30 10 2 9 11
M  V30 11 1 11 12
M  V30 12 2 12 13
M  V30 13 1 13 14
M  V30 14 1 14 15
M  V30 15 1 15 16
M  V30 16 2 16 17
M  V30 17 1 17 18
M  V30 18 2 18 19
M  V30 19 1 19 20
M  V30 20 1 19 21
M  V30 21 1 21 22
M  V30 22 2 21 23
M  V30 23 1 14 4
M  V30 24 1 23 16
M  V30 25 1 13 7
M  V30 26 1 23 12
M  V30 27 1 1 24
M  V30 28 1 1 25
M  V30 29 1 1 26
M  V30 30 1 2 27
M  V30 31 1 2 28
M  V30 32 1 3 29
M  V30 33 1 3 30
M  V30 34 1 5 31
M  V30 35 1 5 32
M  V30 36 1 6 33
M  V30 37 1 6 34
M  V30 38 1 8 35
M  V30 39 1 10 36
M  V30 40 1 11 37
M  V30 41 1 14 38 CFG=1
M  V30 42 1 15 39
M  V30 43 1 15 40
M  V30 44 1 17 41
M  V30 45 1 18 42
M  V30 46 1 20 43
M  V30 47 1 22 44
M  V30 END BOND
M  V30 END CTAB
M  END
>  <Dataset>  (331) 
ChEMBL_Kinases

>  <Ligand_Instance>  (331) 
nan

>  <PDB_ID>  (331) 
nan

>  <Standardized_SMILES>  (331) 
CCCN1CCc2cc(O)cc3c2[C@H]1Cc1ccc(O)c(O)c1-3

>  <Name>  (331) 
nan

>  <Pocket>  (331) 
nan

>  <ATP_Site>  (331) 
nan

>  <Peripheral>  (331) 
nan

>  <Num_H_Atoms_ProtBoundConf>  (331) 
nan

>  <Num_Resolved_Atoms>  (331) 
nan

>  <Num_Not_Resolved_Atoms>  (331) 
nan

$$$$
CHEMBL286737
     RDKit          3D

  0  0  0  0  0  0  0  0  0  0999 V3000
M  V30 BEGIN CTAB
M  V30 COUNTS 24 25 0 0 0
M  V30 BEGIN ATOM
M  V30 1 N -0.562838 -3.768147 2.665784 0
M  V30 2 C 0.190136 -2.743108 2.020864 0
M  V30 3 C -0.381045 -2.250369 0.863697 0
M  V30 4 C 0.235304 -1.254433 0.132425 0
M  V30 5 C 1.442004 -0.711203 0.523882 0
M  V30 6 S 2.342802 0.533984 -0.270578 0
M  V30 7 O 2.219458 0.441132 -1.778625 0
M  V30 8 O 3.827155 0.337464 0.000934 0
M  V30 9 N 1.964287 2.119405 0.247104 0
M  V30 10 C 0.615837 2.453508 -0.002187 0
M  V30 11 N -0.412327 1.923348 -0.501567 0
M  V30 12 N -1.528079 2.576313 -0.559464 0
M  V30 13 C -1.747453 3.665145 -0.192369 0
M  V30 14 S -0.016312 4.140356 0.483951 0
M  V30 15 C 1.997988 -1.229394 1.700221 0
M  V30 16 C 1.379713 -2.224028 2.428034 0
M  V30 17 H -0.209928 -4.598680 3.166239 0
M  V30 18 H -1.614370 -3.741823 2.673773 0
M  V30 19 H -1.312948 -2.591879 0.460313 0
M  V30 20 H -0.175356 -0.851216 -0.763892 0
M  V30 21 H 2.631128 2.785481 0.697889 0
M  V30 22 H -2.774081 4.109603 -0.307247 0
M  V30 23 H 2.945553 -0.894429 2.126305 0
M  V30 24 H 1.795510 -2.635283 3.338523 0
M  V30 END ATOM
M  V30 BEGIN BOND
M  V30 1 1 1 2
M  V30 2 2 2 3
M  V30 3 1 3 4
M  V30 4 2 4 5
M  V30 5 1 5 6
M  V30 6 2 6 7
M  V30 7 2 6 8
M  V30 8 1 6 9
M  V30 9 1 9 10
M  V30 10 2 10 11
M  V30 11 1 11 12
M  V30 12 2 12 13
M  V30 13 1 13 14
M  V30 14 1 5 15
M  V30 15 2 15 16
M  V30 16 1 16 2
M  V30 17 1 14 10
M  V30 18 1 1 17
M  V30 19 1 1 18
M  V30 20 1 3 19
M  V30 21 1 4 20
M  V30 22 1 9 21
M  V30 23 1 13 22
M  V30 24 1 15 23
M  V30 25 1 16 24
M  V30 END BOND
M  V30 END CTAB
M  END
>  <Dataset>  (332) 
ChEMBL_Kinases

>  <Ligand_Instance>  (332) 
nan

>  <PDB_ID>  (332) 
nan

>  <Standardized_SMILES>  (332) 
Nc1ccc(S(=O)(=O)Nc2nncs2)cc1

>  <Name>  (332) 
nan

>  <Pocket>  (332) 
nan

>  <ATP_Site>  (332) 
nan

>  <Peripheral>  (332) 
nan

>  <Num_H_Atoms_ProtBoundConf>  (332) 
nan

>  <Num_Resolved_Atoms>  (332) 
nan

>  <Num_Not_Resolved_Atoms>  (332) 
nan

$$$$
CHEMBL28626
     RDKit          3D

  0  0  0  0  0  0  0  0  0  0999 V3000
M  V30 BEGIN CTAB
M  V30 COUNTS 32 34 0 0 0
M  V30 BEGIN ATOM
M  V30 1 O -0.960322 2.812117 1.018661 0
M  V30 2 C -0.809491 1.570601 0.947651 0
M  V30 3 C 0.366554 0.975631 0.575879 0
M  V30 4 O 1.363238 1.855962 0.288531 0
M  V30 5 C 0.612694 -0.361448 0.473795 0
M  V30 6 C 1.801142 -1.076727 0.095820 0
M  V30 7 C 1.714085 -2.452874 0.095283 0
M  V30 8 C 2.753161 -3.289975 -0.239258 0
M  V30 9 C 3.971990 -2.771882 -0.602034 0
M  V30 10 O 5.019378 -3.613102 -0.939229 0
M  V30 11 C 4.110813 -1.403257 -0.617491 0
M  V30 12 C 3.033793 -0.631006 -0.272636 0
M  V30 13 O 3.273673 0.709374 -0.319634 0
M  V30 14 O -0.445716 -1.064204 0.783614 0
M  V30 15 C -1.602519 -0.580263 1.147288 0
M  V30 16 C -2.592940 -1.496817 1.432043 0
M  V30 17 C -3.822435 -1.005395 1.818142 0
M  V30 18 O -4.849368 -1.897591 2.114567 0
M  V30 19 C -4.103977 0.357328 1.931550 0
M  V30 20 C -3.099857 1.255881 1.642234 0
M  V30 21 O -3.279232 2.645264 1.724901 0
M  V30 22 C -1.876856 0.760829 1.258069 0
M  V30 23 H 1.601087 2.680326 0.820860 0
M  V30 24 H 0.806504 -3.020189 0.361859 0
M  V30 25 H 2.667857 -4.355464 -0.234200 0
M  V30 26 H 4.922195 -4.609553 -0.810979 0
M  V30 27 H 5.064721 -1.002002 -0.901498 0
M  V30 28 H 3.790526 1.143580 -1.046748 0
M  V30 29 H -2.471843 -2.568022 1.373590 0
M  V30 30 H -4.553674 -2.712785 2.672007 0
M  V30 31 H -5.074679 0.729518 2.236086 0
M  V30 32 H -3.632616 3.071848 2.578647 0
M  V30 END ATOM
M  V30 BEGIN BOND
M  V30 1 2 1 2
M  V30 2 1 2 3
M  V30 3 1 3 4
M  V30 4 2 3 5
M  V30 5 1 5 6
M  V30 6 2 6 7
M  V30 7 1 7 8
M  V30 8 2 8 9
M  V30 9 1 9 10
M  V30 10 1 9 11
M  V30 11 2 11 12
M  V30 12 1 12 13
M  V30 13 1 5 14
M  V30 14 1 14 15
M  V30 15 2 15 16
M  V30 16 1 16 17
M  V30 17 1 17 18
M  V30 18 2 17 19
M  V30 19 1 19 20
M  V30 20 1 20 21
M  V30 21 2 20 22
M  V30 22 1 22 2
M  V30 23 1 12 6
M  V30 24 1 22 15
M  V30 25 1 4 23
M  V30 26 1 7 24
M  V30 27 1 8 25
M  V30 28 1 10 26
M  V30 29 1 11 27
M  V30 30 1 13 28
M  V30 31 1 16 29
M  V30 32 1 18 30
M  V30 33 1 19 31
M  V30 34 1 21 32
M  V30 END BOND
M  V30 END CTAB
M  END
>  <Dataset>  (333) 
ChEMBL_Kinases

>  <Ligand_Instance>  (333) 
nan

>  <PDB_ID>  (333) 
nan

>  <Standardized_SMILES>  (333) 
O=c1c(O)c(-c2ccc(O)cc2O)oc2cc(O)cc(O)c12

>  <Name>  (333) 
MORIN

>  <Pocket>  (333) 
nan

>  <ATP_Site>  (333) 
nan

>  <Peripheral>  (333) 
nan

>  <Num_H_Atoms_ProtBoundConf>  (333) 
nan

>  <Num_Resolved_Atoms>  (333) 
nan

>  <Num_Not_Resolved_Atoms>  (333) 
nan

$$$$
CHEMBL285819
     RDKit          3D

  0  0  0  0  0  0  0  0  0  0999 V3000
M  V30 BEGIN CTAB
M  V30 COUNTS 32 34 0 0 0
M  V30 BEGIN ATOM
M  V30 1 N 5.196676 -0.573190 2.426517 0
M  V30 2 C 3.870632 -1.090535 2.424594 0
M  V30 3 N 3.566159 -2.244935 3.078201 0
M  V30 4 C 2.314416 -2.740133 3.080672 0
M  V30 5 Cl 2.033551 -4.229453 3.951642 0
M  V30 6 N 1.350541 -2.071756 2.419625 0
M  V30 7 C 1.597388 -0.924610 1.756315 0
M  V30 8 C 2.891398 -0.391808 1.740574 0
M  V30 9 N 2.826058 0.740216 1.009432 0
M  V30 10 C 1.570040 0.949507 0.565908 0
M  V30 11 N 0.839380 -0.094074 1.043882 0
M  V30 12 C -0.549990 -0.301166 0.830249 0 CFG=2
M  V30 13 O -0.847685 -1.529448 0.262828 0
M  V30 14 C -2.123143 -1.458731 -0.246440 0 CFG=2
M  V30 15 C -2.241906 -2.014329 -1.654764 0
M  V30 16 O -3.571076 -1.905358 -2.099972 0
M  V30 17 C -2.515699 0.008704 -0.302370 0 CFG=1
M  V30 18 O -3.197554 0.411917 0.861182 0
M  V30 19 C -1.140264 0.648248 -0.216172 0 CFG=1
M  V30 20 O -1.192135 1.942433 0.300046 0
M  V30 21 H 6.103643 -0.697644 1.891028 0
M  V30 22 H 5.117950 0.113410 3.231466 0
M  V30 23 H 1.171691 1.755314 -0.041751 0
M  V30 24 H -1.202591 -0.189137 1.714609 0
M  V30 25 H -2.858266 -2.038990 0.370394 0
M  V30 26 H -1.636374 -1.409457 -2.364370 0
M  V30 27 H -1.996901 -3.092345 -1.692683 0
M  V30 28 H -4.140580 -1.671821 -1.335021 0
M  V30 29 H -3.060342 0.260616 -1.222942 0
M  V30 30 H -2.824004 1.286150 1.200808 0
M  V30 31 H -0.605443 0.588911 -1.186074 0
M  V30 32 H -1.047684 2.619196 -0.390040 0
M  V30 END ATOM
M  V30 BEGIN BOND
M  V30 1 1 1 2
M  V30 2 2 2 3
M  V30 3 1 3 4
M  V30 4 1 4 5
M  V30 5 2 4 6
M  V30 6 1 6 7
M  V30 7 2 7 8
M  V30 8 1 8 9
M  V30 9 2 9 10
M  V30 10 1 10 11
M  V30 11 1 11 12
M  V30 12 1 12 13
M  V30 13 1 13 14
M  V30 14 1 14 15
M  V30 15 1 15 16
M  V30 16 1 14 17
M  V30 17 1 17 18
M  V30 18 1 17 19
M  V30 19 1 19 20
M  V30 20 1 8 2
M  V30 21 1 19 12
M  V30 22 1 11 7
M  V30 23 1 1 21
M  V30 24 1 1 22
M  V30 25 1 10 23
M  V30 26 1 12 24 CFG=1
M  V30 27 1 14 25 CFG=1
M  V30 28 1 15 26
M  V30 29 1 15 27
M  V30 30 1 16 28
M  V30 31 1 17 29 CFG=3
M  V30 32 1 18 30
M  V30 33 1 19 31 CFG=3
M  V30 34 1 20 32
M  V30 END BOND
M  V30 END CTAB
M  END
>  <Dataset>  (334) 
ChEMBL_Kinases

>  <Ligand_Instance>  (334) 
nan

>  <PDB_ID>  (334) 
nan

>  <Standardized_SMILES>  (334) 
Nc1nc(Cl)nc2c1ncn2[C@@H]1O[C@H](CO)[C@@H](O)[C@H]1O

>  <Name>  (334) 
nan

>  <Pocket>  (334) 
nan

>  <ATP_Site>  (334) 
nan

>  <Peripheral>  (334) 
nan

>  <Num_H_Atoms_ProtBoundConf>  (334) 
nan

>  <Num_Resolved_Atoms>  (334) 
nan

>  <Num_Not_Resolved_Atoms>  (334) 
nan

$$$$
CHEMBL285801
     RDKit          3D

  0  0  0  0  0  0  0  0  0  0999 V3000
M  V30 BEGIN CTAB
M  V30 COUNTS 69 71 0 0 0
M  V30 BEGIN ATOM
M  V30 1 C -0.368133 -2.624650 -6.561199 0
M  V30 2 C -1.682661 -3.016121 -5.971187 0
M  V30 3 C -2.534555 -1.851620 -5.552432 0
M  V30 4 C -1.834068 -1.003880 -4.490943 0
M  V30 5 C -2.733605 0.136770 -4.120970 0
M  V30 6 C -2.126008 1.048301 -3.042624 0
M  V30 7 C -0.838326 1.660599 -3.471967 0
M  V30 8 C -0.154015 2.577420 -2.519196 0
M  V30 9 C 0.166560 1.910676 -1.253706 0
M  V30 10 C 1.388276 1.287498 -1.129823 0
M  V30 11 C 1.704831 0.583661 0.045597 0
M  V30 12 C 0.823339 0.472944 1.139277 0
M  V30 13 C -0.401405 1.078447 1.063889 0
M  V30 14 C -1.495690 1.231797 1.836900 0
M  V30 15 C -2.380243 2.016136 1.061858 0
M  V30 16 N -1.852963 2.327674 -0.125590 0
M  V30 17 C -0.632218 1.743705 -0.116003 0
M  V30 18 C -2.163233 0.931781 3.123479 0
M  V30 19 C -1.078256 0.560580 4.161053 0 CFG=1
M  V30 20 C -1.578903 0.132494 5.461027 0
M  V30 21 O -0.541727 -0.029696 6.381463 0
M  V30 22 N -0.139402 -0.295373 3.465429 0
M  V30 23 C -0.143174 -1.484303 2.607841 0
M  V30 24 O -1.344564 -1.650272 2.874309 0
M  V30 25 C 1.216991 -1.709893 2.015680 0 CFG=2
M  V30 26 C 2.028735 -2.739652 2.643065 0
M  V30 27 C 2.391886 -2.635905 4.071222 0
M  V30 28 C 1.283443 -4.068057 2.432973 0
M  V30 29 N 1.752231 -0.356361 1.909768 0
M  V30 30 C 3.012373 0.183903 2.431523 0
M  V30 31 H -0.479320 -2.121043 -7.543970 0
M  V30 32 H 0.206367 -2.034284 -5.838550 0
M  V30 33 H 0.215264 -3.555474 -6.730157 0
M  V30 34 H -2.224359 -3.711374 -6.641252 0
M  V30 35 H -1.457818 -3.640805 -5.057435 0
M  V30 36 H -3.508213 -2.195835 -5.187656 0
M  V30 37 H -2.646689 -1.188648 -6.444082 0
M  V30 38 H -1.505190 -1.592717 -3.629503 0
M  V30 39 H -0.949958 -0.571045 -5.034021 0
M  V30 40 H -2.948526 0.795061 -4.986957 0
M  V30 41 H -3.714530 -0.247607 -3.775281 0
M  V30 42 H -2.873529 1.844900 -2.883190 0
M  V30 43 H -2.021236 0.458081 -2.107933 0
M  V30 44 H -0.178472 0.807642 -3.787435 0
M  V30 45 H -0.958132 2.239976 -4.442062 0
M  V30 46 H 0.789650 2.911470 -2.998063 0
M  V30 47 H -0.835124 3.437488 -2.317029 0
M  V30 48 H 2.032849 1.403345 -1.998452 0
M  V30 49 H 2.730144 0.194265 -0.123773 0
M  V30 50 H -3.407480 2.442591 1.177584 0
M  V30 51 H -2.333083 2.920712 -0.871469 0
M  V30 52 H -2.712914 1.813363 3.580760 0
M  V30 53 H -2.863276 0.098179 3.125396 0
M  V30 54 H -0.563620 1.571708 4.278481 0
M  V30 55 H -2.254730 0.898842 5.941586 0
M  V30 56 H -2.168534 -0.809390 5.449454 0
M  V30 57 H -0.107280 -0.908020 6.317347 0
M  V30 58 H 0.813195 0.057981 3.667821 0
M  V30 59 H 1.026959 -2.031977 0.968981 0
M  V30 60 H 2.960657 -2.865291 2.045856 0
M  V30 61 H 1.896672 -1.823665 4.643894 0
M  V30 62 H 2.067976 -3.564588 4.598818 0
M  V30 63 H 3.510424 -2.645956 4.245146 0
M  V30 64 H 0.808240 -4.337590 3.398998 0
M  V30 65 H 0.470380 -3.971908 1.688228 0
M  V30 66 H 1.986428 -4.890173 2.186046 0
M  V30 67 H 2.892564 1.163427 2.886159 0
M  V30 68 H 3.311836 -0.487037 3.259963 0
M  V30 69 H 3.776082 0.262065 1.631991 0
M  V30 END ATOM
M  V30 BEGIN BOND
M  V30 1 1 1 2
M  V30 2 1 2 3
M  V30 3 1 3 4
M  V30 4 1 4 5
M  V30 5 1 5 6
M  V30 6 1 6 7
M  V30 7 1 7 8
M  V30 8 1 8 9
M  V30 9 2 9 10
M  V30 10 1 10 11
M  V30 11 2 11 12
M  V30 12 1 12 13
M  V30 13 1 13 14
M  V30 14 2 14 15
M  V30 15 1 15 16
M  V30 16 1 16 17
M  V30 17 1 14 18
M  V30 18 1 18 19
M  V30 19 1 19 20
M  V30 20 1 20 21
M  V30 21 1 19 22
M  V30 22 1 22 23
M  V30 23 2 23 24
M  V30 24 1 23 25
M  V30 25 1 25 26
M  V30 26 1 26 27
M  V30 27 1 26 28
M  V30 28 1 25 29
M  V30 29 1 29 30
M  V30 30 1 17 9
M  V30 31 1 29 12
M  V30 32 2 17 13
M  V30 33 1 1 31
M  V30 34 1 1 32
M  V30 35 1 1 33
M  V30 36 1 2 34
M  V30 37 1 2 35
M  V30 38 1 3 36
M  V30 39 1 3 37
M  V30 40 1 4 38
M  V30 41 1 4 39
M  V30 42 1 5 40
M  V30 43 1 5 41
M  V30 44 1 6 42
M  V30 45 1 6 43
M  V30 46 1 7 44
M  V30 47 1 7 45
M  V30 48 1 8 46
M  V30 49 1 8 47
M  V30 50 1 10 48
M  V30 51 1 11 49
M  V30 52 1 15 50
M  V30 53 1 16 51
M  V30 54 1 18 52
M  V30 55 1 18 53
M  V30 56 1 19 54 CFG=1
M  V30 57 1 20 55
M  V30 58 1 20 56
M  V30 59 1 21 57
M  V30 60 1 22 58
M  V30 61 1 25 59 CFG=3
M  V30 62 1 26 60
M  V30 63 1 27 61
M  V30 64 1 27 62
M  V30 65 1 27 63
M  V30 66 1 28 64
M  V30 67 1 28 65
M  V30 68 1 28 66
M  V30 69 1 30 67
M  V30 70 1 30 68
M  V30 71 1 30 69
M  V30 END BOND
M  V30 END CTAB
M  END
>  <Dataset>  (335) 
ChEMBL_Kinases

>  <Ligand_Instance>  (335) 
nan

>  <PDB_ID>  (335) 
nan

>  <Standardized_SMILES>  (335) 
CCCCCCCCc1ccc2c3c(c[nH]c13)C[C@@H](CO)NC(=O)[C@H](C(C)C)N2C

>  <Name>  (335) 
nan

>  <Pocket>  (335) 
nan

>  <ATP_Site>  (335) 
nan

>  <Peripheral>  (335) 
nan

>  <Num_H_Atoms_ProtBoundConf>  (335) 
nan

>  <Num_Resolved_Atoms>  (335) 
nan

>  <Num_Not_Resolved_Atoms>  (335) 
nan

$$$$
CHEMBL285527
     RDKit          3D

  0  0  0  0  0  0  0  0  0  0999 V3000
M  V30 BEGIN CTAB
M  V30 COUNTS 34 36 0 0 0
M  V30 BEGIN ATOM
M  V30 1 O 1.188728 0.244931 3.771444 0
M  V30 2 S -0.019469 -0.328983 2.853679 0
M  V30 3 O -0.898828 0.646466 3.146318 0
M  V30 4 O -0.515219 -1.526171 4.017236 0
M  V30 5 C 0.905191 -1.117326 1.760601 0
M  V30 6 C 1.486222 -2.353212 2.116194 0
M  V30 7 C 2.418672 -3.019286 1.380048 0
M  V30 8 C 2.811099 -2.446338 0.223981 0
M  V30 9 C 2.337798 -1.267897 -0.243050 0
M  V30 10 C 2.790171 -0.723168 -1.425625 0
M  V30 11 C 2.285302 0.506237 -1.869236 0
M  V30 12 C 1.315561 1.133834 -1.067577 0
M  V30 13 C 0.915624 0.510508 0.110029 0
M  V30 14 N -0.141560 1.318436 0.619350 0
M  V30 15 C -1.384825 0.616837 0.295697 0
M  V30 16 C -1.533232 -0.593654 -0.329788 0
M  V30 17 C -2.754564 -1.152167 -0.604946 0
M  V30 18 C -3.910925 -0.493348 -0.250785 0
M  V30 19 C -3.864078 0.710602 0.371806 0
M  V30 20 C -2.621573 1.209559 0.616225 0
M  V30 21 C 1.397672 -0.664104 0.558003 0
M  V30 22 H -1.300018 -1.995041 3.646769 0
M  V30 23 H 1.205809 -2.871575 3.051666 0
M  V30 24 H 2.838007 -3.966191 1.691049 0
M  V30 25 H 3.554292 -2.965708 -0.366263 0
M  V30 26 H 3.538923 -1.294719 -1.969072 0
M  V30 27 H 2.719641 0.814982 -2.790886 0
M  V30 28 H 1.033371 2.055521 -1.543565 0
M  V30 29 H -0.231195 2.231390 1.121151 0
M  V30 30 H -0.655672 -1.106469 -0.619485 0
M  V30 31 H -2.765612 -2.119904 -1.105704 0
M  V30 32 H -4.837560 -0.981896 -0.493087 0
M  V30 33 H -4.736390 1.255949 0.663752 0
M  V30 34 H -2.572970 2.188419 1.122312 0
M  V30 END ATOM
M  V30 BEGIN BOND
M  V30 1 2 1 2
M  V30 2 2 2 3
M  V30 3 1 2 4
M  V30 4 1 2 5
M  V30 5 2 5 6
M  V30 6 1 6 7
M  V30 7 2 7 8
M  V30 8 1 8 9
M  V30 9 2 9 10
M  V30 10 1 10 11
M  V30 11 2 11 12
M  V30 12 1 12 13
M  V30 13 1 13 14
M  V30 14 1 14 15
M  V30 15 2 15 16
M  V30 16 1 16 17
M  V30 17 2 17 18
M  V30 18 1 18 19
M  V30 19 2 19 20
M  V30 20 2 13 21
M  V30 21 1 21 5
M  V30 22 1 21 9
M  V30 23 1 20 15
M  V30 24 1 4 22
M  V30 25 1 6 23
M  V30 26 1 7 24
M  V30 27 1 8 25
M  V30 28 1 10 26
M  V30 29 1 11 27
M  V30 30 1 12 28
M  V30 31 1 14 29
M  V30 32 1 16 30
M  V30 33 1 17 31
M  V30 34 1 18 32
M  V30 35 1 19 33
M  V30 36 1 20 34
M  V30 END BOND
M  V30 END CTAB
M  END
>  <Dataset>  (336) 
ChEMBL_Kinases

>  <Ligand_Instance>  (336) 
nan

>  <PDB_ID>  (336) 
nan

>  <Standardized_SMILES>  (336) 
O=S(=O)(O)c1cccc2cccc(Nc3ccccc3)c12

>  <Name>  (336) 
nan

>  <Pocket>  (336) 
nan

>  <ATP_Site>  (336) 
nan

>  <Peripheral>  (336) 
nan

>  <Num_H_Atoms_ProtBoundConf>  (336) 
nan

>  <Num_Resolved_Atoms>  (336) 
nan

>  <Num_Not_Resolved_Atoms>  (336) 
nan

$$$$
CHEMBL28509
     RDKit          3D

  0  0  0  0  0  0  0  0  0  0999 V3000
M  V30 BEGIN CTAB
M  V30 COUNTS 93 92 0 0 0
M  V30 BEGIN ATOM
M  V30 1 C 1.944507 -0.973897 6.632492 0
M  V30 2 C 2.835181 -1.227469 5.431086 0
M  V30 3 C 3.804697 -2.352760 5.688263 0
M  V30 4 C 3.191809 -3.657559 5.990708 0
M  V30 5 C 2.257088 -4.310371 5.074248 0
M  V30 6 C 2.592010 -4.706479 3.718533 0
M  V30 7 C 2.928121 -3.550230 2.786891 0
M  V30 8 C 3.240283 -4.046574 1.427837 0
M  V30 9 C 3.692118 -3.249546 0.316962 0
M  V30 10 C 3.024331 -2.130835 -0.296733 0
M  V30 11 C 2.841137 -0.807500 0.257578 0
M  V30 12 C 2.130988 -0.516654 1.525439 0
M  V30 13 C 2.113352 1.022176 1.646207 0
M  V30 14 C 1.421385 1.459320 2.887364 0
M  V30 15 C -0.007533 1.049172 3.019827 0
M  V30 16 C -0.880922 1.584895 1.908328 0
M  V30 17 C -0.866574 3.095701 1.867572 0
M  V30 18 C -1.746906 3.590737 0.754716 0
M  V30 19 O -1.338050 3.131642 -0.474897 0
M  V30 20 C -2.143999 3.596099 -1.509263 0
M  V30 21 C -1.648524 3.054287 -2.834345 0
M  V30 22 C -1.669529 1.561847 -2.772688 0
M  V30 23 O -1.184239 0.936611 -3.897588 0
M  V30 24 P -1.404837 -0.742157 -3.650150 0
M  V30 25 O -0.118838 -1.457366 -3.404025 0
M  V30 26 O -2.426359 -1.025197 -2.311912 0 CHG=-1 VAL=1
M  V30 27 O -2.165846 -1.435044 -4.993179 0
M  V30 28 C -3.522233 -1.096066 -5.036798 0
M  V30 29 C -4.106916 -1.713529 -6.282359 0
M  V30 30 N -5.503281 -1.454405 -6.471313 0 CHG=1 VAL=4
M  V30 31 C -6.205509 -1.052719 -5.269506 0
M  V30 32 C -5.654210 -0.360240 -7.436191 0
M  V30 33 C -6.140368 -2.615385 -7.020915 0
M  V30 34 O -0.343893 3.487938 -3.005761 0
M  V30 35 C -0.134646 4.273110 -4.113686 0
M  V30 36 H 2.046003 0.075448 7.018100 0
M  V30 37 H 2.138227 -1.706830 7.449284 0
M  V30 38 H 0.867166 -1.078107 6.388395 0
M  V30 39 H 2.171930 -1.410204 4.585057 0
M  V30 40 H 3.419545 -0.308731 5.240026 0
M  V30 41 H 4.690849 -2.398835 5.081319 0
M  V30 42 H 4.258841 -2.029279 6.722736 0
M  V30 43 H 4.073180 -4.383140 6.111713 0
M  V30 44 H 2.771318 -3.686772 7.057611 0
M  V30 45 H 1.254383 -3.769226 5.021979 0
M  V30 46 H 1.927260 -5.276156 5.616731 0
M  V30 47 H 1.673930 -5.176197 3.250092 0
M  V30 48 H 3.414891 -5.464806 3.703113 0
M  V30 49 H 3.707080 -2.947627 3.211509 0
M  V30 50 H 1.958341 -2.948024 2.666588 0
M  V30 51 H 2.284258 -4.602749 1.091526 0
M  V30 52 H 3.974493 -4.942754 1.572520 0
M  V30 53 H 4.083536 -3.987306 -0.512287 0
M  V30 54 H 4.744466 -2.849835 0.638356 0
M  V30 55 H 3.526407 -1.946224 -1.345671 0
M  V30 56 H 1.968593 -2.486984 -0.687470 0
M  V30 57 H 3.869957 -0.290427 0.259646 0
M  V30 58 H 2.351404 -0.185401 -0.602376 0
M  V30 59 H 2.834325 -0.827032 2.369513 0
M  V30 60 H 1.154781 -0.966884 1.582720 0
M  V30 61 H 1.740655 1.443704 0.709449 0
M  V30 62 H 3.178989 1.314134 1.749566 0
M  V30 63 H 1.968043 0.972218 3.742508 0
M  V30 64 H 1.586594 2.536005 3.009009 0
M  V30 65 H -0.097471 -0.035717 3.145137 0
M  V30 66 H -0.389007 1.498478 3.960099 0
M  V30 67 H -1.922782 1.274473 2.138693 0
M  V30 68 H -0.629756 1.152636 0.921847 0
M  V30 69 H -1.182329 3.468051 2.860439 0
M  V30 70 H 0.162950 3.489633 1.670408 0
M  V30 71 H -2.761959 3.131914 0.944227 0
M  V30 72 H -1.908777 4.683752 0.789697 0
M  V30 73 H -3.168662 3.267707 -1.313969 0
M  V30 74 H -2.149491 4.699824 -1.563394 0
M  V30 75 H -2.300979 3.439886 -3.657216 0
M  V30 76 H -2.756175 1.270178 -2.701777 0
M  V30 77 H -1.219285 1.208043 -1.837144 0
M  V30 78 H -3.996364 -1.637424 -4.170503 0
M  V30 79 H -3.658936 -0.020314 -4.942793 0
M  V30 80 H -3.560840 -1.391817 -7.197721 0
M  V30 81 H -3.953695 -2.808292 -6.208726 0
M  V30 82 H -5.848164 -0.109930 -4.831677 0
M  V30 83 H -7.254455 -0.837824 -5.609018 0
M  V30 84 H -6.286014 -1.876865 -4.538256 0
M  V30 85 H -4.687395 -0.187329 -7.989145 0
M  V30 86 H -5.865872 0.600859 -6.909109 0
M  V30 87 H -6.418083 -0.575218 -8.200082 0
M  V30 88 H -6.529601 -3.309505 -6.236131 0
M  V30 89 H -5.393825 -3.141453 -7.657160 0
M  V30 90 H -6.935235 -2.282857 -7.715326 0
M  V30 91 H 0.957382 4.537663 -4.106740 0
M  V30 92 H -0.680663 5.221508 -4.047874 0
M  V30 93 H -0.289326 3.737261 -5.070966 0
M  V30 END ATOM
M  V30 BEGIN BOND
M  V30 1 1 1 2
M  V30 2 1 2 3
M  V30 3 1 3 4
M  V30 4 1 4 5
M  V30 5 1 5 6
M  V30 6 1 6 7
M  V30 7 1 7 8
M  V30 8 1 8 9
M  V30 9 1 9 10
M  V30 10 1 10 11
M  V30 11 1 11 12
M  V30 12 1 12 13
M  V30 13 1 13 14
M  V30 14 1 14 15
M  V30 15 1 15 16
M  V30 16 1 16 17
M  V30 17 1 17 18
M  V30 18 1 18 19
M  V30 19 1 19 20
M  V30 20 1 20 21
M  V30 21 1 21 22
M  V30 22 1 22 23
M  V30 23 1 23 24
M  V30 24 2 24 25
M  V30 25 1 24 26
M  V30 26 1 24 27
M  V30 27 1 27 28
M  V30 28 1 28 29
M  V30 29 1 29 30
M  V30 30 1 30 31
M  V30 31 1 30 32
M  V30 32 1 30 33
M  V30 33 1 21 34
M  V30 34 1 34 35
M  V30 35 1 1 36
M  V30 36 1 1 37
M  V30 37 1 1 38
M  V30 38 1 2 39
M  V30 39 1 2 40
M  V30 40 1 3 41
M  V30 41 1 3 42
M  V30 42 1 4 43
M  V30 43 1 4 44
M  V30 44 1 5 45
M  V30 45 1 5 46
M  V30 46 1 6 47
M  V30 47 1 6 48
M  V30 48 1 7 49
M  V30 49 1 7 50
M  V30 50 1 8 51
M  V30 51 1 8 52
M  V30 52 1 9 53
M  V30 53 1 9 54
M  V30 54 1 10 55
M  V30 55 1 10 56
M  V30 56 1 11 57
M  V30 57 1 11 58
M  V30 58 1 12 59
M  V30 59 1 12 60
M  V30 60 1 13 61
M  V30 61 1 13 62
M  V30 62 1 14 63
M  V30 63 1 14 64
M  V30 64 1 15 65
M  V30 65 1 15 66
M  V30 66 1 16 67
M  V30 67 1 16 68
M  V30 68 1 17 69
M  V30 69 1 17 70
M  V30 70 1 18 71
M  V30 71 1 18 72
M  V30 72 1 20 73
M  V30 73 1 20 74
M  V30 74 1 21 75
M  V30 75 1 22 76
M  V30 76 1 22 77
M  V30 77 1 28 78
M  V30 78 1 28 79
M  V30 79 1 29 80
M  V30 80 1 29 81
M  V30 81 1 31 82
M  V30 82 1 31 83
M  V30 83 1 31 84
M  V30 84 1 32 85
M  V30 85 1 32 86
M  V30 86 1 32 87
M  V30 87 1 33 88
M  V30 88 1 33 89
M  V30 89 1 33 90
M  V30 90 1 35 91
M  V30 91 1 35 92
M  V30 92 1 35 93
M  V30 END BOND
M  V30 END CTAB
M  END
>  <Dataset>  (337) 
ChEMBL_Kinases

>  <Ligand_Instance>  (337) 
nan

>  <PDB_ID>  (337) 
nan

>  <Standardized_SMILES>  (337) 
CCCCCCCCCCCCCCCCCCOCC(COP(=O)([O-])OCC[N+](C)(C)C)OC

>  <Name>  (337) 
EDELFOSINE

>  <Pocket>  (337) 
nan

>  <ATP_Site>  (337) 
nan

>  <Peripheral>  (337) 
nan

>  <Num_H_Atoms_ProtBoundConf>  (337) 
nan

>  <Num_Resolved_Atoms>  (337) 
nan

>  <Num_Not_Resolved_Atoms>  (337) 
nan

$$$$
CHEMBL284861
     RDKit          3D

  0  0  0  0  0  0  0  0  0  0999 V3000
M  V30 BEGIN CTAB
M  V30 COUNTS 25 26 0 0 0
M  V30 BEGIN ATOM
M  V30 1 C 0.406052 0.516495 4.958975 0
M  V30 2 N 0.956511 0.038151 3.747483 0
M  V30 3 S 2.713256 0.403591 3.292879 0
M  V30 4 C 2.652735 -0.520512 1.658476 0
M  V30 5 O 3.395982 -0.855508 0.579849 0
M  V30 6 N 1.248074 -1.017513 1.651523 0
M  V30 7 C 0.742426 -1.811532 0.554442 0
M  V30 8 C 0.152991 -0.944195 -0.482389 0
M  V30 9 C 0.833780 -0.426149 -1.562937 0
M  V30 10 C 0.285855 0.381822 -2.528299 0
M  V30 11 C -1.045838 0.717393 -2.435552 0
M  V30 12 C -1.785720 0.238827 -1.387859 0
M  V30 13 C -1.191104 -0.570587 -0.441185 0
M  V30 14 C 0.478263 -0.721618 2.676009 0
M  V30 15 O -0.711649 -1.051107 2.835533 0
M  V30 16 H 1.000666 1.414569 5.262679 0
M  V30 17 H 0.417215 -0.188623 5.809166 0
M  V30 18 H -0.651702 0.883399 4.845361 0
M  V30 19 H 0.022438 -2.570424 0.948150 0
M  V30 20 H 1.561411 -2.397658 0.088303 0
M  V30 21 H 1.868067 -0.656705 -1.682693 0
M  V30 22 H 0.893371 0.757786 -3.363146 0
M  V30 23 H -1.491108 1.352429 -3.187729 0
M  V30 24 H -2.823986 0.521192 -1.346658 0
M  V30 25 H -1.842542 -0.898159 0.339583 0
M  V30 END ATOM
M  V30 BEGIN BOND
M  V30 1 1 1 2
M  V30 2 1 2 3
M  V30 3 1 3 4
M  V30 4 2 4 5
M  V30 5 1 4 6
M  V30 6 1 6 7
M  V30 7 1 7 8
M  V30 8 2 8 9
M  V30 9 1 9 10
M  V30 10 2 10 11
M  V30 11 1 11 12
M  V30 12 2 12 13
M  V30 13 1 6 14
M  V30 14 2 14 15
M  V30 15 1 14 2
M  V30 16 1 13 8
M  V30 17 1 1 16
M  V30 18 1 1 17
M  V30 19 1 1 18
M  V30 20 1 7 19
M  V30 21 1 7 20
M  V30 22 1 9 21
M  V30 23 1 10 22
M  V30 24 1 11 23
M  V30 25 1 12 24
M  V30 26 1 13 25
M  V30 END BOND
M  V30 END CTAB
M  END
>  <Dataset>  (338) 
ChEMBL_Kinases

>  <Ligand_Instance>  (338) 
nan

>  <PDB_ID>  (338) 
nan

>  <Standardized_SMILES>  (338) 
Cn1sc(=O)n(Cc2ccccc2)c1=O

>  <Name>  (338) 
nan

>  <Pocket>  (338) 
nan

>  <ATP_Site>  (338) 
nan

>  <Peripheral>  (338) 
nan

>  <Num_H_Atoms_ProtBoundConf>  (338) 
nan

>  <Num_Resolved_Atoms>  (338) 
nan

>  <Num_Not_Resolved_Atoms>  (338) 
nan

$$$$
CHEMBL3084839
     RDKit          3D

  0  0  0  0  0  0  0  0  0  0999 V3000
M  V30 BEGIN CTAB
M  V30 COUNTS 58 62 0 0 0
M  V30 BEGIN ATOM
M  V30 1 N 0.328646 -3.743262 4.038951 0
M  V30 2 C 1.588864 -3.986546 3.356516 0 CFG=1
M  V30 3 C 1.445263 -4.039911 1.875913 0
M  V30 4 C 1.783636 -2.745505 1.185247 0
M  V30 5 C 1.578697 -1.614285 2.133632 0 CFG=2
M  V30 6 N 1.618026 -0.308376 1.530624 0
M  V30 7 C 0.681967 0.040725 0.517139 0
M  V30 8 N 0.717959 1.256008 -0.047233 0
M  V30 9 C -0.093342 1.714495 -1.001166 0
M  V30 10 N -0.073353 2.991609 -1.611319 0
M  V30 11 C 0.816957 4.058098 -1.340199 0
M  V30 12 C 1.842066 4.048090 -0.423451 0
M  V30 13 C 2.704993 5.088826 -0.164489 0
M  V30 14 C 2.536125 6.252511 -0.883443 0
M  V30 15 C 1.528472 6.335379 -1.820369 0
M  V30 16 C 0.707160 5.251555 -2.021156 0
M  V30 17 C -1.036942 0.788313 -1.393964 0
M  V30 18 N -2.035109 0.856281 -2.324049 0
M  V30 19 C -2.687768 -0.318943 -2.333199 0
M  V30 20 N -2.126888 -1.132918 -1.429642 0
M  V30 21 C -2.542310 -2.472445 -1.145239 0
M  V30 22 C -2.670423 -2.751077 0.357537 0
M  V30 23 C -3.304399 -4.140833 0.314847 0
M  V30 24 C -4.223352 -4.090624 -0.879260 0
M  V30 25 C -3.964940 -2.767924 -1.570843 0
M  V30 26 C -1.126908 -0.474875 -0.854490 0
M  V30 27 N -0.253432 -0.830855 0.104923 0
M  V30 28 C 2.682105 -1.717760 3.181797 0
M  V30 29 C 2.658730 -3.053792 3.860730 0
M  V30 30 H -0.209083 -4.653452 4.024937 0
M  V30 31 H 0.563306 -3.568151 5.040026 0
M  V30 32 H 1.905088 -5.016718 3.691722 0
M  V30 33 H 0.408026 -4.382867 1.655806 0
M  V30 34 H 2.125884 -4.809733 1.449912 0
M  V30 35 H 1.230184 -2.681111 0.235937 0
M  V30 36 H 2.876392 -2.736921 0.901322 0
M  V30 37 H 0.576659 -1.710471 2.599360 0
M  V30 38 H 2.331945 0.391167 1.831548 0
M  V30 39 H -0.796545 3.178250 -2.349270 0
M  V30 40 H 2.018219 3.169487 0.162617 0
M  V30 41 H 3.493171 5.015683 0.572268 0
M  V30 42 H 3.163912 7.130775 -0.754050 0
M  V30 43 H 1.403233 7.250784 -2.379482 0
M  V30 44 H -0.068995 5.381264 -2.774988 0
M  V30 45 H -3.531500 -0.519445 -2.992815 0
M  V30 46 H -1.857426 -3.233802 -1.581121 0
M  V30 47 H -3.374736 -1.985830 0.747595 0
M  V30 48 H -1.705082 -2.759920 0.875123 0
M  V30 49 H -3.830106 -4.395076 1.251189 0
M  V30 50 H -2.443266 -4.840337 0.143220 0
M  V30 51 H -5.294161 -4.209675 -0.608352 0
M  V30 52 H -3.905002 -4.901705 -1.577008 0
M  V30 53 H -4.596962 -1.992335 -1.092794 0
M  V30 54 H -4.077374 -2.838419 -2.663485 0
M  V30 55 H 2.586573 -0.855889 3.860168 0
M  V30 56 H 3.634135 -1.631191 2.585131 0
M  V30 57 H 2.370508 -2.838876 4.932087 0
M  V30 58 H 3.667109 -3.485293 3.886321 0
M  V30 END ATOM
M  V30 BEGIN BOND
M  V30 1 1 1 2
M  V30 2 1 2 3
M  V30 3 1 3 4
M  V30 4 1 4 5
M  V30 5 1 5 6
M  V30 6 1 6 7
M  V30 7 2 7 8
M  V30 8 1 8 9
M  V30 9 1 9 10
M  V30 10 1 10 11
M  V30 11 2 11 12
M  V30 12 1 12 13
M  V30 13 2 13 14
M  V30 14 1 14 15
M  V30 15 2 15 16
M  V30 16 2 9 17
M  V30 17 1 17 18
M  V30 18 2 18 19
M  V30 19 1 19 20
M  V30 20 1 20 21
M  V30 21 1 21 22
M  V30 22 1 22 23
M  V30 23 1 23 24
M  V30 24 1 24 25
M  V30 25 1 20 26
M  V30 26 2 26 27
M  V30 27 1 5 28
M  V30 28 1 28 29
M  V30 29 1 29 2
M  V30 30 1 27 7
M  V30 31 1 16 11
M  V30 32 1 26 17
M  V30 33 1 25 21
M  V30 34 1 1 30
M  V30 35 1 1 31
M  V30 36 1 2 32 CFG=1
M  V30 37 1 3 33
M  V30 38 1 3 34
M  V30 39 1 4 35
M  V30 40 1 4 36
M  V30 41 1 5 37 CFG=1
M  V30 42 1 6 38
M  V30 43 1 10 39
M  V30 44 1 12 40
M  V30 45 1 13 41
M  V30 46 1 14 42
M  V30 47 1 15 43
M  V30 48 1 16 44
M  V30 49 1 19 45
M  V30 50 1 21 46
M  V30 51 1 22 47
M  V30 52 1 22 48
M  V30 53 1 23 49
M  V30 54 1 23 50
M  V30 55 1 24 51
M  V30 56 1 24 52
M  V30 57 1 25 53
M  V30 58 1 25 54
M  V30 59 1 28 55
M  V30 60 1 28 56
M  V30 61 1 29 57
M  V30 62 1 29 58
M  V30 END BOND
M  V30 END CTAB
M  END
>  <Dataset>  (339) 
ChEMBL_Kinases

>  <Ligand_Instance>  (339) 
nan

>  <PDB_ID>  (339) 
nan

>  <Standardized_SMILES>  (339) 
N[C@H]1CC[C@H](Nc2nc(Nc3ccccc3)c3ncn(C4CCCC4)c3n2)CC1

>  <Name>  (339) 
nan

>  <Pocket>  (339) 
nan

>  <ATP_Site>  (339) 
nan

>  <Peripheral>  (339) 
nan

>  <Num_H_Atoms_ProtBoundConf>  (339) 
nan

>  <Num_Resolved_Atoms>  (339) 
nan

>  <Num_Not_Resolved_Atoms>  (339) 
nan

$$$$
CHEMBL277931
     RDKit          3D

  0  0  0  0  0  0  0  0  0  0999 V3000
M  V30 BEGIN CTAB
M  V30 COUNTS 45 48 0 0 0
M  V30 BEGIN ATOM
M  V30 1 O 2.461445 -4.097792 -0.337593 0
M  V30 2 C 1.500519 -3.547753 0.220360 0
M  V30 3 N 1.402916 -2.146228 0.165129 0
M  V30 4 C 2.259544 -1.218956 -0.450029 0
M  V30 5 C 3.409487 -1.484449 -1.149258 0
M  V30 6 C 4.212432 -0.537315 -1.732278 0
M  V30 7 C 3.845251 0.781005 -1.612253 0
M  V30 8 C 2.686190 1.143834 -0.915458 0
M  V30 9 N 2.360832 2.506783 -0.825254 0
M  V30 10 C 1.265280 3.180851 -0.196606 0
M  V30 11 N 1.150032 4.541510 -0.236207 0
M  V30 12 C 0.130233 5.160193 0.349530 0
M  V30 13 C -0.836894 4.462390 1.010300 0
M  V30 14 C -0.753441 3.108097 1.069249 0
M  V30 15 C -1.768042 2.335201 1.765647 0
M  V30 16 C -1.757819 0.963371 1.871535 0
M  V30 17 C -2.710200 0.210759 2.527091 0
M  V30 18 C -3.771395 0.880354 3.134167 0
M  V30 19 N -3.803493 2.227057 3.043994 0
M  V30 20 C -2.847272 2.913416 2.391449 0
M  V30 21 N 0.295095 2.571900 0.458826 0
M  V30 22 C 1.954490 0.119710 -0.370694 0
M  V30 23 C 0.558085 -4.435725 0.886298 0
M  V30 24 C 0.790340 -5.795417 0.853573 0
M  V30 25 C -0.078343 -6.701809 1.474984 0
M  V30 26 C -1.201756 -6.263039 2.144429 0
M  V30 27 C -1.444484 -4.905953 2.183928 0
M  V30 28 C -0.573120 -4.036525 1.563914 0
M  V30 29 H 0.553712 -1.813024 0.670774 0
M  V30 30 H 3.738133 -2.501894 -1.270288 0
M  V30 31 H 5.107550 -0.784018 -2.273174 0
M  V30 32 H 4.483140 1.525202 -2.074747 0
M  V30 33 H 3.027358 3.186587 -1.298119 0
M  V30 34 H 0.139168 6.253308 0.254372 0
M  V30 35 H -1.612443 5.066560 1.444746 0
M  V30 36 H -0.959334 0.394481 1.420092 0
M  V30 37 H -2.669908 -0.857703 2.589476 0
M  V30 38 H -4.523950 0.331694 3.648327 0
M  V30 39 H -3.001886 3.980568 2.400594 0
M  V30 40 H 1.065206 0.401584 0.163742 0
M  V30 41 H 1.631013 -6.266852 0.364491 0
M  V30 42 H 0.093542 -7.757893 1.454912 0
M  V30 43 H -1.863610 -6.973669 2.619533 0
M  V30 44 H -2.320184 -4.498317 2.700305 0
M  V30 45 H -0.794584 -2.995089 1.616337 0
M  V30 END ATOM
M  V30 BEGIN BOND
M  V30 1 2 1 2
M  V30 2 1 2 3
M  V30 3 1 3 4
M  V30 4 2 4 5
M  V30 5 1 5 6
M  V30 6 2 6 7
M  V30 7 1 7 8
M  V30 8 1 8 9
M  V30 9 1 9 10
M  V30 10 2 10 11
M  V30 11 1 11 12
M  V30 12 2 12 13
M  V30 13 1 13 14
M  V30 14 1 14 15
M  V30 15 2 15 16
M  V30 16 1 16 17
M  V30 17 2 17 18
M  V30 18 1 18 19
M  V30 19 2 19 20
M  V30 20 2 14 21
M  V30 21 2 8 22
M  V30 22 1 2 23
M  V30 23 2 23 24
M  V30 24 1 24 25
M  V30 25 2 25 26
M  V30 26 1 26 27
M  V30 27 2 27 28
M  V30 28 1 22 4
M  V30 29 1 28 23
M  V30 30 1 21 10
M  V30 31 1 20 15
M  V30 32 1 3 29
M  V30 33 1 5 30
M  V30 34 1 6 31
M  V30 35 1 7 32
M  V30 36 1 9 33
M  V30 37 1 12 34
M  V30 38 1 13 35
M  V30 39 1 16 36
M  V30 40 1 17 37
M  V30 41 1 18 38
M  V30 42 1 20 39
M  V30 43 1 22 40
M  V30 44 1 24 41
M  V30 45 1 25 42
M  V30 46 1 26 43
M  V30 47 1 27 44
M  V30 48 1 28 45
M  V30 END BOND
M  V30 END CTAB
M  END
>  <Dataset>  (340) 
ChEMBL_Kinases

>  <Ligand_Instance>  (340) 
nan

>  <PDB_ID>  (340) 
nan

>  <Standardized_SMILES>  (340) 
O=C(Nc1cccc(Nc2nccc(-c3cccnc3)n2)c1)c1ccccc1

>  <Name>  (340) 
nan

>  <Pocket>  (340) 
nan

>  <ATP_Site>  (340) 
nan

>  <Peripheral>  (340) 
nan

>  <Num_H_Atoms_ProtBoundConf>  (340) 
nan

>  <Num_Resolved_Atoms>  (340) 
nan

>  <Num_Not_Resolved_Atoms>  (340) 
nan

$$$$
CHEMBL278783
     RDKit          3D

  0  0  0  0  0  0  0  0  0  0999 V3000
M  V30 BEGIN CTAB
M  V30 COUNTS 40 42 0 0 0
M  V30 BEGIN ATOM
M  V30 1 C 1.992021 -2.021904 4.098304 0
M  V30 2 C 1.895689 -2.491877 2.659347 0
M  V30 3 C 1.082605 -3.792313 2.723910 0
M  V30 4 C 3.246509 -2.853078 2.135419 0
M  V30 5 C 1.191098 -1.507686 1.795343 0
M  V30 6 N 1.734694 -0.490846 1.104533 0
M  V30 7 C 0.788740 0.199056 0.426603 0
M  V30 8 C 0.857409 1.358943 -0.447709 0
M  V30 9 C 1.534956 1.148770 -1.649256 0
M  V30 10 C 1.674652 2.180169 -2.574739 0
M  V30 11 C 1.149654 3.432681 -2.330873 0
M  V30 12 C 0.481687 3.642651 -1.147606 0
M  V30 13 C 0.348530 2.617076 -0.238413 0
M  V30 14 C -0.423334 -0.407235 0.696908 0
M  V30 15 C -1.810637 -0.188939 0.309246 0
M  V30 16 C -2.302570 -1.254617 -0.455359 0
M  V30 17 C -3.597083 -1.253427 -0.926272 0
M  V30 18 N -4.425012 -0.212165 -0.655690 0
M  V30 19 C -3.954726 0.799611 0.071386 0
M  V30 20 C -2.669465 0.854963 0.569939 0
M  V30 21 N -0.135999 -1.441332 1.533330 0
M  V30 22 H 0.965721 -1.845086 4.469792 0
M  V30 23 H 2.375039 -2.911593 4.673056 0
M  V30 24 H 2.676349 -1.158283 4.221006 0
M  V30 25 H 0.187999 -3.593287 3.349747 0
M  V30 26 H 1.739867 -4.590087 3.136280 0
M  V30 27 H 0.843990 -4.049088 1.673041 0
M  V30 28 H 4.049572 -2.148479 2.431876 0
M  V30 29 H 3.231999 -2.893037 1.017823 0
M  V30 30 H 3.513781 -3.867465 2.506925 0
M  V30 31 H 2.004411 0.219105 -1.987445 0
M  V30 32 H 2.184349 2.097914 -3.526584 0
M  V30 33 H 1.222556 4.276758 -3.007762 0
M  V30 34 H 0.030394 4.600956 -0.863872 0
M  V30 35 H -0.166383 2.747446 0.701057 0
M  V30 36 H -1.751670 -2.143593 -0.743165 0
M  V30 37 H -4.020263 -2.063977 -1.525262 0
M  V30 38 H -4.535917 1.691935 0.349002 0
M  V30 39 H -2.216608 1.617797 1.157130 0
M  V30 40 H -0.791126 -2.154884 1.974828 0
M  V30 END ATOM
M  V30 BEGIN BOND
M  V30 1 1 1 2
M  V30 2 1 2 3
M  V30 3 1 2 4
M  V30 4 1 2 5
M  V30 5 2 5 6
M  V30 6 1 6 7
M  V30 7 1 7 8
M  V30 8 2 8 9
M  V30 9 1 9 10
M  V30 10 2 10 11
M  V30 11 1 11 12
M  V30 12 2 12 13
M  V30 13 2 7 14
M  V30 14 1 14 15
M  V30 15 2 15 16
M  V30 16 1 16 17
M  V30 17 2 17 18
M  V30 18 1 18 19
M  V30 19 2 19 20
M  V30 20 1 14 21
M  V30 21 1 21 5
M  V30 22 1 13 8
M  V30 23 1 20 15
M  V30 24 1 1 22
M  V30 25 1 1 23
M  V30 26 1 1 24
M  V30 27 1 3 25
M  V30 28 1 3 26
M  V30 29 1 3 27
M  V30 30 1 4 28
M  V30 31 1 4 29
M  V30 32 1 4 30
M  V30 33 1 9 31
M  V30 34 1 10 32
M  V30 35 1 11 33
M  V30 36 1 12 34
M  V30 37 1 13 35
M  V30 38 1 16 36
M  V30 39 1 17 37
M  V30 40 1 19 38
M  V30 41 1 20 39
M  V30 42 1 21 40
M  V30 END BOND
M  V30 END CTAB
M  END
>  <Dataset>  (341) 
ChEMBL_Kinases

>  <Ligand_Instance>  (341) 
nan

>  <PDB_ID>  (341) 
nan

>  <Standardized_SMILES>  (341) 
CC(C)(C)c1nc(-c2ccccc2)c(-c2ccncc2)[nH]1

>  <Name>  (341) 
nan

>  <Pocket>  (341) 
nan

>  <ATP_Site>  (341) 
nan

>  <Peripheral>  (341) 
nan

>  <Num_H_Atoms_ProtBoundConf>  (341) 
nan

>  <Num_Resolved_Atoms>  (341) 
nan

>  <Num_Not_Resolved_Atoms>  (341) 
nan

$$$$
CHEMBL278894
     RDKit          3D

  0  0  0  0  0  0  0  0  0  0999 V3000
M  V30 BEGIN CTAB
M  V30 COUNTS 45 47 0 0 0
M  V30 BEGIN ATOM
M  V30 1 C 3.599171 -2.257372 2.051351 0
M  V30 2 C 3.009981 -2.261961 0.655209 0
M  V30 3 C 2.828449 -3.704073 0.243041 0
M  V30 4 C 4.026227 -1.607518 -0.239902 0
M  V30 5 N 1.747422 -1.559636 0.694438 0
M  V30 6 C 1.751568 -0.218043 1.101688 0
M  V30 7 N 2.875456 0.414902 1.447535 0
M  V30 8 C 2.957232 1.696587 1.847113 0
M  V30 9 C 4.240427 2.321383 2.212206 0
M  V30 10 F 5.318386 1.721406 1.584177 0
M  V30 11 F 4.460369 2.220145 3.570876 0
M  V30 12 F 4.246642 3.650036 1.879886 0
M  V30 13 N 1.838393 2.456790 1.923968 0
M  V30 14 C 0.646046 1.912563 1.595546 0
M  V30 15 C -0.522710 2.655914 1.659711 0
M  V30 16 C -1.749875 2.095734 1.320974 0
M  V30 17 C -1.790973 0.757129 0.909812 0
M  V30 18 C -3.068886 0.144137 0.548076 0
M  V30 19 C -4.253367 0.526214 1.158961 0
M  V30 20 C -5.464180 -0.054731 0.816147 0
M  V30 21 C -5.498631 -1.038990 -0.157197 0
M  V30 22 C -4.336352 -1.456529 -0.799181 0
M  V30 23 N -4.363072 -2.473886 -1.807378 0
M  V30 24 C -3.158317 -0.850294 -0.424746 0
M  V30 25 C -0.597585 0.065413 0.864698 0
M  V30 26 C 0.637444 0.591543 1.194125 0
M  V30 27 H 4.169763 -3.190835 2.187873 0
M  V30 28 H 4.361215 -1.437071 2.157237 0
M  V30 29 H 2.795013 -2.129788 2.795962 0
M  V30 30 H 2.216441 -4.195446 1.032008 0
M  V30 31 H 2.232038 -3.791327 -0.690002 0
M  V30 32 H 3.805077 -4.200527 0.205918 0
M  V30 33 H 3.484860 -1.252304 -1.144329 0
M  V30 34 H 4.664800 -0.864241 0.236434 0
M  V30 35 H 4.730956 -2.393575 -0.630000 0
M  V30 36 H 0.911539 -2.111775 0.411898 0
M  V30 37 H -0.467970 3.689443 1.980334 0
M  V30 38 H -2.663138 2.681199 1.372993 0
M  V30 39 H -4.256163 1.296381 1.927088 0
M  V30 40 H -6.417122 0.204815 1.259496 0
M  V30 41 H -6.406927 -1.535506 -0.474286 0
M  V30 42 H -4.643680 -3.451366 -1.539447 0
M  V30 43 H -4.112782 -2.297283 -2.823916 0
M  V30 44 H -2.248211 -1.186244 -0.936924 0
M  V30 45 H -0.706138 -0.954418 0.540677 0
M  V30 END ATOM
M  V30 BEGIN BOND
M  V30 1 1 1 2
M  V30 2 1 2 3
M  V30 3 1 2 4
M  V30 4 1 2 5
M  V30 5 1 5 6
M  V30 6 2 6 7
M  V30 7 1 7 8
M  V30 8 1 8 9
M  V30 9 1 9 10
M  V30 10 1 9 11
M  V30 11 1 9 12
M  V30 12 2 8 13
M  V30 13 1 13 14
M  V30 14 2 14 15
M  V30 15 1 15 16
M  V30 16 2 16 17
M  V30 17 1 17 18
M  V30 18 2 18 19
M  V30 19 1 19 20
M  V30 20 2 20 21
M  V30 21 1 21 22
M  V30 22 1 22 23
M  V30 23 2 22 24
M  V30 24 1 17 25
M  V30 25 2 25 26
M  V30 26 1 26 6
M  V30 27 1 26 14
M  V30 28 1 24 18
M  V30 29 1 1 27
M  V30 30 1 1 28
M  V30 31 1 1 29
M  V30 32 1 3 30
M  V30 33 1 3 31
M  V30 34 1 3 32
M  V30 35 1 4 33
M  V30 36 1 4 34
M  V30 37 1 4 35
M  V30 38 1 5 36
M  V30 39 1 15 37
M  V30 40 1 16 38
M  V30 41 1 19 39
M  V30 42 1 20 40
M  V30 43 1 21 41
M  V30 44 1 23 42
M  V30 45 1 23 43
M  V30 46 1 24 44
M  V30 47 1 25 45
M  V30 END BOND
M  V30 END CTAB
M  END
>  <Dataset>  (342) 
ChEMBL_Kinases

>  <Ligand_Instance>  (342) 
nan

>  <PDB_ID>  (342) 
nan

>  <Standardized_SMILES>  (342) 
CC(C)(C)Nc1nc(C(F)(F)F)nc2ccc(-c3cccc(N)c3)cc12

>  <Name>  (342) 
nan

>  <Pocket>  (342) 
nan

>  <ATP_Site>  (342) 
nan

>  <Peripheral>  (342) 
nan

>  <Num_H_Atoms_ProtBoundConf>  (342) 
nan

>  <Num_Resolved_Atoms>  (342) 
nan

>  <Num_Not_Resolved_Atoms>  (342) 
nan

$$$$
CHEMBL278980
     RDKit          3D

  0  0  0  0  0  0  0  0  0  0999 V3000
M  V30 BEGIN CTAB
M  V30 COUNTS 9 9 0 0 0
M  V30 BEGIN ATOM
M  V30 1 C 2.371535 -0.971605 2.020801 0
M  V30 2 C 1.474222 -2.039549 2.110343 0
M  V30 3 C 0.351044 -1.586231 1.479752 0
M  V30 4 O 0.515128 -0.360719 1.035958 0
M  V30 5 C 1.732252 0.057313 1.342052 0
M  V30 6 H 3.376993 -0.957051 2.410892 0
M  V30 7 H 1.680274 -2.999614 2.589834 0
M  V30 8 H -0.558487 -2.121517 1.343494 0
M  V30 9 H 2.118919 1.018032 1.095803 0
M  V30 END ATOM
M  V30 BEGIN BOND
M  V30 1 1 1 2
M  V30 2 2 2 3
M  V30 3 1 3 4
M  V30 4 1 4 5
M  V30 5 2 5 1
M  V30 6 1 1 6
M  V30 7 1 2 7
M  V30 8 1 3 8
M  V30 9 1 5 9
M  V30 END BOND
M  V30 END CTAB
M  END
>  <Dataset>  (343) 
ChEMBL_Kinases

>  <Ligand_Instance>  (343) 
nan

>  <PDB_ID>  (343) 
nan

>  <Standardized_SMILES>  (343) 
c1ccoc1

>  <Name>  (343) 
FURAN

>  <Pocket>  (343) 
nan

>  <ATP_Site>  (343) 
nan

>  <Peripheral>  (343) 
nan

>  <Num_H_Atoms_ProtBoundConf>  (343) 
nan

>  <Num_Resolved_Atoms>  (343) 
nan

>  <Num_Not_Resolved_Atoms>  (343) 
nan

$$$$
CHEMBL279229
     RDKit          3D

  0  0  0  0  0  0  0  0  0  0999 V3000
M  V30 BEGIN CTAB
M  V30 COUNTS 57 59 0 0 0
M  V30 BEGIN ATOM
M  V30 1 C 0.279272 -3.799117 3.031569 0
M  V30 2 O 1.117514 -2.869973 2.419512 0
M  V30 3 C 2.103431 -2.149768 3.040760 0
M  V30 4 C 2.345120 -2.306261 4.384978 0
M  V30 5 C 3.323792 -1.591339 5.016986 0
M  V30 6 C 4.057322 -0.701115 4.224471 0
M  V30 7 C 3.801481 -0.557879 2.879079 0
M  V30 8 C 2.826457 -1.266988 2.237306 0
M  V30 9 N 2.704576 -1.024305 0.840095 0
M  V30 10 C 3.379822 0.035750 0.124401 0
M  V30 11 C 2.325998 1.126587 -0.132298 0
M  V30 12 N 1.164659 0.483775 -0.568578 0
M  V30 13 C -0.071887 1.115952 -0.587668 0
M  V30 14 C -0.658199 1.463191 0.757289 0
M  V30 15 C -2.023349 2.099489 0.622746 0
M  V30 16 N -2.962540 1.177467 0.027515 0
M  V30 17 C -3.171041 0.289679 -1.058038 0
M  V30 18 C -3.484578 0.713697 -2.324666 0
M  V30 19 C -3.665272 -0.245792 -3.319861 0
M  V30 20 O -3.952581 0.080413 -4.501334 0
M  V30 21 N -3.530052 -1.544972 -3.014486 0
M  V30 22 C -3.701321 -2.609755 -4.002523 0
M  V30 23 C -3.220322 -2.008128 -1.770487 0
M  V30 24 O -3.095255 -3.227099 -1.493776 0
M  V30 25 N -3.051260 -1.043511 -0.824396 0
M  V30 26 C -2.745497 -1.540060 0.499658 0
M  V30 27 C 1.315587 -0.803418 -1.155217 0
M  V30 28 C 1.903059 -1.798350 -0.127086 0
M  V30 29 H 0.610858 -4.860021 2.945385 0
M  V30 30 H 0.067450 -3.626930 4.094043 0
M  V30 31 H -0.729110 -3.670068 2.525413 0
M  V30 32 H 1.761935 -2.999311 4.952023 0
M  V30 33 H 3.468208 -1.756641 6.071519 0
M  V30 34 H 4.811220 -0.175572 4.810281 0
M  V30 35 H 4.497503 0.179721 2.506009 0
M  V30 36 H 4.264374 0.453596 0.607892 0
M  V30 37 H 3.749117 -0.386311 -0.840862 0
M  V30 38 H 2.235982 1.704391 0.811070 0
M  V30 39 H 2.763958 1.803335 -0.882082 0
M  V30 40 H 0.043891 2.116225 -1.113238 0
M  V30 41 H -0.789213 0.549404 -1.167770 0
M  V30 42 H -0.652996 0.669608 1.494929 0
M  V30 43 H -0.012743 2.280407 1.214772 0
M  V30 44 H -1.973727 3.066317 0.081003 0
M  V30 45 H -2.448649 2.349958 1.635375 0
M  V30 46 H -3.915207 1.024266 0.492707 0
M  V30 47 H -3.584668 1.762889 -2.539555 0
M  V30 48 H -3.106614 -3.521057 -3.742515 0
M  V30 49 H -4.761206 -2.881591 -4.100056 0
M  V30 50 H -3.337097 -2.299992 -5.002661 0
M  V30 51 H -2.047837 -2.401876 0.450676 0
M  V30 52 H -3.729058 -1.974126 0.868009 0
M  V30 53 H -2.481522 -0.797636 1.241192 0
M  V30 54 H 0.377110 -1.204912 -1.523413 0
M  V30 55 H 2.005889 -0.697124 -2.018061 0
M  V30 56 H 2.609901 -2.415883 -0.695707 0
M  V30 57 H 1.049332 -2.302989 0.288759 0
M  V30 END ATOM
M  V30 BEGIN BOND
M  V30 1 1 1 2
M  V30 2 1 2 3
M  V30 3 2 3 4
M  V30 4 1 4 5
M  V30 5 2 5 6
M  V30 6 1 6 7
M  V30 7 2 7 8
M  V30 8 1 8 9
M  V30 9 1 9 10
M  V30 10 1 10 11
M  V30 11 1 11 12
M  V30 12 1 12 13
M  V30 13 1 13 14
M  V30 14 1 14 15
M  V30 15 1 15 16
M  V30 16 1 16 17
M  V30 17 2 17 18
M  V30 18 1 18 19
M  V30 19 2 19 20
M  V30 20 1 19 21
M  V30 21 1 21 22
M  V30 22 1 21 23
M  V30 23 2 23 24
M  V30 24 1 23 25
M  V30 25 1 25 26
M  V30 26 1 12 27
M  V30 27 1 27 28
M  V30 28 1 8 3
M  V30 29 1 28 9
M  V30 30 1 25 17
M  V30 31 1 1 29
M  V30 32 1 1 30
M  V30 33 1 1 31
M  V30 34 1 4 32
M  V30 35 1 5 33
M  V30 36 1 6 34
M  V30 37 1 7 35
M  V30 38 1 10 36
M  V30 39 1 10 37
M  V30 40 1 11 38
M  V30 41 1 11 39
M  V30 42 1 13 40
M  V30 43 1 13 41
M  V30 44 1 14 42
M  V30 45 1 14 43
M  V30 46 1 15 44
M  V30 47 1 15 45
M  V30 48 1 16 46
M  V30 49 1 18 47
M  V30 50 1 22 48
M  V30 51 1 22 49
M  V30 52 1 22 50
M  V30 53 1 26 51
M  V30 54 1 26 52
M  V30 55 1 26 53
M  V30 56 1 27 54
M  V30 57 1 27 55
M  V30 58 1 28 56
M  V30 59 1 28 57
M  V30 END BOND
M  V30 END CTAB
M  END
>  <Dataset>  (344) 
ChEMBL_Kinases

>  <Ligand_Instance>  (344) 
nan

>  <PDB_ID>  (344) 
nan

>  <Standardized_SMILES>  (344) 
COc1ccccc1N1CCN(CCCNc2cc(=O)n(C)c(=O)n2C)CC1

>  <Name>  (344) 
URAPIDIL

>  <Pocket>  (344) 
nan

>  <ATP_Site>  (344) 
nan

>  <Peripheral>  (344) 
nan

>  <Num_H_Atoms_ProtBoundConf>  (344) 
nan

>  <Num_Resolved_Atoms>  (344) 
nan

>  <Num_Not_Resolved_Atoms>  (344) 
nan

$$$$
CHEMBL279377
     RDKit          3D

  0  0  0  0  0  0  0  0  0  0999 V3000
M  V30 BEGIN CTAB
M  V30 COUNTS 46 47 0 0 0
M  V30 BEGIN ATOM
M  V30 1 C 2.136143 -4.163493 4.939217 0
M  V30 2 O 1.955185 -3.276048 3.855961 0
M  V30 3 C 2.975589 -2.877828 3.041200 0
M  V30 4 O 4.116584 -3.304743 3.247862 0
M  V30 5 C 2.742446 -1.965149 1.941172 0
M  V30 6 S 4.124371 -1.429934 0.842942 0
M  V30 7 C 3.117496 -0.399182 -0.177521 0
M  V30 8 C 3.743854 0.331990 -1.301413 0
M  V30 9 C 3.667906 -0.576323 -2.513924 0
M  V30 10 C 2.881355 1.541185 -1.581438 0
M  V30 11 C 5.154135 0.721164 -0.963980 0
M  V30 12 C 1.885965 -0.507097 0.328248 0
M  V30 13 C 1.640097 -1.292994 1.408739 0
M  V30 14 N 0.390389 -1.497820 2.044182 0
M  V30 15 C -0.828410 -0.899658 1.641412 0
M  V30 16 O -0.909034 -0.117836 0.663581 0
M  V30 17 N -2.095651 -1.096731 2.272196 0
M  V30 18 C -3.190570 -0.373037 1.671606 0
M  V30 19 C -3.875176 -1.029485 0.669018 0
M  V30 20 C -4.941580 -0.426645 0.026306 0
M  V30 21 C -5.283655 0.864569 0.440866 0
M  V30 22 C -6.427201 1.539549 -0.232293 0
M  V30 23 C -4.606794 1.537067 1.445388 0
M  V30 24 C -3.535660 0.904408 2.075607 0
M  V30 25 H 1.350494 -3.908527 5.698127 0
M  V30 26 H 1.903964 -5.202117 4.627509 0
M  V30 27 H 3.126245 -4.074662 5.404691 0
M  V30 28 H 4.325579 -1.460972 -2.420305 0
M  V30 29 H 2.642452 -0.939918 -2.623257 0
M  V30 30 H 3.959137 0.017106 -3.390773 0
M  V30 31 H 3.222286 2.008715 -2.545863 0
M  V30 32 H 2.915768 2.261866 -0.745973 0
M  V30 33 H 1.853421 1.176868 -1.801987 0
M  V30 34 H 5.251488 0.898400 0.140020 0
M  V30 35 H 5.409975 1.640633 -1.544425 0
M  V30 36 H 5.829624 -0.073381 -1.338093 0
M  V30 37 H 1.171726 0.085316 -0.217804 0
M  V30 38 H 0.228654 -2.097353 2.860746 0
M  V30 39 H -2.120160 -1.747533 3.113506 0
M  V30 40 H -3.626313 -2.027358 0.334332 0
M  V30 41 H -5.486656 -0.929348 -0.760651 0
M  V30 42 H -6.313290 2.656601 -0.180004 0
M  V30 43 H -7.406287 1.289536 0.177665 0
M  V30 44 H -6.374547 1.281451 -1.329602 0
M  V30 45 H -4.856314 2.521602 1.771926 0
M  V30 46 H -2.956733 1.370677 2.873185 0
M  V30 END ATOM
M  V30 BEGIN BOND
M  V30 1 1 1 2
M  V30 2 1 2 3
M  V30 3 2 3 4
M  V30 4 1 3 5
M  V30 5 1 5 6
M  V30 6 1 6 7
M  V30 7 1 7 8
M  V30 8 1 8 9
M  V30 9 1 8 10
M  V30 10 1 8 11
M  V30 11 2 7 12
M  V30 12 1 12 13
M  V30 13 1 13 14
M  V30 14 1 14 15
M  V30 15 2 15 16
M  V30 16 1 15 17
M  V30 17 1 17 18
M  V30 18 2 18 19
M  V30 19 1 19 20
M  V30 20 2 20 21
M  V30 21 1 21 22
M  V30 22 1 21 23
M  V30 23 2 23 24
M  V30 24 2 13 5
M  V30 25 1 24 18
M  V30 26 1 1 25
M  V30 27 1 1 26
M  V30 28 1 1 27
M  V30 29 1 9 28
M  V30 30 1 9 29
M  V30 31 1 9 30
M  V30 32 1 10 31
M  V30 33 1 10 32
M  V30 34 1 10 33
M  V30 35 1 11 34
M  V30 36 1 11 35
M  V30 37 1 11 36
M  V30 38 1 12 37
M  V30 39 1 14 38
M  V30 40 1 17 39
M  V30 41 1 19 40
M  V30 42 1 20 41
M  V30 43 1 22 42
M  V30 44 1 22 43
M  V30 45 1 22 44
M  V30 46 1 23 45
M  V30 47 1 24 46
M  V30 END BOND
M  V30 END CTAB
M  END
>  <Dataset>  (345) 
ChEMBL_Kinases

>  <Ligand_Instance>  (345) 
nan

>  <PDB_ID>  (345) 
nan

>  <Standardized_SMILES>  (345) 
COC(=O)c1sc(C(C)(C)C)cc1NC(=O)Nc1ccc(C)cc1

>  <Name>  (345) 
nan

>  <Pocket>  (345) 
nan

>  <ATP_Site>  (345) 
nan

>  <Peripheral>  (345) 
nan

>  <Num_H_Atoms_ProtBoundConf>  (345) 
nan

>  <Num_Resolved_Atoms>  (345) 
nan

>  <Num_Not_Resolved_Atoms>  (345) 
nan

$$$$
CHEMBL279574
     RDKit          3D

  0  0  0  0  0  0  0  0  0  0999 V3000
M  V30 BEGIN CTAB
M  V30 COUNTS 37 39 0 0 0
M  V30 BEGIN ATOM
M  V30 1 C 0.219648 -5.793168 1.260458 0
M  V30 2 O 1.007307 -5.230184 2.305394 0
M  V30 3 C 1.456546 -3.919588 2.212967 0
M  V30 4 C 2.226503 -3.330019 3.209562 0
M  V30 5 C 2.657379 -2.014422 3.082094 0
M  V30 6 C 2.348415 -1.241182 1.982039 0
M  V30 7 N 2.776200 0.107197 1.849068 0
M  V30 8 C 2.364081 0.841128 0.703306 0
M  V30 9 N 3.069421 1.422912 -0.313410 0
M  V30 10 C 2.393808 2.069415 -1.302776 0
M  V30 11 C 1.020965 2.150084 -1.302439 0
M  V30 12 C 0.333766 2.840346 -2.356640 0
M  V30 13 N -0.223035 3.390740 -3.230632 0
M  V30 14 C 0.310456 1.562446 -0.276638 0
M  V30 15 C -1.167954 1.599750 -0.221317 0
M  V30 16 C -2.049252 2.638406 -0.408066 0
M  V30 17 C -3.401314 2.394498 -0.305949 0
M  V30 18 C -3.870046 1.115890 -0.018297 0
M  V30 19 C -2.998310 0.064774 0.171592 0
M  V30 20 C -1.647576 0.316578 0.067964 0
M  V30 21 N 1.024569 0.945044 0.662149 0
M  V30 22 C 1.583113 -1.880728 1.027981 0
M  V30 23 C 1.127708 -3.172282 1.092441 0
M  V30 24 H -0.690679 -5.140356 1.174749 0
M  V30 25 H -0.052307 -6.820000 1.546615 0
M  V30 26 H 0.738536 -5.790078 0.294791 0
M  V30 27 H 2.494111 -3.905149 4.099171 0
M  V30 28 H 3.256198 -1.559300 3.861251 0
M  V30 29 H 3.376423 0.504143 2.597747 0
M  V30 30 H 3.017925 2.502467 -2.069992 0
M  V30 31 H -1.521727 3.556171 -0.621650 0
M  V30 32 H -3.995198 3.284621 -0.469935 0
M  V30 33 H -4.947149 1.042789 0.037542 0
M  V30 34 H -3.417564 -0.913507 0.395034 0
M  V30 35 H -1.049275 -0.589472 0.237498 0
M  V30 36 H 1.287537 -1.359470 0.125604 0
M  V30 37 H 0.538418 -3.646918 0.343694 0
M  V30 END ATOM
M  V30 BEGIN BOND
M  V30 1 1 1 2
M  V30 2 1 2 3
M  V30 3 2 3 4
M  V30 4 1 4 5
M  V30 5 2 5 6
M  V30 6 1 6 7
M  V30 7 1 7 8
M  V30 8 2 8 9
M  V30 9 1 9 10
M  V30 10 2 10 11
M  V30 11 1 11 12
M  V30 12 3 12 13
M  V30 13 1 11 14
M  V30 14 1 14 15
M  V30 15 2 15 16
M  V30 16 1 16 17
M  V30 17 2 17 18
M  V30 18 1 18 19
M  V30 19 2 19 20
M  V30 20 2 14 21
M  V30 21 1 6 22
M  V30 22 2 22 23
M  V30 23 1 23 3
M  V30 24 1 21 8
M  V30 25 1 20 15
M  V30 26 1 1 24
M  V30 27 1 1 25
M  V30 28 1 1 26
M  V30 29 1 4 27
M  V30 30 1 5 28
M  V30 31 1 7 29
M  V30 32 1 10 30
M  V30 33 1 16 31
M  V30 34 1 17 32
M  V30 35 1 18 33
M  V30 36 1 19 34
M  V30 37 1 20 35
M  V30 38 1 22 36
M  V30 39 1 23 37
M  V30 END BOND
M  V30 END CTAB
M  END
>  <Dataset>  (346) 
ChEMBL_Kinases

>  <Ligand_Instance>  (346) 
nan

>  <PDB_ID>  (346) 
nan

>  <Standardized_SMILES>  (346) 
COc1ccc(Nc2ncc(C#N)c(-c3ccccc3)n2)cc1

>  <Name>  (346) 
nan

>  <Pocket>  (346) 
nan

>  <ATP_Site>  (346) 
nan

>  <Peripheral>  (346) 
nan

>  <Num_H_Atoms_ProtBoundConf>  (346) 
nan

>  <Num_Resolved_Atoms>  (346) 
nan

>  <Num_Not_Resolved_Atoms>  (346) 
nan

$$$$
CHEMBL284348
     RDKit          3D

  0  0  0  0  0  0  0  0  0  0999 V3000
M  V30 BEGIN CTAB
M  V30 COUNTS 13 13 0 0 0
M  V30 BEGIN ATOM
M  V30 1 N -0.835354 -0.146764 1.134621 0
M  V30 2 C 0.529869 -0.341797 0.739499 0
M  V30 3 C 0.920431 -0.431240 -0.567044 0
M  V30 4 C 2.226291 -0.618311 -0.963691 0
M  V30 5 N 3.133919 -0.713305 0.003010 0
M  V30 6 C 2.800271 -0.632207 1.285506 0
M  V30 7 C 1.494549 -0.443920 1.726027 0
M  V30 8 H -1.426514 -0.669217 1.804994 0
M  V30 9 H -1.212075 0.690405 0.599220 0
M  V30 10 H 0.104045 -0.341654 -1.290730 0
M  V30 11 H 2.495150 -0.683536 -1.993054 0
M  V30 12 H 3.558071 -0.712722 2.049708 0
M  V30 13 H 1.254014 -0.382028 2.772080 0
M  V30 END ATOM
M  V30 BEGIN BOND
M  V30 1 1 1 2
M  V30 2 2 2 3
M  V30 3 1 3 4
M  V30 4 2 4 5
M  V30 5 1 5 6
M  V30 6 2 6 7
M  V30 7 1 7 2
M  V30 8 1 1 8
M  V30 9 1 1 9
M  V30 10 1 3 10
M  V30 11 1 4 11
M  V30 12 1 6 12
M  V30 13 1 7 13
M  V30 END BOND
M  V30 END CTAB
M  END
>  <Dataset>  (347) 
ChEMBL_Kinases

>  <Ligand_Instance>  (347) 
nan

>  <PDB_ID>  (347) 
nan

>  <Standardized_SMILES>  (347) 
Nc1ccncc1

>  <Name>  (347) 
DALFAMPRIDINE

>  <Pocket>  (347) 
nan

>  <ATP_Site>  (347) 
nan

>  <Peripheral>  (347) 
nan

>  <Num_H_Atoms_ProtBoundConf>  (347) 
nan

>  <Num_Resolved_Atoms>  (347) 
nan

>  <Num_Not_Resolved_Atoms>  (347) 
nan

$$$$
CHEMBL280074
     RDKit          3D

  0  0  0  0  0  0  0  0  0  0999 V3000
M  V30 BEGIN CTAB
M  V30 COUNTS 40 42 0 0 0
M  V30 BEGIN ATOM
M  V30 1 C -1.341126 -4.129230 3.713824 0
M  V30 2 N -0.203656 -3.620744 2.952333 0
M  V30 3 C 0.847303 -4.332271 2.503871 0
M  V30 4 N 1.659140 -3.453284 1.848684 0
M  V30 5 C 1.106058 -2.220816 1.899314 0
M  V30 6 C 1.546485 -0.997347 1.382509 0
M  V30 7 N 2.767217 -0.906022 0.664654 0
M  V30 8 C 3.341321 0.268914 0.081355 0
M  V30 9 C 2.511747 0.915707 -0.957486 0
M  V30 10 C 2.779532 0.373706 -2.219409 0
M  V30 11 C 2.112457 0.837578 -3.350849 0
M  V30 12 C 1.177896 1.833819 -3.265265 0
M  V30 13 C 0.921847 2.365124 -1.996385 0
M  V30 14 C 1.571240 1.917113 -0.878420 0
M  V30 15 N 0.732668 0.036545 1.625336 0
M  V30 16 C -0.423155 -0.013498 2.298428 0
M  V30 17 N -1.167559 1.189069 2.464564 0
M  V30 18 C -2.090258 1.329155 1.352223 0
M  V30 19 C -3.048524 0.177114 1.284047 0
M  V30 20 O -3.943662 0.318064 0.200825 0
M  V30 21 N -0.809260 -1.211862 2.778724 0
M  V30 22 C -0.074817 -2.328870 2.599309 0
M  V30 23 H -2.163150 -4.353153 3.019144 0
M  V30 24 H -1.063065 -5.049746 4.281819 0
M  V30 25 H -1.680494 -3.333234 4.407397 0
M  V30 26 H 0.935258 -5.393894 2.682906 0
M  V30 27 H 3.316123 -1.783929 0.540761 0
M  V30 28 H 3.405718 1.021438 0.925044 0
M  V30 29 H 4.374808 0.135285 -0.249431 0
M  V30 30 H 3.486586 -0.419416 -2.474517 0
M  V30 31 H 2.273827 0.461634 -4.349024 0
M  V30 32 H 0.624587 2.240153 -4.099424 0
M  V30 33 H 0.188990 3.168233 -1.823277 0
M  V30 34 H 1.438515 2.269075 0.126458 0
M  V30 35 H -1.136144 1.908500 3.209381 0
M  V30 36 H -2.637374 2.294563 1.376593 0
M  V30 37 H -1.538671 1.344283 0.367805 0
M  V30 38 H -3.623101 0.157987 2.234081 0
M  V30 39 H -2.459295 -0.745471 1.128022 0
M  V30 40 H -3.512532 -0.118720 -0.580094 0
M  V30 END ATOM
M  V30 BEGIN BOND
M  V30 1 1 1 2
M  V30 2 1 2 3
M  V30 3 2 3 4
M  V30 4 1 4 5
M  V30 5 2 5 6
M  V30 6 1 6 7
M  V30 7 1 7 8
M  V30 8 1 8 9
M  V30 9 2 9 10
M  V30 10 1 10 11
M  V30 11 2 11 12
M  V30 12 1 12 13
M  V30 13 2 13 14
M  V30 14 1 6 15
M  V30 15 2 15 16
M  V30 16 1 16 17
M  V30 17 1 17 18
M  V30 18 1 18 19
M  V30 19 1 19 20
M  V30 20 1 16 21
M  V30 21 2 21 22
M  V30 22 1 22 2
M  V30 23 1 22 5
M  V30 24 1 14 9
M  V30 25 1 1 23
M  V30 26 1 1 24
M  V30 27 1 1 25
M  V30 28 1 3 26
M  V30 29 1 7 27
M  V30 30 1 8 28
M  V30 31 1 8 29
M  V30 32 1 10 30
M  V30 33 1 11 31
M  V30 34 1 12 32
M  V30 35 1 13 33
M  V30 36 1 14 34
M  V30 37 1 17 35
M  V30 38 1 18 36
M  V30 39 1 18 37
M  V30 40 1 19 38
M  V30 41 1 19 39
M  V30 42 1 20 40
M  V30 END BOND
M  V30 END CTAB
M  END
>  <Dataset>  (348) 
ChEMBL_Kinases

>  <Ligand_Instance>  (348) 
nan

>  <PDB_ID>  (348) 
nan

>  <Standardized_SMILES>  (348) 
Cn1cnc2c(NCc3ccccc3)nc(NCCO)nc21

>  <Name>  (348) 
OLOMOUCINE

>  <Pocket>  (348) 
nan

>  <ATP_Site>  (348) 
nan

>  <Peripheral>  (348) 
nan

>  <Num_H_Atoms_ProtBoundConf>  (348) 
nan

>  <Num_Resolved_Atoms>  (348) 
nan

>  <Num_Not_Resolved_Atoms>  (348) 
nan

$$$$
CHEMBL280149
     RDKit          3D

  0  0  0  0  0  0  0  0  0  0999 V3000
M  V30 BEGIN CTAB
M  V30 COUNTS 46 49 0 0 0
M  V30 BEGIN ATOM
M  V30 1 C -2.325484 -3.860747 0.838571 0
M  V30 2 N -3.301961 -2.792501 0.925419 0
M  V30 3 C -3.041727 -1.685131 0.049476 0
M  V30 4 C -3.299718 -0.345555 0.742081 0
M  V30 5 C -2.394916 -0.215758 1.966149 0
M  V30 6 O -2.798299 0.921490 2.656800 0
M  V30 7 C -1.014129 -0.031926 1.464539 0
M  V30 8 N -0.465310 1.177785 1.218827 0
M  V30 9 C 0.794473 1.013527 0.774309 0
M  V30 10 C 1.755538 2.047875 0.386125 0
M  V30 11 C 1.984762 2.679777 -0.816774 0
M  V30 12 C 2.967622 3.618972 -0.882806 0
M  V30 13 N 3.727139 3.969912 0.143578 0
M  V30 14 C 3.544195 3.378848 1.352614 0
M  V30 15 C 2.547626 2.403930 1.485180 0
M  V30 16 C 0.987741 -0.357247 0.760717 0
M  V30 17 C 2.203716 -1.054204 0.352867 0
M  V30 18 C 2.587149 -0.839178 -0.968935 0
M  V30 19 C 3.706183 -1.435015 -1.480800 0
M  V30 20 C 4.502602 -2.271679 -0.716682 0
M  V30 21 F 5.634660 -2.907074 -1.146577 0
M  V30 22 C 4.116264 -2.479076 0.590035 0
M  V30 23 C 2.990583 -1.886449 1.123537 0
M  V30 24 O -0.118659 -0.965286 1.181803 0
M  V30 25 C -2.488049 -1.456902 2.791737 0
M  V30 26 C -3.548375 -2.408724 2.295365 0
M  V30 27 H -2.432652 -4.408640 -0.109930 0
M  V30 28 H -2.558515 -4.538105 1.707681 0
M  V30 29 H -1.294963 -3.538836 0.981425 0
M  V30 30 H -2.015218 -1.746374 -0.359456 0
M  V30 31 H -3.736215 -1.720992 -0.812786 0
M  V30 32 H -4.363712 -0.324545 0.983789 0
M  V30 33 H -2.991125 0.431926 0.006501 0
M  V30 34 H -3.125626 1.610354 2.022788 0
M  V30 35 H 1.307173 2.310828 -1.572806 0
M  V30 36 H 3.086753 4.071801 -1.865778 0
M  V30 37 H 4.179763 3.686847 2.170477 0
M  V30 38 H 2.493697 2.001228 2.498821 0
M  V30 39 H 2.026172 -0.194582 -1.657202 0
M  V30 40 H 4.012070 -1.276539 -2.499502 0
M  V30 41 H 4.688844 -3.124132 1.257366 0
M  V30 42 H 2.633115 -2.007236 2.135779 0
M  V30 43 H -1.515525 -2.017423 2.809194 0
M  V30 44 H -2.730022 -1.240662 3.857831 0
M  V30 45 H -3.475396 -3.317711 2.918378 0
M  V30 46 H -4.553945 -1.923340 2.328177 0
M  V30 END ATOM
M  V30 BEGIN BOND
M  V30 1 1 1 2
M  V30 2 1 2 3
M  V30 3 1 3 4
M  V30 4 1 4 5
M  V30 5 1 5 6
M  V30 6 1 5 7
M  V30 7 2 7 8
M  V30 8 1 8 9
M  V30 9 1 9 10
M  V30 10 2 10 11
M  V30 11 1 11 12
M  V30 12 2 12 13
M  V30 13 1 13 14
M  V30 14 2 14 15
M  V30 15 2 9 16
M  V30 16 1 16 17
M  V30 17 2 17 18
M  V30 18 1 18 19
M  V30 19 2 19 20
M  V30 20 1 20 21
M  V30 21 1 20 22
M  V30 22 2 22 23
M  V30 23 1 16 24
M  V30 24 1 5 25
M  V30 25 1 25 26
M  V30 26 1 26 2
M  V30 27 1 24 7
M  V30 28 1 15 10
M  V30 29 1 23 17
M  V30 30 1 1 27
M  V30 31 1 1 28
M  V30 32 1 1 29
M  V30 33 1 3 30
M  V30 34 1 3 31
M  V30 35 1 4 32
M  V30 36 1 4 33
M  V30 37 1 6 34
M  V30 38 1 11 35
M  V30 39 1 12 36
M  V30 40 1 14 37
M  V30 41 1 15 38
M  V30 42 1 18 39
M  V30 43 1 19 40
M  V30 44 1 22 41
M  V30 45 1 23 42
M  V30 46 1 25 43
M  V30 47 1 25 44
M  V30 48 1 26 45
M  V30 49 1 26 46
M  V30 END BOND
M  V30 END CTAB
M  END
>  <Dataset>  (349) 
ChEMBL_Kinases

>  <Ligand_Instance>  (349) 
nan

>  <PDB_ID>  (349) 
nan

>  <Standardized_SMILES>  (349) 
CN1CCC(O)(c2nc(-c3ccncc3)c(-c3ccc(F)cc3)o2)CC1

>  <Name>  (349) 
nan

>  <Pocket>  (349) 
nan

>  <ATP_Site>  (349) 
nan

>  <Peripheral>  (349) 
nan

>  <Num_H_Atoms_ProtBoundConf>  (349) 
nan

>  <Num_Resolved_Atoms>  (349) 
nan

>  <Num_Not_Resolved_Atoms>  (349) 
nan

$$$$
CHEMBL280524
     RDKit          3D

  0  0  0  0  0  0  0  0  0  0999 V3000
M  V30 BEGIN CTAB
M  V30 COUNTS 46 49 0 0 0
M  V30 BEGIN ATOM
M  V30 1 C -3.946527 -3.313264 3.928524 0
M  V30 2 N -4.036683 -2.685103 2.648218 0
M  V30 3 C -3.482647 -3.410775 1.570203 0
M  V30 4 C -2.145831 -2.992607 1.077435 0
M  V30 5 C -1.650277 -1.803961 1.837488 0
M  V30 6 O -1.204262 -2.152145 3.104795 0
M  V30 7 C -0.484097 -1.204055 1.036751 0
M  V30 8 N 0.183289 -0.285330 1.260127 0
M  V30 9 C 1.190729 0.186372 0.514423 0
M  V30 10 C 2.037910 1.350231 0.798017 0
M  V30 11 C 1.960227 2.373581 -0.140484 0
M  V30 12 C 2.731911 3.527721 0.038144 0
M  V30 13 C 3.559053 3.635916 1.141643 0
M  V30 14 F 4.350346 4.697848 1.422466 0
M  V30 15 C 3.636047 2.617157 2.075707 0
M  V30 16 C 2.871440 1.482534 1.891398 0
M  V30 17 C 1.442025 -0.513052 -0.638852 0
M  V30 18 C 2.446506 -0.307621 -1.696407 0
M  V30 19 C 2.123262 -0.050138 -3.019141 0
M  V30 20 C 3.172923 0.120677 -3.902439 0
M  V30 21 N 4.453895 0.041057 -3.499531 0
M  V30 22 C 4.797618 -0.207233 -2.223870 0
M  V30 23 C 3.754254 -0.380937 -1.325305 0
M  V30 24 S 0.121029 -1.878903 -0.545448 0
M  V30 25 C -2.723204 -0.761021 1.868478 0
M  V30 26 C -3.928561 -1.276704 2.612319 0
M  V30 27 H -3.410808 -4.304518 3.852653 0
M  V30 28 H -3.540859 -2.674776 4.737326 0
M  V30 29 H -4.983186 -3.593282 4.245646 0
M  V30 30 H -3.407667 -4.488211 1.903255 0
M  V30 31 H -4.230202 -3.453728 0.725175 0
M  V30 32 H -2.223616 -2.681417 0.012215 0
M  V30 33 H -1.408091 -3.840123 1.088745 0
M  V30 34 H -0.245248 -2.350692 3.090139 0
M  V30 35 H 1.357431 2.417039 -1.042924 0
M  V30 36 H 2.763617 4.390000 -0.613615 0
M  V30 37 H 4.251281 2.613524 2.965831 0
M  V30 38 H 2.866049 0.637224 2.567048 0
M  V30 39 H 1.061625 0.003956 -3.290602 0
M  V30 40 H 2.853096 0.320848 -4.927219 0
M  V30 41 H 5.862352 -0.259885 -1.957962 0
M  V30 42 H 4.057165 -0.580230 -0.302632 0
M  V30 43 H -2.289282 0.167699 2.324197 0
M  V30 44 H -2.976290 -0.485547 0.826534 0
M  V30 45 H -3.856493 -0.904055 3.654557 0
M  V30 46 H -4.842952 -0.790542 2.194878 0
M  V30 END ATOM
M  V30 BEGIN BOND
M  V30 1 1 1 2
M  V30 2 1 2 3
M  V30 3 1 3 4
M  V30 4 1 4 5
M  V30 5 1 5 6
M  V30 6 1 5 7
M  V30 7 2 7 8
M  V30 8 1 8 9
M  V30 9 1 9 10
M  V30 10 2 10 11
M  V30 11 1 11 12
M  V30 12 2 12 13
M  V30 13 1 13 14
M  V30 14 1 13 15
M  V30 15 2 15 16
M  V30 16 2 9 17
M  V30 17 1 17 18
M  V30 18 2 18 19
M  V30 19 1 19 20
M  V30 20 2 20 21
M  V30 21 1 21 22
M  V30 22 2 22 23
M  V30 23 1 17 24
M  V30 24 1 5 25
M  V30 25 1 25 26
M  V30 26 1 26 2
M  V30 27 1 24 7
M  V30 28 1 16 10
M  V30 29 1 23 18
M  V30 30 1 1 27
M  V30 31 1 1 28
M  V30 32 1 1 29
M  V30 33 1 3 30
M  V30 34 1 3 31
M  V30 35 1 4 32
M  V30 36 1 4 33
M  V30 37 1 6 34
M  V30 38 1 11 35
M  V30 39 1 12 36
M  V30 40 1 15 37
M  V30 41 1 16 38
M  V30 42 1 19 39
M  V30 43 1 20 40
M  V30 44 1 22 41
M  V30 45 1 23 42
M  V30 46 1 25 43
M  V30 47 1 25 44
M  V30 48 1 26 45
M  V30 49 1 26 46
M  V30 END BOND
M  V30 END CTAB
M  END
>  <Dataset>  (350) 
ChEMBL_Kinases

>  <Ligand_Instance>  (350) 
nan

>  <PDB_ID>  (350) 
nan

>  <Standardized_SMILES>  (350) 
CN1CCC(O)(c2nc(-c3ccc(F)cc3)c(-c3ccncc3)s2)CC1

>  <Name>  (350) 
nan

>  <Pocket>  (350) 
nan

>  <ATP_Site>  (350) 
nan

>  <Peripheral>  (350) 
nan

>  <Num_H_Atoms_ProtBoundConf>  (350) 
nan

>  <Num_Resolved_Atoms>  (350) 
nan

>  <Num_Not_Resolved_Atoms>  (350) 
nan

$$$$
CHEMBL281145
     RDKit          3D

  0  0  0  0  0  0  0  0  0  0999 V3000
M  V30 BEGIN CTAB
M  V30 COUNTS 47 50 0 0 0
M  V30 BEGIN ATOM
M  V30 1 C -2.965994 -4.360666 4.365979 0
M  V30 2 N -3.135821 -3.173381 3.582390 0
M  V30 3 C -3.122903 -3.349954 2.172544 0
M  V30 4 C -2.521588 -2.173934 1.430113 0
M  V30 5 C -1.119665 -2.047069 1.990320 0
M  V30 6 O -0.540732 -3.298866 2.072225 0
M  V30 7 C -0.311551 -1.079182 1.212202 0
M  V30 8 N -0.135638 0.242789 1.371262 0
M  V30 9 C 0.691378 0.715544 0.421056 0
M  V30 10 C 1.162382 2.101186 0.211197 0
M  V30 11 C 2.542904 2.164334 0.362176 0
M  V30 12 C 3.192468 3.382681 0.202957 0
M  V30 13 C 2.431435 4.488963 -0.101361 0
M  V30 14 F 3.050111 5.679108 -0.258837 0
M  V30 15 C 1.042692 4.428990 -0.253842 0
M  V30 16 C 0.417463 3.213532 -0.092198 0
M  V30 17 C 1.041933 -0.387044 -0.367117 0
M  V30 18 C 1.948942 -0.241884 -1.519995 0
M  V30 19 C 1.477429 0.598781 -2.535473 0
M  V30 20 C 2.260806 0.798539 -3.658813 0
M  V30 21 N 3.473446 0.198104 -3.796822 0
M  V30 22 C 3.923992 -0.614506 -2.810222 0
M  V30 23 C 3.184105 -0.841869 -1.680917 0
M  V30 24 N 0.413593 -1.457313 0.144619 0
M  V30 25 C -1.314583 -1.499821 3.408106 0
M  V30 26 C -2.536694 -1.991934 4.083145 0
M  V30 27 H -3.846896 -5.018939 4.166359 0
M  V30 28 H -2.069327 -4.949237 4.054690 0
M  V30 29 H -2.986383 -4.102383 5.431360 0
M  V30 30 H -2.488225 -4.232236 1.939901 0
M  V30 31 H -4.147301 -3.604799 1.830353 0
M  V30 32 H -3.084228 -1.274743 1.740908 0
M  V30 33 H -2.537325 -2.383311 0.355848 0
M  V30 34 H 0.066563 -3.284183 2.862520 0
M  V30 35 H 3.214308 1.346043 0.599998 0
M  V30 36 H 4.273724 3.490713 0.309682 0
M  V30 37 H 0.423047 5.282253 -0.492662 0
M  V30 38 H -0.638019 3.017161 -0.178780 0
M  V30 39 H 0.516218 1.086820 -2.447325 0
M  V30 40 H 1.831413 1.466354 -4.412295 0
M  V30 41 H 4.877615 -1.090222 -2.911634 0
M  V30 42 H 3.489186 -1.479241 -0.859518 0
M  V30 43 H 0.556438 -2.387880 -0.318526 0
M  V30 44 H -1.397857 -0.382849 3.264032 0
M  V30 45 H -0.372780 -1.609225 4.000257 0
M  V30 46 H -3.338221 -1.196352 4.073055 0
M  V30 47 H -2.301774 -2.133141 5.158680 0
M  V30 END ATOM
M  V30 BEGIN BOND
M  V30 1 1 1 2
M  V30 2 1 2 3
M  V30 3 1 3 4
M  V30 4 1 4 5
M  V30 5 1 5 6
M  V30 6 1 5 7
M  V30 7 2 7 8
M  V30 8 1 8 9
M  V30 9 1 9 10
M  V30 10 2 10 11
M  V30 11 1 11 12
M  V30 12 2 12 13
M  V30 13 1 13 14
M  V30 14 1 13 15
M  V30 15 2 15 16
M  V30 16 2 9 17
M  V30 17 1 17 18
M  V30 18 2 18 19
M  V30 19 1 19 20
M  V30 20 2 20 21
M  V30 21 1 21 22
M  V30 22 2 22 23
M  V30 23 1 17 24
M  V30 24 1 5 25
M  V30 25 1 25 26
M  V30 26 1 26 2
M  V30 27 1 24 7
M  V30 28 1 16 10
M  V30 29 1 23 18
M  V30 30 1 1 27
M  V30 31 1 1 28
M  V30 32 1 1 29
M  V30 33 1 3 30
M  V30 34 1 3 31
M  V30 35 1 4 32
M  V30 36 1 4 33
M  V30 37 1 6 34
M  V30 38 1 11 35
M  V30 39 1 12 36
M  V30 40 1 15 37
M  V30 41 1 16 38
M  V30 42 1 19 39
M  V30 43 1 20 40
M  V30 44 1 22 41
M  V30 45 1 23 42
M  V30 46 1 24 43
M  V30 47 1 25 44
M  V30 48 1 25 45
M  V30 49 1 26 46
M  V30 50 1 26 47
M  V30 END BOND
M  V30 END CTAB
M  END
>  <Dataset>  (351) 
ChEMBL_Kinases

>  <Ligand_Instance>  (351) 
nan

>  <PDB_ID>  (351) 
nan

>  <Standardized_SMILES>  (351) 
CN1CCC(O)(c2nc(-c3ccc(F)cc3)c(-c3ccncc3)[nH]2)CC1

>  <Name>  (351) 
nan

>  <Pocket>  (351) 
nan

>  <ATP_Site>  (351) 
nan

>  <Peripheral>  (351) 
nan

>  <Num_H_Atoms_ProtBoundConf>  (351) 
nan

>  <Num_Resolved_Atoms>  (351) 
nan

>  <Num_Not_Resolved_Atoms>  (351) 
nan

$$$$
CHEMBL281660
     RDKit          3D

  0  0  0  0  0  0  0  0  0  0999 V3000
M  V30 BEGIN CTAB
M  V30 COUNTS 61 61 0 0 0
M  V30 BEGIN ATOM
M  V30 1 C 0.451877 -2.296796 3.311706 0
M  V30 2 C 0.418418 -0.807344 3.032417 0
M  V30 3 C 1.798171 -0.242180 2.830088 0
M  V30 4 C 2.433181 -0.957729 1.649168 0
M  V30 5 C 3.813064 -0.502416 1.392419 0
M  V30 6 C 4.103780 0.869393 0.993685 0
M  V30 7 C 3.748291 1.409610 -0.319445 0
M  V30 8 C 2.427018 1.486644 -0.911716 0
M  V30 9 C 1.330690 2.232782 -0.208370 0
M  V30 10 C 0.177356 2.267239 -1.221880 0
M  V30 11 C -1.042725 2.931398 -0.732978 0
M  V30 12 C -1.798589 2.339865 0.382898 0
M  V30 13 C -2.461159 1.034521 0.182759 0
M  V30 14 C -1.667677 -0.132719 -0.170751 0
M  V30 15 O -0.702552 -0.872722 -0.447746 0
M  V30 16 O -2.487631 -1.196930 -0.316210 0
M  V30 17 C -2.331584 -2.520536 -0.631831 0 CFG=2
M  V30 18 C -3.080232 -2.896846 -1.903926 0
M  V30 19 C -4.365171 -3.357914 -1.329810 0
M  V30 20 O -5.582977 -3.277525 -1.630933 0
M  V30 21 O -3.993990 -4.023067 -0.191263 0
M  V30 22 C -2.850406 -3.475108 0.424756 0 CFG=1
M  V30 23 C -1.873410 -4.552911 0.755723 0
M  V30 24 C -1.505975 -5.412666 -0.418445 0
M  V30 25 O -2.575458 -6.064958 -0.987112 0
M  V30 26 H -0.549421 -2.574304 3.687633 0
M  V30 27 H 0.646726 -2.802246 2.357259 0
M  V30 28 H 1.175249 -2.520225 4.095448 0
M  V30 29 H -0.063007 -0.364652 3.959868 0
M  V30 30 H -0.286014 -0.593927 2.230716 0
M  V30 31 H 1.699049 0.846412 2.694326 0
M  V30 32 H 2.367043 -0.498601 3.755117 0
M  V30 33 H 2.490237 -2.028743 1.971934 0
M  V30 34 H 1.727537 -0.930147 0.816780 0
M  V30 35 H 4.223084 -1.202713 0.590198 0
M  V30 36 H 4.475470 -0.786463 2.274226 0
M  V30 37 H 5.245032 1.029406 1.078190 0
M  V30 38 H 3.752200 1.635398 1.756810 0
M  V30 39 H 4.432226 0.901834 -1.116979 0
M  V30 40 H 4.221668 2.471066 -0.329877 0
M  V30 41 H 2.066762 0.429662 -1.100484 0
M  V30 42 H 2.438750 1.928990 -1.960624 0
M  V30 43 H 0.918988 1.722868 0.666444 0
M  V30 44 H 1.636740 3.240351 0.078651 0
M  V30 45 H 0.111728 1.299056 -1.686478 0
M  V30 46 H 0.596649 2.958390 -2.033626 0
M  V30 47 H -0.715155 3.963892 -0.380431 0
M  V30 48 H -1.669596 3.181929 -1.625002 0
M  V30 49 H -1.109913 2.336002 1.281110 0
M  V30 50 H -2.593670 3.093317 0.672671 0
M  V30 51 H -3.045042 0.841267 1.141435 0
M  V30 52 H -3.317875 1.187432 -0.555258 0
M  V30 53 H -1.282625 -2.788826 -0.809125 0
M  V30 54 H -2.528607 -3.644665 -2.471171 0
M  V30 55 H -3.245218 -2.007657 -2.559123 0
M  V30 56 H -3.167951 -2.958517 1.339112 0
M  V30 57 H -0.947778 -4.104561 1.136315 0
M  V30 58 H -2.265911 -5.203789 1.553397 0
M  V30 59 H -0.807073 -6.220715 -0.049928 0
M  V30 60 H -0.929513 -4.895716 -1.203364 0
M  V30 61 H -3.110892 -6.582506 -0.353943 0
M  V30 END ATOM
M  V30 BEGIN BOND
M  V30 1 1 1 2
M  V30 2 1 2 3
M  V30 3 1 3 4
M  V30 4 1 4 5
M  V30 5 1 5 6
M  V30 6 1 6 7
M  V30 7 1 7 8
M  V30 8 1 8 9
M  V30 9 1 9 10
M  V30 10 1 10 11
M  V30 11 1 11 12
M  V30 12 1 12 13
M  V30 13 1 13 14
M  V30 14 2 14 15
M  V30 15 1 14 16
M  V30 16 1 16 17
M  V30 17 1 17 18
M  V30 18 1 18 19
M  V30 19 2 19 20
M  V30 20 1 19 21
M  V30 21 1 21 22
M  V30 22 1 22 23
M  V30 23 1 23 24
M  V30 24 1 24 25
M  V30 25 1 22 17
M  V30 26 1 1 26
M  V30 27 1 1 27
M  V30 28 1 1 28
M  V30 29 1 2 29
M  V30 30 1 2 30
M  V30 31 1 3 31
M  V30 32 1 3 32
M  V30 33 1 4 33
M  V30 34 1 4 34
M  V30 35 1 5 35
M  V30 36 1 5 36
M  V30 37 1 6 37
M  V30 38 1 6 38
M  V30 39 1 7 39
M  V30 40 1 7 40
M  V30 41 1 8 41
M  V30 42 1 8 42
M  V30 43 1 9 43
M  V30 44 1 9 44
M  V30 45 1 10 45
M  V30 46 1 10 46
M  V30 47 1 11 47
M  V30 48 1 11 48
M  V30 49 1 12 49
M  V30 50 1 12 50
M  V30 51 1 13 51
M  V30 52 1 13 52
M  V30 53 1 17 53 CFG=3
M  V30 54 1 18 54
M  V30 55 1 18 55
M  V30 56 1 22 56 CFG=1
M  V30 57 1 23 57
M  V30 58 1 23 58
M  V30 59 1 24 59
M  V30 60 1 24 60
M  V30 61 1 25 61
M  V30 END BOND
M  V30 END CTAB
M  END
>  <Dataset>  (352) 
ChEMBL_Kinases

>  <Ligand_Instance>  (352) 
nan

>  <PDB_ID>  (352) 
nan

>  <Standardized_SMILES>  (352) 
CCCCCCCCCCCCCC(=O)O[C@@H]1CC(=O)O[C@H]1CCO

>  <Name>  (352) 
nan

>  <Pocket>  (352) 
nan

>  <ATP_Site>  (352) 
nan

>  <Peripheral>  (352) 
nan

>  <Num_H_Atoms_ProtBoundConf>  (352) 
nan

>  <Num_Resolved_Atoms>  (352) 
nan

>  <Num_Not_Resolved_Atoms>  (352) 
nan

$$$$
CHEMBL282342
     RDKit          3D

  0  0  0  0  0  0  0  0  0  0999 V3000
M  V30 BEGIN CTAB
M  V30 COUNTS 50 52 0 0 0
M  V30 BEGIN ATOM
M  V30 1 C 0.557841 -6.486173 -2.437996 0
M  V30 2 N 0.191072 -5.880485 -1.156939 0
M  V30 3 C -0.406525 -6.709148 -0.154324 0
M  V30 4 C 0.435745 -4.495677 -0.942214 0
M  V30 5 C 0.113219 -3.865308 0.242528 0
M  V30 6 C 0.376126 -2.518558 0.389365 0
M  V30 7 C 0.953522 -1.734927 -0.588334 0
M  V30 8 C 1.192703 -0.315892 -0.342263 0
M  V30 9 C 1.773228 0.491179 -1.297908 0
M  V30 10 C 1.969587 1.821595 -0.986551 0
M  V30 11 N 2.531575 2.656445 -1.879330 0
M  V30 12 C 2.749391 3.971028 -1.630615 0
M  V30 13 C 2.360329 4.440328 -0.384056 0
M  V30 14 C 1.784931 3.576857 0.524832 0
M  V30 15 C 1.567011 2.241257 0.263780 0
M  V30 16 C 0.985325 1.450259 1.231656 0
M  V30 17 N 0.585765 1.915366 2.514715 0
M  V30 18 C -0.010485 0.970810 3.412789 0
M  V30 19 C -1.303042 0.367965 2.907222 0
M  V30 20 C -2.349740 1.458565 2.669814 0
M  V30 21 C -2.667378 2.219678 3.917947 0
M  V30 22 N -3.663278 3.225043 3.592358 0
M  V30 23 N 0.825933 0.169232 0.858242 0
M  V30 24 C 1.266593 -2.385687 -1.761497 0
M  V30 25 C 1.014412 -3.731641 -1.934696 0
M  V30 26 H 0.123756 -5.816829 -3.210769 0
M  V30 27 H 1.648686 -6.564938 -2.450678 0
M  V30 28 H 0.120555 -7.492593 -2.529859 0
M  V30 29 H -0.122942 -7.785170 -0.346889 0
M  V30 30 H -0.056044 -6.500350 0.879344 0
M  V30 31 H -1.519367 -6.723168 -0.189294 0
M  V30 32 H -0.338125 -4.483140 1.003407 0
M  V30 33 H 0.080833 -2.145934 1.355334 0
M  V30 34 H 2.076418 0.129982 -2.266848 0
M  V30 35 H 3.202974 4.618976 -2.366735 0
M  V30 36 H 2.536893 5.480391 -0.197850 0
M  V30 37 H 1.520748 4.035243 1.455068 0
M  V30 38 H 0.697026 2.890146 2.842521 0
M  V30 39 H -0.227413 1.449879 4.382238 0
M  V30 40 H 0.662160 0.112985 3.642985 0
M  V30 41 H -1.208657 -0.245225 2.013708 0
M  V30 42 H -1.701361 -0.261944 3.724852 0
M  V30 43 H -3.246391 0.945033 2.281515 0
M  V30 44 H -1.894111 2.141018 1.930935 0
M  V30 45 H -1.765928 2.782746 4.241954 0
M  V30 46 H -3.099239 1.583405 4.704469 0
M  V30 47 H -3.889828 3.267501 2.589782 0
M  V30 48 H -4.545822 3.097666 4.116043 0
M  V30 49 H 1.721241 -1.834902 -2.570967 0
M  V30 50 H 1.291602 -4.174326 -2.893528 0
M  V30 END ATOM
M  V30 BEGIN BOND
M  V30 1 1 1 2
M  V30 2 1 2 3
M  V30 3 1 2 4
M  V30 4 2 4 5
M  V30 5 1 5 6
M  V30 6 2 6 7
M  V30 7 1 7 8
M  V30 8 2 8 9
M  V30 9 1 9 10
M  V30 10 2 10 11
M  V30 11 1 11 12
M  V30 12 2 12 13
M  V30 13 1 13 14
M  V30 14 2 14 15
M  V30 15 1 15 16
M  V30 16 1 16 17
M  V30 17 1 17 18
M  V30 18 1 18 19
M  V30 19 1 19 20
M  V30 20 1 20 21
M  V30 21 1 21 22
M  V30 22 2 16 23
M  V30 23 1 7 24
M  V30 24 2 24 25
M  V30 25 1 25 4
M  V30 26 1 23 8
M  V30 27 1 15 10
M  V30 28 1 1 26
M  V30 29 1 1 27
M  V30 30 1 1 28
M  V30 31 1 3 29
M  V30 32 1 3 30
M  V30 33 1 3 31
M  V30 34 1 5 32
M  V30 35 1 6 33
M  V30 36 1 9 34
M  V30 37 1 12 35
M  V30 38 1 13 36
M  V30 39 1 14 37
M  V30 40 1 17 38
M  V30 41 1 18 39
M  V30 42 1 18 40
M  V30 43 1 19 41
M  V30 44 1 19 42
M  V30 45 1 20 43
M  V30 46 1 20 44
M  V30 47 1 21 45
M  V30 48 1 21 46
M  V30 49 1 22 47
M  V30 50 1 22 48
M  V30 51 1 24 49
M  V30 52 1 25 50
M  V30 END BOND
M  V30 END CTAB
M  END
>  <Dataset>  (353) 
ChEMBL_Kinases

>  <Ligand_Instance>  (353) 
nan

>  <PDB_ID>  (353) 
nan

>  <Standardized_SMILES>  (353) 
CN(C)c1ccc(-c2cc3ncccc3c(NCCCCN)n2)cc1

>  <Name>  (353) 
nan

>  <Pocket>  (353) 
nan

>  <ATP_Site>  (353) 
nan

>  <Peripheral>  (353) 
nan

>  <Num_H_Atoms_ProtBoundConf>  (353) 
nan

>  <Num_Resolved_Atoms>  (353) 
nan

>  <Num_Not_Resolved_Atoms>  (353) 
nan

$$$$
CHEMBL284015
     RDKit          3D

  0  0  0  0  0  0  0  0  0  0999 V3000
M  V30 BEGIN CTAB
M  V30 COUNTS 48 51 0 0 0
M  V30 BEGIN ATOM
M  V30 1 C -0.537192 -5.869582 1.856535 0
M  V30 2 N -0.538219 -4.673601 1.031058 0
M  V30 3 C 0.397195 -4.857770 -0.064851 0
M  V30 4 C 0.696193 -3.507623 -0.731484 0
M  V30 5 C 1.441328 -2.602885 0.193053 0
M  V30 6 O 2.801245 -2.527278 -0.101512 0
M  V30 7 C 0.856093 -1.240842 0.206163 0
M  V30 8 C 1.468513 -0.313888 1.052857 0
M  V30 9 C 0.768302 0.888178 0.910515 0
M  V30 10 C 1.063855 2.133329 1.605303 0
M  V30 11 C 0.879811 2.166966 2.994039 0
M  V30 12 C 1.164269 3.352879 3.681433 0
M  V30 13 N 1.609693 4.455849 3.031604 0
M  V30 14 C 1.794491 4.448586 1.700021 0
M  V30 15 C 1.519135 3.290210 1.012492 0
M  V30 16 C -0.241727 0.682248 -0.002883 0
M  V30 17 C -1.257547 1.595356 -0.508736 0
M  V30 18 C -2.527443 1.168581 -0.104889 0
M  V30 19 C -3.681409 1.850213 -0.445989 0
M  V30 20 C -3.531151 3.000102 -1.222200 0
M  V30 21 F -4.644465 3.712254 -1.587672 0
M  V30 22 C -2.277129 3.446692 -1.637745 0
M  V30 23 C -1.158972 2.731348 -1.270571 0
M  V30 24 N -0.154991 -0.599050 -0.398719 0
M  V30 25 C 1.281973 -3.188866 1.602358 0
M  V30 26 C -0.167748 -3.540616 1.834480 0
M  V30 27 H 0.389028 -5.940279 2.488348 0
M  V30 28 H -0.495408 -6.745699 1.175084 0
M  V30 29 H -1.432757 -5.896594 2.505101 0
M  V30 30 H 1.320492 -5.373503 0.231653 0
M  V30 31 H -0.095900 -5.479495 -0.840039 0
M  V30 32 H -0.289715 -3.104499 -1.000150 0
M  V30 33 H 1.321471 -3.732710 -1.634189 0
M  V30 34 H 3.331259 -2.968225 0.607051 0
M  V30 35 H 2.327385 -0.388773 1.739159 0
M  V30 36 H 0.524885 1.306607 3.552245 0
M  V30 37 H 1.011327 3.347748 4.760670 0
M  V30 38 H 2.149249 5.346800 1.222097 0
M  V30 39 H 1.670281 3.291220 -0.039372 0
M  V30 40 H -2.764812 0.284885 0.503978 0
M  V30 41 H -4.677543 1.568057 -0.162669 0
M  V30 42 H -2.133662 4.331246 -2.237098 0
M  V30 43 H -0.157742 2.967746 -1.526438 0
M  V30 44 H -0.738563 -1.126566 -1.077852 0
M  V30 45 H 1.540593 -2.394104 2.335169 0
M  V30 46 H 1.970494 -4.027059 1.760970 0
M  V30 47 H -0.287589 -3.802586 2.896631 0
M  V30 48 H -0.762852 -2.632221 1.599716 0
M  V30 END ATOM
M  V30 BEGIN BOND
M  V30 1 1 1 2
M  V30 2 1 2 3
M  V30 3 1 3 4
M  V30 4 1 4 5
M  V30 5 1 5 6
M  V30 6 1 5 7
M  V30 7 2 7 8
M  V30 8 1 8 9
M  V30 9 1 9 10
M  V30 10 2 10 11
M  V30 11 1 11 12
M  V30 12 2 12 13
M  V30 13 1 13 14
M  V30 14 2 14 15
M  V30 15 2 9 16
M  V30 16 1 16 17
M  V30 17 2 17 18
M  V30 18 1 18 19
M  V30 19 2 19 20
M  V30 20 1 20 21
M  V30 21 1 20 22
M  V30 22 2 22 23
M  V30 23 1 16 24
M  V30 24 1 5 25
M  V30 25 1 25 26
M  V30 26 1 26 2
M  V30 27 1 24 7
M  V30 28 1 15 10
M  V30 29 1 23 17
M  V30 30 1 1 27
M  V30 31 1 1 28
M  V30 32 1 1 29
M  V30 33 1 3 30
M  V30 34 1 3 31
M  V30 35 1 4 32
M  V30 36 1 4 33
M  V30 37 1 6 34
M  V30 38 1 8 35
M  V30 39 1 11 36
M  V30 40 1 12 37
M  V30 41 1 14 38
M  V30 42 1 15 39
M  V30 43 1 18 40
M  V30 44 1 19 41
M  V30 45 1 22 42
M  V30 46 1 23 43
M  V30 47 1 24 44
M  V30 48 1 25 45
M  V30 49 1 25 46
M  V30 50 1 26 47
M  V30 51 1 26 48
M  V30 END BOND
M  V30 END CTAB
M  END
>  <Dataset>  (354) 
ChEMBL_Kinases

>  <Ligand_Instance>  (354) 
nan

>  <PDB_ID>  (354) 
nan

>  <Standardized_SMILES>  (354) 
CN1CCC(O)(c2cc(-c3ccncc3)c(-c3ccc(F)cc3)[nH]2)CC1

>  <Name>  (354) 
nan

>  <Pocket>  (354) 
nan

>  <ATP_Site>  (354) 
nan

>  <Peripheral>  (354) 
nan

>  <Num_H_Atoms_ProtBoundConf>  (354) 
nan

>  <Num_Resolved_Atoms>  (354) 
nan

>  <Num_Not_Resolved_Atoms>  (354) 
nan

$$$$
CHEMBL284237
     RDKit          3D

  0  0  0  0  0  0  0  0  0  0999 V3000
M  V30 BEGIN CTAB
M  V30 COUNTS 32 35 0 0 0
M  V30 BEGIN ATOM
M  V30 1 C -2.418045 0.408498 -1.156595 0
M  V30 2 C -1.136463 0.112973 -0.420814 0 CFG=2
M  V30 3 N -0.389100 1.324752 -0.131972 0
M  V30 4 C 0.475268 0.871748 0.943572 0 CFG=2
M  V30 5 C 1.572753 -0.046350 0.423271 0
M  V30 6 C 1.116699 -0.789015 -0.787138 0
M  V30 7 C 2.089533 -1.527449 -1.429867 0
M  V30 8 C 1.741851 -2.240712 -2.556913 0
M  V30 9 C 0.446975 -2.197016 -3.005424 0
M  V30 10 C -0.508270 -1.450685 -2.344813 0
M  V30 11 C -0.195988 -0.724262 -1.213413 0
M  V30 12 C -0.451398 -0.012051 1.699477 0
M  V30 13 C -0.342569 -0.322651 3.037008 0
M  V30 14 C -1.308481 -1.173529 3.582450 0
M  V30 15 C -2.332683 -1.677364 2.789626 0
M  V30 16 C -2.379055 -1.325972 1.465797 0
M  V30 17 C -1.458922 -0.500614 0.895247 0
M  V30 18 H -3.083802 0.901820 -0.399476 0
M  V30 19 H -2.916673 -0.505214 -1.472897 0
M  V30 20 H -2.289910 1.163094 -1.959250 0
M  V30 21 H -0.998568 2.061525 0.276014 0
M  V30 22 H 0.867841 1.694066 1.541246 0
M  V30 23 H 1.824750 -0.828739 1.197435 0
M  V30 24 H 2.525709 0.496027 0.237758 0
M  V30 25 H 3.118056 -1.580924 -1.099668 0
M  V30 26 H 2.401832 -2.856552 -3.152440 0
M  V30 27 H 0.084014 -2.731278 -3.889939 0
M  V30 28 H -1.536389 -1.399683 -2.678315 0
M  V30 29 H 0.437748 0.047678 3.687573 0
M  V30 30 H -1.211038 -1.412722 4.646125 0
M  V30 31 H -3.071957 -2.331948 3.218584 0
M  V30 32 H -3.161138 -1.688532 0.784090 0
M  V30 END ATOM
M  V30 BEGIN BOND
M  V30 1 1 2 1 CFG=3
M  V30 2 1 2 3
M  V30 3 1 3 4
M  V30 4 1 4 5
M  V30 5 1 5 6
M  V30 6 2 6 7
M  V30 7 1 7 8
M  V30 8 2 8 9
M  V30 9 1 9 10
M  V30 10 2 10 11
M  V30 11 1 4 12
M  V30 12 2 12 13
M  V30 13 1 13 14
M  V30 14 2 14 15
M  V30 15 1 15 16
M  V30 16 2 16 17
M  V30 17 1 11 2
M  V30 18 1 17 12
M  V30 19 1 17 2
M  V30 20 1 11 6
M  V30 21 1 1 18
M  V30 22 1 1 19
M  V30 23 1 1 20
M  V30 24 1 3 21
M  V30 25 1 4 22 CFG=1
M  V30 26 1 5 23
M  V30 27 1 5 24
M  V30 28 1 7 25
M  V30 29 1 8 26
M  V30 30 1 9 27
M  V30 31 1 10 28
M  V30 32 1 13 29
M  V30 33 1 14 30
M  V30 34 1 15 31
M  V30 35 1 16 32
M  V30 END BOND
M  V30 END CTAB
M  END
>  <Dataset>  (355) 
ChEMBL_Kinases

>  <Ligand_Instance>  (355) 
nan

>  <PDB_ID>  (355) 
nan

>  <Standardized_SMILES>  (355) 
C[C@]12N[C@H](Cc3ccccc31)c1ccccc12

>  <Name>  (355) 
DIZOCILPINE

>  <Pocket>  (355) 
nan

>  <ATP_Site>  (355) 
nan

>  <Peripheral>  (355) 
nan

>  <Num_H_Atoms_ProtBoundConf>  (355) 
nan

>  <Num_Resolved_Atoms>  (355) 
nan

>  <Num_Not_Resolved_Atoms>  (355) 
nan

$$$$
CHEMBL280065
     RDKit          3D

  0  0  0  0  0  0  0  0  0  0999 V3000
M  V30 BEGIN CTAB
M  V30 COUNTS 62 61 0 0 0
M  V30 BEGIN ATOM
M  V30 1 C 4.844878 -4.880808 2.580261 0
M  V30 2 C 4.530499 -3.943218 3.731620 0
M  V30 3 C 3.399524 -3.007259 3.288787 0
M  V30 4 C 3.823516 -2.212202 2.090445 0
M  V30 5 C 2.720186 -1.267756 1.577701 0
M  V30 6 C 2.289571 -0.267102 2.577701 0
M  V30 7 C 1.199147 0.676963 2.227262 0
M  V30 8 C 1.355058 1.595377 1.100720 0
M  V30 9 C 1.483026 1.107741 -0.264644 0
M  V30 10 C 0.520490 1.510107 -1.144253 0
M  V30 11 C -0.680140 2.349165 -1.089750 0
M  V30 12 C -1.982874 1.716061 -1.418148 0
M  V30 13 C -2.268736 1.160342 -2.738575 0
M  V30 14 C -1.537814 0.050352 -3.334010 0
M  V30 15 C -1.461184 -1.274996 -2.699094 0
M  V30 16 C -2.661451 -2.100903 -2.527347 0
M  V30 17 C -3.799382 -1.675756 -1.709712 0
M  V30 18 C -3.552890 -1.443923 -0.273493 0
M  V30 19 O -2.410375 -1.585234 0.224346 0
M  V30 20 N -4.682289 -1.054471 0.505149 0
M  V30 21 C -4.675320 -0.772932 1.919585 0
M  V30 22 C -3.812618 0.365219 2.345022 0
M  V30 23 O -2.465933 0.233449 2.055644 0
M  V30 24 H 5.204308 -5.826148 3.065055 0
M  V30 25 H 3.925093 -5.111327 2.037762 0
M  V30 26 H 5.612115 -4.466237 1.901028 0
M  V30 27 H 5.397432 -3.297034 3.963919 0
M  V30 28 H 4.180024 -4.475294 4.623646 0
M  V30 29 H 3.188576 -2.301021 4.123606 0
M  V30 30 H 2.472120 -3.561645 3.043388 0
M  V30 31 H 4.125625 -2.853252 1.248494 0
M  V30 32 H 4.704775 -1.558699 2.348838 0
M  V30 33 H 3.154205 -0.706170 0.706242 0
M  V30 34 H 1.895850 -1.888971 1.188692 0
M  V30 35 H 2.021462 -0.838690 3.529842 0
M  V30 36 H 3.175039 0.340155 2.931556 0
M  V30 37 H 0.254847 0.031196 2.126876 0
M  V30 38 H 1.038521 1.315649 3.151024 0
M  V30 39 H 2.347247 2.155050 1.297457 0
M  V30 40 H 0.623127 2.438327 1.196872 0
M  V30 41 H 2.170193 0.492192 -0.816348 0
M  V30 42 H 0.625703 1.175357 -2.150593 0
M  V30 43 H -0.752530 2.924455 -0.123603 0
M  V30 44 H -0.526745 3.172456 -1.848135 0
M  V30 45 H -2.208275 1.017112 -0.564781 0
M  V30 46 H -2.760521 2.545113 -1.214473 0
M  V30 47 H -2.035765 2.055499 -3.464044 0
M  V30 48 H -3.397421 1.111320 -2.938259 0
M  V30 49 H -2.088741 -0.089913 -4.376623 0
M  V30 50 H -0.551281 0.363033 -3.722333 0
M  V30 51 H -0.863073 -1.157984 -1.755890 0
M  V30 52 H -0.746784 -1.889517 -3.345555 0
M  V30 53 H -3.095755 -2.323444 -3.569334 0
M  V30 54 H -2.377105 -3.167278 -2.206683 0
M  V30 55 H -4.596925 -2.504668 -1.719725 0
M  V30 56 H -4.336825 -0.822036 -2.128076 0
M  V30 57 H -5.616588 -0.962917 -0.005256 0
M  V30 58 H -4.328937 -1.665110 2.510178 0
M  V30 59 H -5.722310 -0.625786 2.249879 0
M  V30 60 H -4.191065 1.356927 1.991741 0
M  V30 61 H -3.864627 0.385668 3.471565 0
M  V30 62 H -2.031065 1.113176 1.900544 0
M  V30 END ATOM
M  V30 BEGIN BOND
M  V30 1 1 1 2
M  V30 2 1 2 3
M  V30 3 1 3 4
M  V30 4 1 4 5
M  V30 5 1 5 6
M  V30 6 1 6 7
M  V30 7 1 7 8
M  V30 8 1 8 9
M  V30 9 2 9 10
M  V30 10 1 10 11
M  V30 11 1 11 12
M  V30 12 1 12 13
M  V30 13 1 13 14
M  V30 14 1 14 15
M  V30 15 1 15 16
M  V30 16 1 16 17
M  V30 17 1 17 18
M  V30 18 2 18 19
M  V30 19 1 18 20
M  V30 20 1 20 21
M  V30 21 1 21 22
M  V30 22 1 22 23
M  V30 23 1 1 24
M  V30 24 1 1 25
M  V30 25 1 1 26
M  V30 26 1 2 27
M  V30 27 1 2 28
M  V30 28 1 3 29
M  V30 29 1 3 30
M  V30 30 1 4 31
M  V30 31 1 4 32
M  V30 32 1 5 33
M  V30 33 1 5 34
M  V30 34 1 6 35
M  V30 35 1 6 36
M  V30 36 1 7 37
M  V30 37 1 7 38
M  V30 38 1 8 39
M  V30 39 1 8 40
M  V30 40 1 9 41
M  V30 41 1 10 42
M  V30 42 1 11 43
M  V30 43 1 11 44
M  V30 44 1 12 45
M  V30 45 1 12 46
M  V30 46 1 13 47
M  V30 47 1 13 48
M  V30 48 1 14 49
M  V30 49 1 14 50
M  V30 50 1 15 51
M  V30 51 1 15 52
M  V30 52 1 16 53
M  V30 53 1 16 54
M  V30 54 1 17 55
M  V30 55 1 17 56
M  V30 56 1 20 57
M  V30 57 1 21 58
M  V30 58 1 21 59
M  V30 59 1 22 60
M  V30 60 1 22 61
M  V30 61 1 23 62
M  V30 END BOND
M  V30 END CTAB
M  END
>  <Dataset>  (356) 
ChEMBL_Kinases

>  <Ligand_Instance>  (356) 
nan

>  <PDB_ID>  (356) 
nan

>  <Standardized_SMILES>  (356) 
CCCCCCCC/C=C\CCCCCCCC(=O)NCCO

>  <Name>  (356) 
OLEOYLETHANOLAMIDE

>  <Pocket>  (356) 
nan

>  <ATP_Site>  (356) 
nan

>  <Peripheral>  (356) 
nan

>  <Num_H_Atoms_ProtBoundConf>  (356) 
nan

>  <Num_Resolved_Atoms>  (356) 
nan

>  <Num_Not_Resolved_Atoms>  (356) 
nan

$$$$
CHEMBL3084323
     RDKit          3D

  0  0  0  0  0  0  0  0  0  0999 V3000
M  V30 BEGIN CTAB
M  V30 COUNTS 58 61 0 0 0
M  V30 BEGIN ATOM
M  V30 1 C 2.139530 -3.273260 3.330206 0
M  V30 2 O 3.160567 -2.513542 2.760732 0
M  V30 3 C 3.228218 -2.789928 1.391932 0
M  V30 4 C 4.348743 -1.942168 0.832296 0 CFG=2
M  V30 5 O 5.506976 -2.354022 1.531689 0
M  V30 6 C 4.154516 -0.490699 1.125772 0
M  V30 7 N 2.997890 0.100674 0.480338 0
M  V30 8 C 2.963973 1.477692 0.864550 0
M  V30 9 C 1.763333 2.214108 0.323184 0
M  V30 10 C 1.173067 1.595974 -0.892908 0
M  V30 11 C -0.120500 0.888268 -0.600074 0
M  V30 12 C -1.351293 1.270490 -1.093333 0
M  V30 13 C -2.363118 0.414272 -0.641753 0
M  V30 14 C -3.784408 0.511139 -0.958764 0
M  V30 15 C -4.342065 1.717088 -0.526622 0
M  V30 16 C -5.699949 1.927424 -0.774712 0
M  V30 17 N -6.474924 1.024791 -1.404095 0
M  V30 18 C -5.920804 -0.142338 -1.818478 0
M  V30 19 C -4.583277 -0.398212 -1.597347 0
M  V30 20 C -1.673535 -0.506352 0.151895 0
M  V30 21 C -2.321522 -1.612002 0.851357 0
M  V30 22 C -3.256068 -1.532172 1.863007 0
M  V30 23 C -3.775205 -2.681267 2.420255 0
M  V30 24 C -3.356633 -3.929564 1.962326 0
M  V30 25 F -3.885618 -5.040396 2.530154 0
M  V30 26 C -2.412964 -4.023251 0.940898 0
M  V30 27 C -1.890080 -2.856037 0.379369 0
M  V30 28 N -0.378603 -0.192334 0.146328 0
M  V30 29 C 2.109800 0.749490 -1.700741 0
M  V30 30 C 3.012529 -0.142125 -0.924976 0
M  V30 31 H 2.309469 -4.364516 3.201562 0
M  V30 32 H 1.199555 -2.981370 2.810034 0
M  V30 33 H 2.067859 -3.049692 4.411352 0
M  V30 34 H 2.258869 -2.513472 0.901472 0
M  V30 35 H 3.474705 -3.857360 1.261498 0
M  V30 36 H 4.569730 -2.159384 -0.225287 0
M  V30 37 H 5.432804 -3.328438 1.693502 0
M  V30 38 H 5.095911 0.054708 0.911016 0
M  V30 39 H 4.005387 -0.410196 2.241729 0
M  V30 40 H 2.917908 1.530533 1.971088 0
M  V30 41 H 3.892476 2.027425 0.574191 0
M  V30 42 H 1.975613 3.282457 0.129357 0
M  V30 43 H 0.957879 2.224683 1.102926 0
M  V30 44 H 0.860020 2.434478 -1.590052 0
M  V30 45 H -1.604979 2.113651 -1.754980 0
M  V30 46 H -3.913773 2.565416 -0.011855 0
M  V30 47 H -6.253562 2.826716 -0.487770 0
M  V30 48 H -6.432949 -0.960124 -2.340575 0
M  V30 49 H -4.050566 -1.302040 -1.891994 0
M  V30 50 H -3.525281 -0.509479 2.157026 0
M  V30 51 H -4.514581 -2.570375 3.220806 0
M  V30 52 H -2.094709 -5.011710 0.593104 0
M  V30 53 H -1.159568 -3.000874 -0.413383 0
M  V30 54 H 0.342669 -0.733709 0.667341 0
M  V30 55 H 1.477541 0.157150 -2.426711 0
M  V30 56 H 2.775610 1.382222 -2.360325 0
M  V30 57 H 2.649462 -1.198935 -1.068303 0
M  V30 58 H 4.062534 -0.157360 -1.341986 0
M  V30 END ATOM
M  V30 BEGIN BOND
M  V30 1 1 1 2
M  V30 2 1 2 3
M  V30 3 1 3 4
M  V30 4 1 4 5
M  V30 5 1 4 6
M  V30 6 1 6 7
M  V30 7 1 7 8
M  V30 8 1 8 9
M  V30 9 1 9 10
M  V30 10 1 10 11
M  V30 11 2 11 12
M  V30 12 1 12 13
M  V30 13 1 13 14
M  V30 14 2 14 15
M  V30 15 1 15 16
M  V30 16 2 16 17
M  V30 17 1 17 18
M  V30 18 2 18 19
M  V30 19 2 13 20
M  V30 20 1 20 21
M  V30 21 2 21 22
M  V30 22 1 22 23
M  V30 23 2 23 24
M  V30 24 1 24 25
M  V30 25 1 24 26
M  V30 26 2 26 27
M  V30 27 1 20 28
M  V30 28 1 10 29
M  V30 29 1 29 30
M  V30 30 1 30 7
M  V30 31 1 28 11
M  V30 32 1 19 14
M  V30 33 1 27 21
M  V30 34 1 1 31
M  V30 35 1 1 32
M  V30 36 1 1 33
M  V30 37 1 3 34
M  V30 38 1 3 35
M  V30 39 1 4 36 CFG=3
M  V30 40 1 5 37
M  V30 41 1 6 38
M  V30 42 1 6 39
M  V30 43 1 8 40
M  V30 44 1 8 41
M  V30 45 1 9 42
M  V30 46 1 9 43
M  V30 47 1 10 44
M  V30 48 1 12 45
M  V30 49 1 15 46
M  V30 50 1 16 47
M  V30 51 1 18 48
M  V30 52 1 19 49
M  V30 53 1 22 50
M  V30 54 1 23 51
M  V30 55 1 26 52
M  V30 56 1 27 53
M  V30 57 1 28 54
M  V30 58 1 29 55
M  V30 59 1 29 56
M  V30 60 1 30 57
M  V30 61 1 30 58
M  V30 END BOND
M  V30 END CTAB
M  END
>  <Dataset>  (357) 
ChEMBL_Kinases

>  <Ligand_Instance>  (357) 
nan

>  <PDB_ID>  (357) 
nan

>  <Standardized_SMILES>  (357) 
COC[C@H](O)CN1CCC(c2cc(-c3ccncc3)c(-c3ccc(F)cc3)[nH]2)CC1

>  <Name>  (357) 
nan

>  <Pocket>  (357) 
nan

>  <ATP_Site>  (357) 
nan

>  <Peripheral>  (357) 
nan

>  <Num_H_Atoms_ProtBoundConf>  (357) 
nan

>  <Num_Resolved_Atoms>  (357) 
nan

>  <Num_Not_Resolved_Atoms>  (357) 
nan

$$$$
CHEMBL307893
     RDKit          3D

  0  0  0  0  0  0  0  0  0  0999 V3000
M  V30 BEGIN CTAB
M  V30 COUNTS 33 35 0 0 0
M  V30 BEGIN ATOM
M  V30 1 O -2.496906 -2.442725 1.265859 0
M  V30 2 C -1.584597 -1.723116 1.753056 0
M  V30 3 C -0.550101 -2.288386 2.680402 0
M  V30 4 C 0.751362 -1.557019 2.349613 0
M  V30 5 C 1.110818 -1.757693 0.918748 0
M  V30 6 C 0.669352 -2.725846 0.043987 0
M  V30 7 C 1.131195 -2.734109 -1.253628 0
M  V30 8 C 2.027825 -1.787100 -1.685892 0
M  V30 9 O 2.433710 -1.874299 -2.999513 0
M  V30 10 C 2.482614 -0.812610 -0.834317 0
M  V30 11 O 3.386142 0.103567 -1.352504 0
M  V30 12 C 2.022312 -0.791814 0.486193 0
M  V30 13 O 0.483549 -0.194522 2.637604 0
M  V30 14 C -0.481848 0.436541 1.864601 0
M  V30 15 C -0.399897 1.792237 1.552800 0
M  V30 16 C -1.361687 2.417177 0.783695 0
M  V30 17 O -1.196083 3.766337 0.525983 0
M  V30 18 C -2.430540 1.655175 0.319043 0
M  V30 19 C -2.501975 0.321651 0.631485 0
M  V30 20 O -3.545427 -0.438822 0.182317 0
M  V30 21 C -1.543099 -0.311851 1.401063 0
M  V30 22 H -0.796913 -2.003227 3.731017 0
M  V30 23 H -0.480287 -3.369976 2.560539 0
M  V30 24 H 1.556919 -1.965820 2.991255 0
M  V30 25 H -0.036805 -3.413060 0.511448 0
M  V30 26 H 0.705783 -3.552296 -1.847891 0
M  V30 27 H 2.022525 -1.353227 -3.770941 0
M  V30 28 H 4.321450 -0.225666 -1.542905 0
M  V30 29 H 2.446243 0.016309 1.062752 0
M  V30 30 H 0.447263 2.374120 1.926973 0
M  V30 31 H -2.033691 4.332301 0.438794 0
M  V30 32 H -3.165522 2.158794 -0.275679 0
M  V30 33 H -3.452701 -1.033098 -0.620848 0
M  V30 END ATOM
M  V30 BEGIN BOND
M  V30 1 2 1 2
M  V30 2 1 2 3
M  V30 3 1 3 4
M  V30 4 1 4 5
M  V30 5 2 5 6
M  V30 6 1 6 7
M  V30 7 2 7 8
M  V30 8 1 8 9
M  V30 9 1 8 10
M  V30 10 1 10 11
M  V30 11 2 10 12
M  V30 12 1 4 13
M  V30 13 1 13 14
M  V30 14 2 14 15
M  V30 15 1 15 16
M  V30 16 1 16 17
M  V30 17 2 16 18
M  V30 18 1 18 19
M  V30 19 1 19 20
M  V30 20 2 19 21
M  V30 21 1 21 2
M  V30 22 1 12 5
M  V30 23 1 21 14
M  V30 24 1 3 22
M  V30 25 1 3 23
M  V30 26 1 4 24
M  V30 27 1 6 25
M  V30 28 1 7 26
M  V30 29 1 9 27
M  V30 30 1 11 28
M  V30 31 1 12 29
M  V30 32 1 15 30
M  V30 33 1 17 31
M  V30 34 1 18 32
M  V30 35 1 20 33
M  V30 END BOND
M  V30 END CTAB
M  END
>  <Dataset>  (358) 
ChEMBL_Kinases

>  <Ligand_Instance>  (358) 
nan

>  <PDB_ID>  (358) 
nan

>  <Standardized_SMILES>  (358) 
O=C1CC(c2ccc(O)c(O)c2)Oc2cc(O)cc(O)c21

>  <Name>  (358) 
nan

>  <Pocket>  (358) 
nan

>  <ATP_Site>  (358) 
nan

>  <Peripheral>  (358) 
nan

>  <Num_H_Atoms_ProtBoundConf>  (358) 
nan

>  <Num_Resolved_Atoms>  (358) 
nan

>  <Num_Not_Resolved_Atoms>  (358) 
nan

$$$$
CHEMBL30763
     RDKit          3D

  0  0  0  0  0  0  0  0  0  0999 V3000
M  V30 BEGIN CTAB
M  V30 COUNTS 49 52 0 0 0
M  V30 BEGIN ATOM
M  V30 1 C -0.163473 -5.964859 4.894671 0
M  V30 2 O -0.693243 -5.031729 3.982773 0
M  V30 3 C 0.079285 -4.100220 3.306193 0
M  V30 4 C 1.460755 -3.952260 3.426613 0
M  V30 5 C 2.124017 -2.980996 2.695418 0
M  V30 6 N 3.467347 -2.867286 2.840477 0
M  V30 7 C 4.145807 -1.917663 2.132263 0
M  V30 8 C 3.533602 -1.061822 1.271147 0
M  V30 9 C 4.168951 -0.050443 0.501133 0
M  V30 10 N 4.703073 0.770915 -0.115463 0
M  V30 11 C 2.147622 -1.165296 1.109414 0
M  V30 12 N 1.328848 -0.370241 0.262858 0
M  V30 13 C 0.704116 0.841243 0.664432 0
M  V30 14 C 0.853930 1.333180 1.942301 0
M  V30 15 C 0.208540 2.516319 2.237390 0
M  V30 16 C -0.572184 3.218978 1.314778 0
M  V30 17 C -0.703563 2.692535 0.026957 0
M  V30 18 O -1.473111 3.355118 -0.935581 0
M  V30 19 C -1.569883 2.784885 -2.208623 0
M  V30 20 C -2.660778 1.917973 -2.270287 0
M  V30 21 C -2.953633 1.235934 -3.441283 0
M  V30 22 C -2.153495 1.414306 -4.571450 0
M  V30 23 C -1.086810 2.277174 -4.472065 0
M  V30 24 C -0.782172 2.958695 -3.325790 0
M  V30 25 C -0.060602 1.515575 -0.263998 0
M  V30 26 C 1.454635 -2.122891 1.822036 0
M  V30 27 C 0.085368 -2.320573 1.747354 0
M  V30 28 C -0.609320 -3.258323 2.443549 0
M  V30 29 O -1.983578 -3.352604 2.277321 0
M  V30 30 C -2.614823 -2.465202 1.385208 0
M  V30 31 H -0.753220 -6.901164 4.939728 0
M  V30 32 H 0.845780 -6.278371 4.510205 0
M  V30 33 H -0.026054 -5.580267 5.905466 0
M  V30 34 H 1.960607 -4.619321 4.101622 0
M  V30 35 H 5.214781 -1.793004 2.217652 0
M  V30 36 H 1.226171 -0.757191 -0.685721 0
M  V30 37 H 1.449379 0.822580 2.690290 0
M  V30 38 H 0.264313 2.983580 3.212259 0
M  V30 39 H -1.069853 4.148185 1.572422 0
M  V30 40 H -3.351189 1.686157 -1.494945 0
M  V30 41 H -3.769482 0.550260 -3.582722 0
M  V30 42 H -2.352299 0.894196 -5.512845 0
M  V30 43 H -0.418951 2.465105 -5.314405 0
M  V30 44 H 0.023766 3.650565 -3.148137 0
M  V30 45 H -0.168478 1.110023 -1.274234 0
M  V30 46 H -0.440965 -1.656933 1.070515 0
M  V30 47 H -3.706007 -2.677971 1.313503 0
M  V30 48 H -2.488322 -1.417239 1.712755 0
M  V30 49 H -2.232303 -2.587064 0.332446 0
M  V30 END ATOM
M  V30 BEGIN BOND
M  V30 1 1 1 2
M  V30 2 1 2 3
M  V30 3 2 3 4
M  V30 4 1 4 5
M  V30 5 2 5 6
M  V30 6 1 6 7
M  V30 7 2 7 8
M  V30 8 1 8 9
M  V30 9 3 9 10
M  V30 10 1 8 11
M  V30 11 1 11 12
M  V30 12 1 12 13
M  V30 13 2 13 14
M  V30 14 1 14 15
M  V30 15 2 15 16
M  V30 16 1 16 17
M  V30 17 1 17 18
M  V30 18 1 18 19
M  V30 19 2 19 20
M  V30 20 1 20 21
M  V30 21 2 21 22
M  V30 22 1 22 23
M  V30 23 2 23 24
M  V30 24 2 17 25
M  V30 25 2 11 26
M  V30 26 1 26 27
M  V30 27 2 27 28
M  V30 28 1 28 29
M  V30 29 1 29 30
M  V30 30 1 28 3
M  V30 31 1 26 5
M  V30 32 1 25 13
M  V30 33 1 24 19
M  V30 34 1 1 31
M  V30 35 1 1 32
M  V30 36 1 1 33
M  V30 37 1 4 34
M  V30 38 1 7 35
M  V30 39 1 12 36
M  V30 40 1 14 37
M  V30 41 1 15 38
M  V30 42 1 16 39
M  V30 43 1 20 40
M  V30 44 1 21 41
M  V30 45 1 22 42
M  V30 46 1 23 43
M  V30 47 1 24 44
M  V30 48 1 25 45
M  V30 49 1 27 46
M  V30 50 1 30 47
M  V30 51 1 30 48
M  V30 52 1 30 49
M  V30 END BOND
M  V30 END CTAB
M  END
>  <Dataset>  (359) 
ChEMBL_Kinases

>  <Ligand_Instance>  (359) 
nan

>  <PDB_ID>  (359) 
nan

>  <Standardized_SMILES>  (359) 
COc1cc2ncc(C#N)c(Nc3cccc(Oc4ccccc4)c3)c2cc1OC

>  <Name>  (359) 
nan

>  <Pocket>  (359) 
nan

>  <ATP_Site>  (359) 
nan

>  <Peripheral>  (359) 
nan

>  <Num_H_Atoms_ProtBoundConf>  (359) 
nan

>  <Num_Resolved_Atoms>  (359) 
nan

>  <Num_Not_Resolved_Atoms>  (359) 
nan

$$$$
CHEMBL30707
     RDKit          3D

  0  0  0  0  0  0  0  0  0  0999 V3000
M  V30 BEGIN CTAB
M  V30 COUNTS 28 31 0 0 0
M  V30 BEGIN ATOM
M  V30 1 O 0.442968 -3.827838 0.998562 0
M  V30 2 C 0.828092 -2.636838 1.123632 0
M  V30 3 O 1.983562 -2.352763 1.720198 0
M  V30 4 C 2.372928 -1.087260 1.842518 0
M  V30 5 C 3.603899 -0.938466 2.488422 0
M  V30 6 C 4.063841 0.368731 2.645548 0
M  V30 7 O 5.303312 0.506655 3.296712 0
M  V30 8 C 3.356108 1.464751 2.194695 0
M  V30 9 C 2.130020 1.283097 1.553603 0
M  V30 10 C 1.652999 -0.001218 1.385836 0
M  V30 11 C 0.447189 -0.253157 0.760283 0
M  V30 12 O -0.459412 0.531320 0.224427 0
M  V30 13 C -1.457693 -0.207294 -0.257798 0
M  V30 14 C -2.614063 0.190929 -0.900749 0
M  V30 15 C -3.449680 -0.839151 -1.276686 0
M  V30 16 O -4.646486 -0.516231 -1.936121 0
M  V30 17 C -3.235761 -2.184680 -1.072166 0
M  V30 18 C -2.047091 -2.513503 -0.416674 0
M  V30 19 C -1.146734 -1.529240 -0.003159 0
M  V30 20 C 0.075626 -1.578562 0.651480 0
M  V30 21 H 4.176951 -1.782838 2.850581 0
M  V30 22 H 5.509119 1.273040 3.931695 0
M  V30 23 H 3.742705 2.460962 2.333664 0
M  V30 24 H 1.540771 2.112959 1.183796 0
M  V30 25 H -2.887368 1.197214 -1.114087 0
M  V30 26 H -5.319800 0.079574 -1.481741 0
M  V30 27 H -3.947811 -2.928257 -1.401542 0
M  V30 28 H -1.812584 -3.544920 -0.222319 0
M  V30 END ATOM
M  V30 BEGIN BOND
M  V30 1 2 1 2
M  V30 2 1 2 3
M  V30 3 1 3 4
M  V30 4 2 4 5
M  V30 5 1 5 6
M  V30 6 1 6 7
M  V30 7 2 6 8
M  V30 8 1 8 9
M  V30 9 2 9 10
M  V30 10 1 10 11
M  V30 11 1 11 12
M  V30 12 1 12 13
M  V30 13 2 13 14
M  V30 14 1 14 15
M  V30 15 1 15 16
M  V30 16 2 15 17
M  V30 17 1 17 18
M  V30 18 2 18 19
M  V30 19 1 19 20
M  V30 20 1 20 2
M  V30 21 1 10 4
M  V30 22 2 20 11
M  V30 23 1 19 13
M  V30 24 1 5 21
M  V30 25 1 7 22
M  V30 26 1 8 23
M  V30 27 1 9 24
M  V30 28 1 14 25
M  V30 29 1 16 26
M  V30 30 1 17 27
M  V30 31 1 18 28
M  V30 END BOND
M  V30 END CTAB
M  END
>  <Dataset>  (360) 
ChEMBL_Kinases

>  <Ligand_Instance>  (360) 
nan

>  <PDB_ID>  (360) 
nan

>  <Standardized_SMILES>  (360) 
O=c1oc2cc(O)ccc2c2oc3cc(O)ccc3c12

>  <Name>  (360) 
COUMESTROL

>  <Pocket>  (360) 
nan

>  <ATP_Site>  (360) 
nan

>  <Peripheral>  (360) 
nan

>  <Num_H_Atoms_ProtBoundConf>  (360) 
nan

>  <Num_Resolved_Atoms>  (360) 
nan

>  <Num_Not_Resolved_Atoms>  (360) 
nan

$$$$
CHEMBL306946
     RDKit          3D

  0  0  0  0  0  0  0  0  0  0999 V3000
M  V30 BEGIN CTAB
M  V30 COUNTS 27 30 0 0 0
M  V30 BEGIN ATOM
M  V30 1 O 3.506083 -1.422533 1.841477 0
M  V30 2 C 2.257198 -1.409021 1.628075 0
M  V30 3 C 1.256585 -2.349667 2.153857 0
M  V30 4 C 1.483338 -3.445917 2.993592 0
M  V30 5 C 0.380935 -4.190554 3.359257 0
M  V30 6 C -0.869873 -3.831951 2.892836 0
M  V30 7 C -1.070876 -2.745650 2.064581 0
M  V30 8 C 0.014554 -1.977161 1.678682 0
M  V30 9 N 0.174170 -0.830056 0.864669 0
M  V30 10 C 1.471826 -0.468043 0.811022 0
M  V30 11 N 1.877362 0.614190 0.084579 0
M  V30 12 C 0.996142 1.359077 -0.604500 0
M  V30 13 C 1.332677 2.464637 -1.359262 0
M  V30 14 C 0.353914 3.172998 -2.037488 0
M  V30 15 C -0.994723 2.805499 -1.988133 0
M  V30 16 C -1.377066 1.689842 -1.233437 0
M  V30 17 C -0.346978 1.042632 -0.591627 0
M  V30 18 C -0.703139 -0.071474 0.166201 0
M  V30 19 O -1.925706 -0.436237 0.234106 0
M  V30 20 H 2.480728 -3.689658 3.334604 0
M  V30 21 H 0.551794 -5.039780 4.008989 0
M  V30 22 H -1.742663 -4.413568 3.176535 0
M  V30 23 H -2.070205 -2.476264 1.704482 0
M  V30 24 H 2.364858 2.759243 -1.406810 0
M  V30 25 H 0.610005 4.052152 -2.639561 0
M  V30 26 H -1.781671 3.332454 -2.502251 0
M  V30 27 H -2.383608 1.360446 -1.156242 0
M  V30 END ATOM
M  V30 BEGIN BOND
M  V30 1 2 1 2
M  V30 2 1 2 3
M  V30 3 2 3 4
M  V30 4 1 4 5
M  V30 5 2 5 6
M  V30 6 1 6 7
M  V30 7 2 7 8
M  V30 8 1 8 9
M  V30 9 1 9 10
M  V30 10 2 10 11
M  V30 11 1 11 12
M  V30 12 2 12 13
M  V30 13 1 13 14
M  V30 14 2 14 15
M  V30 15 1 15 16
M  V30 16 2 16 17
M  V30 17 1 17 18
M  V30 18 2 18 19
M  V30 19 1 10 2
M  V30 20 1 17 12
M  V30 21 1 8 3
M  V30 22 1 18 9
M  V30 23 1 4 20
M  V30 24 1 5 21
M  V30 25 1 6 22
M  V30 26 1 7 23
M  V30 27 1 13 24
M  V30 28 1 14 25
M  V30 29 1 15 26
M  V30 30 1 16 27
M  V30 END BOND
M  V30 END CTAB
M  END
>  <Dataset>  (361) 
ChEMBL_Kinases

>  <Ligand_Instance>  (361) 
nan

>  <PDB_ID>  (361) 
nan

>  <Standardized_SMILES>  (361) 
O=C1c2ccccc2-n2c1nc1ccccc1c2=O

>  <Name>  (361) 
TRYPTANTHRIN

>  <Pocket>  (361) 
nan

>  <ATP_Site>  (361) 
nan

>  <Peripheral>  (361) 
nan

>  <Num_H_Atoms_ProtBoundConf>  (361) 
nan

>  <Num_Resolved_Atoms>  (361) 
nan

>  <Num_Not_Resolved_Atoms>  (361) 
nan

$$$$
CHEMBL306380
     RDKit          3D

  0  0  0  0  0  0  0  0  0  0999 V3000
M  V30 BEGIN CTAB
M  V30 COUNTS 40 42 0 0 0
M  V30 BEGIN ATOM
M  V30 1 C -2.354403 -4.715873 3.859409 0
M  V30 2 C -1.683059 -3.578119 3.148324 0
M  V30 3 C -0.871895 -3.841302 2.063839 0
M  V30 4 C -0.298690 -2.730816 1.476376 0
M  V30 5 C -0.466360 -1.397191 1.877072 0
M  V30 6 C 0.225547 -0.394126 1.092583 0
M  V30 7 N 0.092678 -0.442743 -0.267201 0
M  V30 8 N 0.788947 0.533105 -0.824320 0
M  V30 9 C 0.910980 0.829406 -2.249129 0
M  V30 10 C 2.226209 0.259522 -2.742681 0
M  V30 11 C -0.268473 0.249448 -2.964560 0
M  V30 12 C 0.894600 2.328380 -2.399023 0
M  V30 13 C 1.414682 1.274800 0.106978 0
M  V30 14 N 2.226605 2.335063 0.201483 0
M  V30 15 C 2.669066 2.799319 1.405177 0
M  V30 16 N 2.297247 2.195263 2.560671 0
M  V30 17 C 1.476995 1.117483 2.535811 0
M  V30 18 N 1.123323 0.506910 3.761360 0
M  V30 19 C 1.055773 0.686096 1.298145 0
M  V30 20 C -1.293271 -1.239612 2.966316 0
M  V30 21 C -1.902904 -2.296653 3.608706 0
M  V30 22 H -2.383384 -5.618203 3.221272 0
M  V30 23 H -1.723845 -5.009247 4.747210 0
M  V30 24 H -3.308242 -4.383841 4.264782 0
M  V30 25 H -0.688856 -4.823782 1.691758 0
M  V30 26 H 0.346197 -2.950983 0.612680 0
M  V30 27 H 2.362582 0.468634 -3.813443 0
M  V30 28 H 3.025826 0.707029 -2.104450 0
M  V30 29 H 2.227556 -0.834431 -2.546552 0
M  V30 30 H -0.819345 1.018349 -3.578273 0
M  V30 31 H -1.051336 -0.170879 -2.281648 0
M  V30 32 H 0.063375 -0.562529 -3.670492 0
M  V30 33 H 0.145337 2.720499 -1.679155 0
M  V30 34 H 1.897887 2.743095 -2.140378 0
M  V30 35 H 0.561862 2.665469 -3.410734 0
M  V30 36 H 3.322530 3.659220 1.417841 0
M  V30 37 H 0.449278 0.726494 4.539431 0
M  V30 38 H 1.506907 -0.371644 4.167143 0
M  V30 39 H -1.457165 -0.232698 3.294839 0
M  V30 40 H -2.537282 -2.077355 4.458657 0
M  V30 END ATOM
M  V30 BEGIN BOND
M  V30 1 1 1 2
M  V30 2 2 2 3
M  V30 3 1 3 4
M  V30 4 2 4 5
M  V30 5 1 5 6
M  V30 6 2 6 7
M  V30 7 1 7 8
M  V30 8 1 8 9
M  V30 9 1 9 10
M  V30 10 1 9 11
M  V30 11 1 9 12
M  V30 12 1 8 13
M  V30 13 2 13 14
M  V30 14 1 14 15
M  V30 15 2 15 16
M  V30 16 1 16 17
M  V30 17 1 17 18
M  V30 18 2 17 19
M  V30 19 1 5 20
M  V30 20 2 20 21
M  V30 21 1 21 2
M  V30 22 1 19 6
M  V30 23 1 19 13
M  V30 24 1 1 22
M  V30 25 1 1 23
M  V30 26 1 1 24
M  V30 27 1 3 25
M  V30 28 1 4 26
M  V30 29 1 10 27
M  V30 30 1 10 28
M  V30 31 1 10 29
M  V30 32 1 11 30
M  V30 33 1 11 31
M  V30 34 1 11 32
M  V30 35 1 12 33
M  V30 36 1 12 34
M  V30 37 1 12 35
M  V30 38 1 15 36
M  V30 39 1 18 37
M  V30 40 1 18 38
M  V30 41 1 20 39
M  V30 42 1 21 40
M  V30 END BOND
M  V30 END CTAB
M  END
>  <Dataset>  (362) 
ChEMBL_Kinases

>  <Ligand_Instance>  (362) 
nan

>  <PDB_ID>  (362) 
nan

>  <Standardized_SMILES>  (362) 
Cc1ccc(-c2nn(C(C)(C)C)c3ncnc(N)c23)cc1

>  <Name>  (362) 
nan

>  <Pocket>  (362) 
nan

>  <ATP_Site>  (362) 
nan

>  <Peripheral>  (362) 
nan

>  <Num_H_Atoms_ProtBoundConf>  (362) 
nan

>  <Num_Resolved_Atoms>  (362) 
nan

>  <Num_Not_Resolved_Atoms>  (362) 
nan

$$$$
CHEMBL30551
     RDKit          3D

  0  0  0  0  0  0  0  0  0  0999 V3000
M  V30 BEGIN CTAB
M  V30 COUNTS 73 77 0 0 0
M  V30 BEGIN ATOM
M  V30 1 C 3.429676 -1.394156 2.007425 0
M  V30 2 O 2.348268 -1.060537 2.850050 0
M  V30 3 C 1.119868 -1.696227 2.760659 0
M  V30 4 C 1.057078 -2.680018 1.775146 0
M  V30 5 C -0.096328 -3.383643 1.580911 0
M  V30 6 C -0.281772 -4.381331 0.643027 0
M  V30 7 N 0.812431 -4.707275 -0.202798 0
M  V30 8 C 0.936933 -4.072225 -1.476534 0
M  V30 9 C -0.026921 -3.168068 -1.878350 0
M  V30 10 C 0.025493 -2.522574 -3.092033 0
M  V30 11 C 1.105612 -2.831490 -3.893561 0
M  V30 12 C 1.247907 -2.203155 -5.209572 0
M  V30 13 C 2.012481 -0.904858 -5.185369 0
M  V30 14 C 1.357183 0.109247 -4.323046 0
M  V30 15 C 0.424510 0.930907 -4.935035 0
M  V30 16 C -0.249351 1.900947 -4.259091 0
M  V30 17 C 0.009780 2.063759 -2.927327 0
M  V30 18 C 0.931830 1.267049 -2.276688 0
M  V30 19 C 1.615646 0.278877 -2.974070 0
M  V30 20 C 2.109566 -3.737827 -3.537083 0
M  V30 21 C 2.008927 -4.367219 -2.292568 0
M  V30 22 C -1.493730 -5.051126 0.515911 0
M  V30 23 C -1.587574 -6.068199 -0.486630 0
M  V30 24 N -1.674622 -6.874111 -1.304341 0
M  V30 25 C -2.554048 -4.731860 1.333326 0
M  V30 26 N -2.372247 -3.750389 2.256029 0
M  V30 27 C -1.193718 -3.114054 2.364455 0
M  V30 28 C -1.088912 -2.136334 3.324549 0
M  V30 29 C 0.029878 -1.386239 3.582308 0
M  V30 30 O 0.330901 -0.397463 4.460559 0
M  V30 31 C -0.439753 0.225744 5.424635 0
M  V30 32 C -1.635999 0.985508 4.898314 0
M  V30 33 C -1.065527 2.052842 3.962066 0
M  V30 34 N -2.118366 2.853673 3.387058 0
M  V30 35 C -1.615077 3.892047 2.521985 0
M  V30 36 C -1.439649 3.352902 1.120733 0
M  V30 37 O -2.585843 2.788516 0.607636 0
M  V30 38 C -3.622193 2.735544 1.537537 0
M  V30 39 C -3.186013 2.095128 2.835117 0
M  V30 40 H 3.125538 -1.174208 0.969863 0
M  V30 41 H 3.675800 -2.474672 2.058660 0
M  V30 42 H 4.323472 -0.784711 2.320713 0
M  V30 43 H 1.886312 -2.924696 1.140292 0
M  V30 44 H 1.517655 -5.406435 0.106707 0
M  V30 45 H -0.850257 -2.976822 -1.187986 0
M  V30 46 H -0.702929 -1.822518 -3.425803 0
M  V30 47 H 0.257213 -1.988791 -5.689038 0
M  V30 48 H 1.765369 -2.890049 -5.914383 0
M  V30 49 H 2.049199 -0.537609 -6.240409 0
M  V30 50 H 3.058910 -1.018417 -4.852915 0
M  V30 51 H 0.209514 0.807027 -6.001938 0
M  V30 52 H -0.986260 2.574432 -4.669307 0
M  V30 53 H -0.451916 2.794144 -2.274582 0
M  V30 54 H 1.201700 1.322438 -1.221964 0
M  V30 55 H 2.358066 -0.414256 -2.603986 0
M  V30 56 H 2.939601 -3.948404 -4.201501 0
M  V30 57 H 2.778458 -5.071425 -2.003654 0
M  V30 58 H -3.488456 -5.254745 1.228743 0
M  V30 59 H -1.924423 -1.905428 3.963167 0
M  V30 60 H -0.772981 -0.506559 6.221328 0
M  V30 61 H 0.211122 0.987075 5.932093 0
M  V30 62 H -2.159408 1.469009 5.758266 0
M  V30 63 H -2.350917 0.323634 4.433154 0
M  V30 64 H -0.457882 2.725298 4.594588 0
M  V30 65 H -0.405456 1.596189 3.221749 0
M  V30 66 H -2.306401 4.752890 2.471066 0
M  V30 67 H -0.625954 4.274392 2.853625 0
M  V30 68 H -0.559615 2.672777 1.021539 0
M  V30 69 H -1.197308 4.208904 0.422525 0
M  V30 70 H -3.923128 3.777433 1.759269 0
M  V30 71 H -4.527731 2.254619 1.116847 0
M  V30 72 H -2.957658 1.027237 2.638710 0
M  V30 73 H -4.054839 2.114307 3.522342 0
M  V30 END ATOM
M  V30 BEGIN BOND
M  V30 1 1 1 2
M  V30 2 1 2 3
M  V30 3 2 3 4
M  V30 4 1 4 5
M  V30 5 2 5 6
M  V30 6 1 6 7
M  V30 7 1 7 8
M  V30 8 2 8 9
M  V30 9 1 9 10
M  V30 10 2 10 11
M  V30 11 1 11 12
M  V30 12 1 12 13
M  V30 13 1 13 14
M  V30 14 2 14 15
M  V30 15 1 15 16
M  V30 16 2 16 17
M  V30 17 1 17 18
M  V30 18 2 18 19
M  V30 19 1 11 20
M  V30 20 2 20 21
M  V30 21 1 6 22
M  V30 22 1 22 23
M  V30 23 3 23 24
M  V30 24 2 22 25
M  V30 25 1 25 26
M  V30 26 2 26 27
M  V30 27 1 27 28
M  V30 28 2 28 29
M  V30 29 1 29 30
M  V30 30 1 30 31
M  V30 31 1 31 32
M  V30 32 1 32 33
M  V30 33 1 33 34
M  V30 34 1 34 35
M  V30 35 1 35 36
M  V30 36 1 36 37
M  V30 37 1 37 38
M  V30 38 1 38 39
M  V30 39 1 29 3
M  V30 40 1 39 34
M  V30 41 1 27 5
M  V30 42 1 21 8
M  V30 43 1 19 14
M  V30 44 1 1 40
M  V30 45 1 1 41
M  V30 46 1 1 42
M  V30 47 1 4 43
M  V30 48 1 7 44
M  V30 49 1 9 45
M  V30 50 1 10 46
M  V30 51 1 12 47
M  V30 52 1 12 48
M  V30 53 1 13 49
M  V30 54 1 13 50
M  V30 55 1 15 51
M  V30 56 1 16 52
M  V30 57 1 17 53
M  V30 58 1 18 54
M  V30 59 1 19 55
M  V30 60 1 20 56
M  V30 61 1 21 57
M  V30 62 1 25 58
M  V30 63 1 28 59
M  V30 64 1 31 60
M  V30 65 1 31 61
M  V30 66 1 32 62
M  V30 67 1 32 63
M  V30 68 1 33 64
M  V30 69 1 33 65
M  V30 70 1 35 66
M  V30 71 1 35 67
M  V30 72 1 36 68
M  V30 73 1 36 69
M  V30 74 1 38 70
M  V30 75 1 38 71
M  V30 76 1 39 72
M  V30 77 1 39 73
M  V30 END BOND
M  V30 END CTAB
M  END
>  <Dataset>  (363) 
ChEMBL_Kinases

>  <Ligand_Instance>  (363) 
nan

>  <PDB_ID>  (363) 
nan

>  <Standardized_SMILES>  (363) 
COc1cc2c(Nc3ccc(CCc4ccccc4)cc3)c(C#N)cnc2cc1OCCCN1CCOCC1

>  <Name>  (363) 
nan

>  <Pocket>  (363) 
nan

>  <ATP_Site>  (363) 
nan

>  <Peripheral>  (363) 
nan

>  <Num_H_Atoms_ProtBoundConf>  (363) 
nan

>  <Num_Resolved_Atoms>  (363) 
nan

>  <Num_Not_Resolved_Atoms>  (363) 
nan

$$$$
CHEMBL305107
     RDKit          3D

  0  0  0  0  0  0  0  0  0  0999 V3000
M  V30 BEGIN CTAB
M  V30 COUNTS 17 18 0 0 0
M  V30 BEGIN ATOM
M  V30 1 C -0.383323 1.153337 2.968112 0
M  V30 2 O 0.657895 0.190153 3.014638 0
M  V30 3 C 1.309446 -0.128570 1.830619 0
M  V30 4 N 2.285882 -1.037809 1.899621 0
M  V30 5 C 2.961444 -1.398114 0.799428 0
M  V30 6 N 2.705926 -0.881211 -0.410160 0
M  V30 7 C 1.748505 0.041987 -0.613090 0
M  V30 8 N 1.192572 0.781496 -1.599872 0
M  V30 9 C 0.203144 1.565013 -1.081181 0
M  V30 10 N 0.112836 1.335566 0.251635 0
M  V30 11 C 1.025982 0.419561 0.596822 0
M  V30 12 H -1.225411 0.749002 2.391133 0
M  V30 13 H -0.047064 2.111580 2.495893 0
M  V30 14 H -0.754756 1.385914 3.986800 0
M  V30 15 H 2.548597 -1.489751 2.803526 0
M  V30 16 H 3.750595 -2.130100 0.843141 0
M  V30 17 H -0.375320 2.239001 -1.700039 0
M  V30 END ATOM
M  V30 BEGIN BOND
M  V30 1 1 1 2
M  V30 2 1 2 3
M  V30 3 1 3 4
M  V30 4 1 4 5
M  V30 5 2 5 6
M  V30 6 1 6 7
M  V30 7 2 7 8
M  V30 8 1 8 9
M  V30 9 2 9 10
M  V30 10 1 10 11
M  V30 11 2 11 3
M  V30 12 1 11 7
M  V30 13 1 1 12
M  V30 14 1 1 13
M  V30 15 1 1 14
M  V30 16 1 4 15
M  V30 17 1 5 16
M  V30 18 1 9 17
M  V30 END BOND
M  V30 END CTAB
M  END
>  <Dataset>  (364) 
ChEMBL_Kinases

>  <Ligand_Instance>  (364) 
nan

>  <PDB_ID>  (364) 
nan

>  <Standardized_SMILES>  (364) 
COc1[nH]cnc2ncnc1-2

>  <Name>  (364) 
nan

>  <Pocket>  (364) 
nan

>  <ATP_Site>  (364) 
nan

>  <Peripheral>  (364) 
nan

>  <Num_H_Atoms_ProtBoundConf>  (364) 
nan

>  <Num_Resolved_Atoms>  (364) 
nan

>  <Num_Not_Resolved_Atoms>  (364) 
nan

$$$$
CHEMBL304929
     RDKit          3D

  0  0  0  0  0  0  0  0  0  0999 V3000
M  V30 BEGIN CTAB
M  V30 COUNTS 38 40 0 0 0
M  V30 BEGIN ATOM
M  V30 1 C 0.887289 -4.202104 5.219304 0
M  V30 2 C 1.026496 -3.972224 4.047415 0
M  V30 3 C 1.192880 -3.687508 2.654638 0
M  V30 4 C 0.794191 -4.565956 1.674501 0
M  V30 5 C 0.887032 -4.434118 0.306848 0
M  V30 6 C 1.469602 -3.234496 -0.107941 0
M  V30 7 C 1.909466 -2.272989 0.796939 0
M  V30 8 N 2.488399 -1.065762 0.340241 0
M  V30 9 C 2.253403 0.272287 -0.052479 0
M  V30 10 N 3.354117 0.986653 -0.421986 0
M  V30 11 C 3.176060 2.258818 -0.801244 0
M  V30 12 N 1.955041 2.805290 -0.814936 0
M  V30 13 C 0.828308 2.169057 -0.466750 0
M  V30 14 C -0.412866 2.770008 -0.494996 0
M  V30 15 C -1.511980 2.027051 -0.116586 0
M  V30 16 O -2.767419 2.570487 -0.124774 0
M  V30 17 C -3.075354 3.883907 -0.500212 0
M  V30 18 C -1.347745 0.715546 0.276921 0
M  V30 19 O -2.473538 -0.005983 0.652018 0
M  V30 20 C -2.277978 -1.350201 1.051766 0
M  V30 21 C -0.099732 0.144662 0.294763 0
M  V30 22 C 1.010551 0.861472 -0.076834 0
M  V30 23 C 1.768018 -2.506601 2.170271 0
M  V30 24 H 0.771937 -4.414263 6.259334 0
M  V30 25 H 0.345135 -5.488421 2.034387 0
M  V30 26 H 0.532197 -5.206620 -0.358210 0
M  V30 27 H 1.576275 -3.059841 -1.167450 0
M  V30 28 H 3.451943 -1.467788 0.342597 0
M  V30 29 H 4.062750 2.810454 -1.091359 0
M  V30 30 H -0.502798 3.798301 -0.808596 0
M  V30 31 H -4.047038 4.214094 -0.123012 0
M  V30 32 H -2.960641 4.089144 -1.573994 0
M  V30 33 H -2.315701 4.532568 0.024466 0
M  V30 34 H -1.591890 -1.368171 1.931566 0
M  V30 35 H -1.737122 -1.932544 0.268488 0
M  V30 36 H -3.211848 -1.853533 1.326849 0
M  V30 37 H -0.032909 -0.863198 0.605004 0
M  V30 38 H 2.100186 -1.778612 2.905221 0
M  V30 END ATOM
M  V30 BEGIN BOND
M  V30 1 3 1 2
M  V30 2 1 2 3
M  V30 3 2 3 4
M  V30 4 1 4 5
M  V30 5 2 5 6
M  V30 6 1 6 7
M  V30 7 1 7 8
M  V30 8 1 8 9
M  V30 9 2 9 10
M  V30 10 1 10 11
M  V30 11 2 11 12
M  V30 12 1 12 13
M  V30 13 2 13 14
M  V30 14 1 14 15
M  V30 15 1 15 16
M  V30 16 1 16 17
M  V30 17 2 15 18
M  V30 18 1 18 19
M  V30 19 1 19 20
M  V30 20 1 18 21
M  V30 21 2 21 22
M  V30 22 2 7 23
M  V30 23 1 23 3
M  V30 24 1 22 9
M  V30 25 1 22 13
M  V30 26 1 1 24
M  V30 27 1 4 25
M  V30 28 1 5 26
M  V30 29 1 6 27
M  V30 30 1 8 28
M  V30 31 1 11 29
M  V30 32 1 14 30
M  V30 33 1 17 31
M  V30 34 1 17 32
M  V30 35 1 17 33
M  V30 36 1 20 34
M  V30 37 1 20 35
M  V30 38 1 20 36
M  V30 39 1 21 37
M  V30 40 1 23 38
M  V30 END BOND
M  V30 END CTAB
M  END
>  <Dataset>  (365) 
ChEMBL_Kinases

>  <Ligand_Instance>  (365) 
nan

>  <PDB_ID>  (365) 
nan

>  <Standardized_SMILES>  (365) 
C#Cc1cccc(Nc2ncnc3cc(OC)c(OC)cc23)c1

>  <Name>  (365) 
nan

>  <Pocket>  (365) 
nan

>  <ATP_Site>  (365) 
nan

>  <Peripheral>  (365) 
nan

>  <Num_H_Atoms_ProtBoundConf>  (365) 
nan

>  <Num_Resolved_Atoms>  (365) 
nan

>  <Num_Not_Resolved_Atoms>  (365) 
nan

$$$$
CHEMBL304533
     RDKit          3D

  0  0  0  0  0  0  0  0  0  0999 V3000
M  V30 BEGIN CTAB
M  V30 COUNTS 59 63 0 0 0
M  V30 BEGIN ATOM
M  V30 1 C 6.938884 -2.471677 3.904868 0
M  V30 2 N 6.177489 -3.132523 2.872992 0
M  V30 3 C 5.332546 -4.176442 3.413424 0
M  V30 4 C 5.359834 -2.187479 2.092255 0
M  V30 5 C 4.294827 -1.683121 2.979348 0
M  V30 6 N 3.356307 -0.751783 2.462916 0
M  V30 7 C 3.578234 0.540742 1.927124 0
M  V30 8 O 4.761524 0.963926 1.894988 0
M  V30 9 C 2.501839 1.389760 1.419476 0
M  V30 10 C 2.738299 2.725739 1.106275 0
M  V30 11 C 1.725023 3.555259 0.605395 0
M  V30 12 C 0.443692 3.061983 0.405659 0
M  V30 13 C -0.671972 3.841075 -0.119809 0
M  V30 14 N -1.787984 3.249166 -0.251318 0
M  V30 15 N -2.990521 3.720038 -0.713605 0
M  V30 16 C -3.808306 2.576071 -0.371856 0
M  V30 17 N -4.765459 2.610546 0.570689 0
M  V30 18 C -5.491062 1.486822 0.862633 0
M  V30 19 N -5.295332 0.291587 0.234355 0
M  V30 20 C -4.361844 0.177306 -0.714340 0
M  V30 21 C -3.644294 1.328154 -0.989583 0
M  V30 22 C -2.712853 1.064291 -1.984388 0
M  V30 23 N -2.908686 -0.233426 -2.265280 0
M  V30 24 N -3.863489 -0.763883 -1.535228 0
M  V30 25 C -4.301524 -2.115857 -1.580464 0
M  V30 26 C -5.372129 -2.598419 -0.867174 0
M  V30 27 C -5.739869 -3.923034 -0.947451 0
M  V30 28 C -5.068693 -4.849260 -1.739382 0
M  V30 29 C -3.991059 -4.332492 -2.448236 0
M  V30 30 N -3.142089 -4.962970 -3.298354 0
M  V30 31 C -2.238911 -4.077714 -3.766392 0
M  V30 32 N -2.521975 -2.886127 -3.207246 0
M  V30 33 C -3.600846 -3.003985 -2.384941 0
M  V30 34 C 0.284264 1.738025 0.736089 0
M  V30 35 C 1.237701 0.880443 1.228990 0
M  V30 36 H 7.039592 -1.377299 3.760277 0
M  V30 37 H 6.615800 -2.712339 4.934792 0
M  V30 38 H 7.990367 -2.878261 3.841068 0
M  V30 39 H 4.963255 -3.966990 4.425834 0
M  V30 40 H 4.502221 -4.344001 2.684446 0
M  V30 41 H 5.896274 -5.139688 3.404872 0
M  V30 42 H 6.080439 -1.424109 1.756435 0
M  V30 43 H 4.940403 -2.786082 1.264991 0
M  V30 44 H 3.727302 -2.563760 3.385354 0
M  V30 45 H 4.815536 -1.286637 3.908817 0
M  V30 46 H 2.338386 -1.031396 2.465170 0
M  V30 47 H 3.726014 3.157560 1.249106 0
M  V30 48 H 1.913949 4.594570 0.365317 0
M  V30 49 H -0.621902 4.871530 -0.398237 0
M  V30 50 H -3.455267 4.533317 -1.173195 0
M  V30 51 H -6.248952 1.607351 1.635739 0
M  V30 52 H -1.963118 1.615574 -2.510885 0
M  V30 53 H -5.937571 -1.936558 -0.234041 0
M  V30 54 H -6.586024 -4.302372 -0.384275 0
M  V30 55 H -5.286402 -5.898416 -1.859250 0
M  V30 56 H -3.064296 -5.947944 -3.635144 0
M  V30 57 H -1.386112 -4.027827 -4.428199 0
M  V30 58 H -0.723150 1.311978 0.586124 0
M  V30 59 H 0.940556 -0.133882 1.432004 0
M  V30 END ATOM
M  V30 BEGIN BOND
M  V30 1 1 1 2
M  V30 2 1 2 3
M  V30 3 1 2 4
M  V30 4 1 4 5
M  V30 5 1 5 6
M  V30 6 1 6 7
M  V30 7 2 7 8
M  V30 8 1 7 9
M  V30 9 2 9 10
M  V30 10 1 10 11
M  V30 11 2 11 12
M  V30 12 1 12 13
M  V30 13 2 13 14
M  V30 14 1 14 15
M  V30 15 1 15 16
M  V30 16 2 16 17
M  V30 17 1 17 18
M  V30 18 2 18 19
M  V30 19 1 19 20
M  V30 20 2 20 21
M  V30 21 1 21 22
M  V30 22 2 22 23
M  V30 23 1 23 24
M  V30 24 1 24 25
M  V30 25 2 25 26
M  V30 26 1 26 27
M  V30 27 2 27 28
M  V30 28 1 28 29
M  V30 29 1 29 30
M  V30 30 1 30 31
M  V30 31 2 31 32
M  V30 32 1 32 33
M  V30 33 1 12 34
M  V30 34 2 34 35
M  V30 35 1 35 9
M  V30 36 1 21 16
M  V30 37 1 33 25
M  V30 38 1 24 20
M  V30 39 2 33 29
M  V30 40 1 1 36
M  V30 41 1 1 37
M  V30 42 1 1 38
M  V30 43 1 3 39
M  V30 44 1 3 40
M  V30 45 1 3 41
M  V30 46 1 4 42
M  V30 47 1 4 43
M  V30 48 1 5 44
M  V30 49 1 5 45
M  V30 50 1 6 46
M  V30 51 1 10 47
M  V30 52 1 11 48
M  V30 53 1 13 49
M  V30 54 1 15 50
M  V30 55 1 18 51
M  V30 56 1 22 52
M  V30 57 1 26 53
M  V30 58 1 27 54
M  V30 59 1 28 55
M  V30 60 1 30 56
M  V30 61 1 31 57
M  V30 62 1 34 58
M  V30 63 1 35 59
M  V30 END BOND
M  V30 END CTAB
M  END
>  <Dataset>  (366) 
ChEMBL_Kinases

>  <Ligand_Instance>  (366) 
nan

>  <PDB_ID>  (366) 
nan

>  <Standardized_SMILES>  (366) 
CN(C)CCNC(=O)c1ccc(/C=N/Nc2ncnc3c2cnn3-c2cccc3[nH]cnc23)cc1

>  <Name>  (366) 
PYRAZOLOPYRIMIDINE 1

>  <Pocket>  (366) 
nan

>  <ATP_Site>  (366) 
nan

>  <Peripheral>  (366) 
nan

>  <Num_H_Atoms_ProtBoundConf>  (366) 
nan

>  <Num_Resolved_Atoms>  (366) 
nan

>  <Num_Not_Resolved_Atoms>  (366) 
nan

$$$$
CHEMBL30432
     RDKit          3D

  0  0  0  0  0  0  0  0  0  0999 V3000
M  V30 BEGIN CTAB
M  V30 COUNTS 51 55 0 0 0
M  V30 BEGIN ATOM
M  V30 1 C -2.114976 -3.970524 2.019752 0
M  V30 2 N -0.721662 -3.668394 2.301331 0
M  V30 3 C -0.358444 -2.698371 3.326429 0
M  V30 4 C 0.507919 -4.133960 1.777661 0
M  V30 5 C 1.047562 -3.495923 0.657756 0
M  V30 6 C 2.267976 -3.853200 0.065278 0
M  V30 7 C 2.721855 -3.144341 -1.047843 0
M  V30 8 N 1.972888 -2.080893 -1.611825 0
M  V30 9 C 1.561417 -0.795481 -1.101755 0
M  V30 10 C 0.664055 -0.109863 -1.927000 0
M  V30 11 C 0.235394 1.116109 -1.457521 0
M  V30 12 C 0.648487 1.656453 -0.256284 0
M  V30 13 C 1.532549 0.896080 0.472031 0
M  V30 14 C 1.773896 1.667301 1.614289 0
M  V30 15 N 1.047472 2.823349 1.529024 0
M  V30 16 N 0.356887 2.807338 0.372324 0
M  V30 17 C -0.545337 3.861271 -0.074402 0
M  V30 18 C -1.917350 3.631649 0.445422 0
M  V30 19 C -2.847681 2.840405 -0.194237 0
M  V30 20 C -4.143323 2.562586 0.213407 0
M  V30 21 C -4.530447 3.157916 1.404623 0
M  V30 22 C -3.677439 3.960813 2.114300 0
M  V30 23 C -2.388357 4.192129 1.637231 0
M  V30 24 C 2.033308 -0.339496 0.114507 0
M  V30 25 N 3.928175 -3.588537 -1.522556 0
M  V30 26 C 4.581612 -4.613645 -0.943040 0
M  V30 27 N 4.118159 -5.277248 0.128456 0
M  V30 28 C 2.943685 -4.903663 0.653588 0
M  V30 29 C 2.404613 -5.529276 1.758201 0
M  V30 30 N 1.218006 -5.156640 2.308419 0
M  V30 31 H -2.279970 -5.031508 1.718825 0
M  V30 32 H -2.458168 -3.352268 1.140660 0
M  V30 33 H -2.759014 -3.685604 2.867172 0
M  V30 34 H 0.177933 -3.157260 4.178830 0
M  V30 35 H -1.267926 -2.227064 3.765620 0
M  V30 36 H 0.228081 -1.888440 2.875383 0
M  V30 37 H 0.445456 -2.693644 0.259569 0
M  V30 38 H 1.731581 -2.407200 -2.571302 0
M  V30 39 H 0.315730 -0.473097 -2.862033 0
M  V30 40 H -0.456017 1.689802 -2.048306 0
M  V30 41 H 2.433099 1.376890 2.424187 0
M  V30 42 H -0.605727 3.757984 -1.183422 0
M  V30 43 H -0.177641 4.833523 0.252510 0
M  V30 44 H -2.551533 2.371641 -1.126762 0
M  V30 45 H -4.796192 1.935225 -0.346822 0
M  V30 46 H -5.543205 2.954927 1.746775 0
M  V30 47 H -3.986982 4.432473 3.059260 0
M  V30 48 H -1.692212 4.827318 2.188564 0
M  V30 49 H 2.722751 -0.902238 0.711557 0
M  V30 50 H 5.534528 -4.950844 -1.333522 0
M  V30 51 H 2.912235 -6.351268 2.230352 0
M  V30 END ATOM
M  V30 BEGIN BOND
M  V30 1 1 1 2
M  V30 2 1 2 3
M  V30 3 1 2 4
M  V30 4 2 4 5
M  V30 5 1 5 6
M  V30 6 2 6 7
M  V30 7 1 7 8
M  V30 8 1 8 9
M  V30 9 2 9 10
M  V30 10 1 10 11
M  V30 11 2 11 12
M  V30 12 1 12 13
M  V30 13 1 13 14
M  V30 14 2 14 15
M  V30 15 1 15 16
M  V30 16 1 16 17
M  V30 17 1 17 18
M  V30 18 2 18 19
M  V30 19 1 19 20
M  V30 20 2 20 21
M  V30 21 1 21 22
M  V30 22 2 22 23
M  V30 23 2 13 24
M  V30 24 1 7 25
M  V30 25 2 25 26
M  V30 26 1 26 27
M  V30 27 2 27 28
M  V30 28 1 28 29
M  V30 29 2 29 30
M  V30 30 1 30 4
M  V30 31 1 28 6
M  V30 32 1 24 9
M  V30 33 1 16 12
M  V30 34 1 23 18
M  V30 35 1 1 31
M  V30 36 1 1 32
M  V30 37 1 1 33
M  V30 38 1 3 34
M  V30 39 1 3 35
M  V30 40 1 3 36
M  V30 41 1 5 37
M  V30 42 1 8 38
M  V30 43 1 10 39
M  V30 44 1 11 40
M  V30 45 1 14 41
M  V30 46 1 17 42
M  V30 47 1 17 43
M  V30 48 1 19 44
M  V30 49 1 20 45
M  V30 50 1 21 46
M  V30 51 1 22 47
M  V30 52 1 23 48
M  V30 53 1 24 49
M  V30 54 1 26 50
M  V30 55 1 29 51
M  V30 END BOND
M  V30 END CTAB
M  END
>  <Dataset>  (367) 
ChEMBL_Kinases

>  <Ligand_Instance>  (367) 
nan

>  <PDB_ID>  (367) 
nan

>  <Standardized_SMILES>  (367) 
CN(C)c1cc2c(Nc3ccc4c(cnn4Cc4ccccc4)c3)ncnc2cn1

>  <Name>  (367) 
GW282974X

>  <Pocket>  (367) 
nan

>  <ATP_Site>  (367) 
nan

>  <Peripheral>  (367) 
nan

>  <Num_H_Atoms_ProtBoundConf>  (367) 
nan

>  <Num_Resolved_Atoms>  (367) 
nan

>  <Num_Not_Resolved_Atoms>  (367) 
nan

$$$$
CHEMBL3040018
     RDKit          3D

  0  0  0  0  0  0  0  0  0  0999 V3000
M  V30 BEGIN CTAB
M  V30 COUNTS 65 69 0 0 0
M  V30 BEGIN ATOM
M  V30 1 C 5.314099 -1.757899 5.031262 0
M  V30 2 C 4.626475 -1.942080 3.734087 0
M  V30 3 C 5.373697 -1.990680 2.578098 0
M  V30 4 C 4.724789 -2.163727 1.353358 0
M  V30 5 C 3.357256 -2.279701 1.347531 0
M  V30 6 N 2.521916 -2.452728 0.190383 0
M  V30 7 C 2.146612 -1.152747 -0.254296 0
M  V30 8 O 2.622937 -0.209520 0.452351 0
M  V30 9 C 1.301946 -0.821890 -1.396674 0
M  V30 10 C 1.064028 0.521421 -1.592944 0
M  V30 11 C 0.262924 0.923821 -2.665177 0
M  V30 12 C -0.276594 -0.017642 -3.508070 0
M  V30 13 C -1.122435 0.455835 -4.630543 0
M  V30 14 N -2.522157 0.543917 -4.227639 0
M  V30 15 C -3.374108 1.004895 -5.303597 0
M  V30 16 C -4.721371 1.294641 -4.718117 0
M  V30 17 N -5.176040 0.354078 -3.756703 0
M  V30 18 C -4.462896 -0.880925 -3.681746 0
M  V30 19 C -2.980978 -0.757542 -3.827696 0
M  V30 20 C -0.011787 -1.353786 -3.274405 0
M  V30 21 C 0.785266 -1.797213 -2.211906 0
M  V30 22 C 2.624397 -2.227056 2.535415 0
M  V30 23 C 3.253587 -2.054830 3.766043 0
M  V30 24 N 2.495577 -1.993030 4.969167 0
M  V30 25 C 1.080592 -2.125099 4.901906 0
M  V30 26 N 0.302201 -3.216221 5.061425 0
M  V30 27 C -1.052661 -3.126034 4.944075 0
M  V30 28 C -1.619091 -1.894173 4.657891 0
M  V30 29 C -0.830347 -0.766857 4.491754 0
M  V30 30 C -1.424969 0.529545 4.185246 0
M  V30 31 C -2.751745 0.780161 4.037396 0
M  V30 32 C -3.137275 2.086375 3.741162 0
M  V30 33 C -2.223155 3.135222 3.592132 0
M  V30 34 N -0.931118 2.852520 3.744024 0
M  V30 35 C -0.541991 1.601563 4.029229 0
M  V30 36 N 0.514270 -0.937960 4.624631 0
M  V30 37 H 5.021769 -0.733239 5.397719 0
M  V30 38 H 4.962177 -2.461933 5.816920 0
M  V30 39 H 6.411568 -1.739034 4.946282 0
M  V30 40 H 6.456318 -1.900215 2.566968 0
M  V30 41 H 5.209898 -2.213263 0.409623 0
M  V30 42 H 2.137018 -3.250411 -0.382367 0
M  V30 43 H 1.455570 1.327806 -0.968366 0
M  V30 44 H 0.072522 1.956629 -2.825207 0
M  V30 45 H -0.979053 -0.138915 -5.552377 0
M  V30 46 H -0.810285 1.506117 -4.900092 0
M  V30 47 H -2.974295 1.928678 -5.762664 0
M  V30 48 H -3.530280 0.183286 -6.055585 0
M  V30 49 H -4.760618 2.363745 -4.357006 0
M  V30 50 H -5.446499 1.292727 -5.582418 0
M  V30 51 H -5.589338 0.709021 -2.892955 0
M  V30 52 H -4.659345 -1.285544 -2.650661 0
M  V30 53 H -4.919263 -1.636391 -4.355448 0
M  V30 54 H -2.430332 -1.113742 -2.913464 0
M  V30 55 H -2.658851 -1.457168 -4.635670 0
M  V30 56 H -0.447681 -2.084885 -3.953614 0
M  V30 57 H 0.984637 -2.847581 -2.040165 0
M  V30 58 H 1.537951 -2.314643 2.581497 0
M  V30 59 H 2.992492 -1.853351 5.867847 0
M  V30 60 H -1.590611 -4.050439 5.089183 0
M  V30 61 H -2.696309 -1.863015 4.573615 0
M  V30 62 H -3.438487 -0.019308 4.151711 0
M  V30 63 H -4.184861 2.280428 3.623871 0
M  V30 64 H -2.556741 4.136774 3.361720 0
M  V30 65 H 0.538020 1.505402 4.126844 0
M  V30 END ATOM
M  V30 BEGIN BOND
M  V30 1 1 1 2
M  V30 2 2 2 3
M  V30 3 1 3 4
M  V30 4 2 4 5
M  V30 5 1 5 6
M  V30 6 1 6 7
M  V30 7 2 7 8
M  V30 8 1 7 9
M  V30 9 2 9 10
M  V30 10 1 10 11
M  V30 11 2 11 12
M  V30 12 1 12 13
M  V30 13 1 13 14
M  V30 14 1 14 15
M  V30 15 1 15 16
M  V30 16 1 16 17
M  V30 17 1 17 18
M  V30 18 1 18 19
M  V30 19 1 12 20
M  V30 20 2 20 21
M  V30 21 1 5 22
M  V30 22 2 22 23
M  V30 23 1 23 24
M  V30 24 1 24 25
M  V30 25 2 25 26
M  V30 26 1 26 27
M  V30 27 2 27 28
M  V30 28 1 28 29
M  V30 29 1 29 30
M  V30 30 2 30 31
M  V30 31 1 31 32
M  V30 32 2 32 33
M  V30 33 1 33 34
M  V30 34 2 34 35
M  V30 35 2 29 36
M  V30 36 1 23 2
M  V30 37 1 36 25
M  V30 38 1 21 9
M  V30 39 1 35 30
M  V30 40 1 19 14
M  V30 41 1 1 37
M  V30 42 1 1 38
M  V30 43 1 1 39
M  V30 44 1 3 40
M  V30 45 1 4 41
M  V30 46 1 6 42
M  V30 47 1 10 43
M  V30 48 1 11 44
M  V30 49 1 13 45
M  V30 50 1 13 46
M  V30 51 1 15 47
M  V30 52 1 15 48
M  V30 53 1 16 49
M  V30 54 1 16 50
M  V30 55 1 17 51
M  V30 56 1 18 52
M  V30 57 1 18 53
M  V30 58 1 19 54
M  V30 59 1 19 55
M  V30 60 1 20 56
M  V30 61 1 21 57
M  V30 62 1 22 58
M  V30 63 1 24 59
M  V30 64 1 27 60
M  V30 65 1 28 61
M  V30 66 1 31 62
M  V30 67 1 32 63
M  V30 68 1 33 64
M  V30 69 1 35 65
M  V30 END BOND
M  V30 END CTAB
M  END
>  <Dataset>  (368) 
ChEMBL_Kinases

>  <Ligand_Instance>  (368) 
nan

>  <PDB_ID>  (368) 
nan

>  <Standardized_SMILES>  (368) 
Cc1ccc(NC(=O)c2ccc(CN3CCNCC3)cc2)cc1Nc1nccc(-c2cccnc2)n1

>  <Name>  (368) 
nan

>  <Pocket>  (368) 
nan

>  <ATP_Site>  (368) 
nan

>  <Peripheral>  (368) 
nan

>  <Num_H_Atoms_ProtBoundConf>  (368) 
nan

>  <Num_Resolved_Atoms>  (368) 
nan

>  <Num_Not_Resolved_Atoms>  (368) 
nan

$$$$
CHEMBL303990
     RDKit          3D

  0  0  0  0  0  0  0  0  0  0999 V3000
M  V30 BEGIN CTAB
M  V30 COUNTS 46 51 0 0 0
M  V30 BEGIN ATOM
M  V30 1 C 0.363961 -1.850847 3.612610 0
M  V30 2 N 0.984060 -1.673637 2.332997 0
M  V30 3 C 2.192778 -2.272943 2.114784 0
M  V30 4 C 3.001623 -3.043485 2.973877 0
M  V30 5 C 4.210018 -3.602497 2.651115 0
M  V30 6 C 4.630275 -3.363071 1.362338 0
M  V30 7 C 3.852735 -2.614582 0.516085 0
M  V30 8 C 2.646821 -2.055637 0.835465 0
M  V30 9 C 1.688519 -1.301268 0.254631 0
M  V30 10 C 1.638623 -0.819594 -1.025450 0
M  V30 11 C 0.546835 -0.079455 -1.416170 0
M  V30 12 C -0.448056 0.134154 -0.468326 0
M  V30 13 C -1.619611 0.843134 -0.614968 0
M  V30 14 C -2.161512 1.511276 -1.661340 0
M  V30 15 C -3.370859 2.138093 -1.525055 0
M  V30 16 C -4.037749 2.090727 -0.326261 0
M  V30 17 C -3.439564 1.402052 0.688914 0
M  V30 18 C -2.208185 0.738684 0.622690 0
M  V30 19 N -1.468414 0.012620 1.512495 0
M  V30 20 C -1.982379 -0.117568 2.831339 0
M  V30 21 C -1.521714 1.056730 3.687562 0
M  V30 22 F -2.002520 0.937310 4.974634 0
M  V30 23 F -2.109042 2.255099 3.231619 0
M  V30 24 C -0.398435 -0.351364 0.831051 0
M  V30 25 C 0.694446 -1.086031 1.191441 0
M  V30 26 C 0.649205 0.372504 -2.849148 0
M  V30 27 N 1.915115 -0.168607 -3.297175 0
M  V30 28 C 2.460941 -0.860202 -2.192212 0
M  V30 29 O 3.556924 -1.378230 -2.435382 0
M  V30 30 H 0.951864 -2.540999 4.280396 0
M  V30 31 H 0.200768 -0.997319 4.234169 0
M  V30 32 H -0.524647 -2.529235 3.399366 0
M  V30 33 H 2.743957 -3.281917 4.017477 0
M  V30 34 H 4.817871 -4.190647 3.321175 0
M  V30 35 H 5.582084 -3.785123 1.057899 0
M  V30 36 H 4.291117 -2.506109 -0.443780 0
M  V30 37 H -1.699791 1.588415 -2.619731 0
M  V30 38 H -3.802941 2.670206 -2.357876 0
M  V30 39 H -4.989779 2.590404 -0.236829 0
M  V30 40 H -4.030657 1.407864 1.597395 0
M  V30 41 H -3.127670 0.094218 2.789613 0
M  V30 42 H -2.034969 -1.073588 3.316409 0
M  V30 43 H -0.425933 1.154679 3.689886 0
M  V30 44 H 0.662969 1.481706 -2.823199 0
M  V30 45 H -0.165750 -0.018799 -3.464135 0
M  V30 46 H 2.174961 0.036406 -4.284497 0
M  V30 END ATOM
M  V30 BEGIN BOND
M  V30 1 1 1 2
M  V30 2 1 2 3
M  V30 3 2 3 4
M  V30 4 1 4 5
M  V30 5 2 5 6
M  V30 6 1 6 7
M  V30 7 2 7 8
M  V30 8 1 8 9
M  V30 9 2 9 10
M  V30 10 1 10 11
M  V30 11 2 11 12
M  V30 12 1 12 13
M  V30 13 2 13 14
M  V30 14 1 14 15
M  V30 15 2 15 16
M  V30 16 1 16 17
M  V30 17 2 17 18
M  V30 18 1 18 19
M  V30 19 1 19 20
M  V30 20 1 20 21
M  V30 21 1 21 22
M  V30 22 1 21 23
M  V30 23 1 19 24
M  V30 24 2 24 25
M  V30 25 1 11 26
M  V30 26 1 26 27
M  V30 27 1 27 28
M  V30 28 2 28 29
M  V30 29 1 25 2
M  V30 30 1 8 3
M  V30 31 1 25 9
M  V30 32 1 28 10
M  V30 33 1 24 12
M  V30 34 1 18 13
M  V30 35 1 1 30
M  V30 36 1 1 31
M  V30 37 1 1 32
M  V30 38 1 4 33
M  V30 39 1 5 34
M  V30 40 1 6 35
M  V30 41 1 7 36
M  V30 42 1 14 37
M  V30 43 1 15 38
M  V30 44 1 16 39
M  V30 45 1 17 40
M  V30 46 1 20 41
M  V30 47 1 20 42
M  V30 48 1 21 43
M  V30 49 1 26 44
M  V30 50 1 26 45
M  V30 51 1 27 46
M  V30 END BOND
M  V30 END CTAB
M  END
>  <Dataset>  (369) 
ChEMBL_Kinases

>  <Ligand_Instance>  (369) 
nan

>  <PDB_ID>  (369) 
nan

>  <Standardized_SMILES>  (369) 
Cn1c2ccccc2c2c3c(c4c5ccccc5n(CC(F)F)c4c21)CNC3=O

>  <Name>  (369) 
nan

>  <Pocket>  (369) 
nan

>  <ATP_Site>  (369) 
nan

>  <Peripheral>  (369) 
nan

>  <Num_H_Atoms_ProtBoundConf>  (369) 
nan

>  <Num_Resolved_Atoms>  (369) 
nan

>  <Num_Not_Resolved_Atoms>  (369) 
nan

$$$$
CHEMBL3039517
     RDKit          3D

  0  0  0  0  0  0  0  0  0  0999 V3000
M  V30 BEGIN CTAB
M  V30 COUNTS 49 51 0 0 0
M  V30 BEGIN ATOM
M  V30 1 C 1.954966 -6.808202 -1.801839 0
M  V30 2 C 1.805019 -5.317621 -1.889609 0
M  V30 3 C 0.520972 -4.760439 -1.929785 0
M  V30 4 N 0.426801 -3.420219 -2.008510 0
M  V30 5 C 1.499290 -2.605756 -2.049605 0
M  V30 6 N 1.395007 -1.179698 -2.133237 0
M  V30 7 C 1.342654 -0.472109 -0.922866 0
M  V30 8 O 1.384048 -1.041021 0.221098 0
M  V30 9 N 1.237067 0.964919 -0.831172 0
M  V30 10 C 1.189915 1.600536 0.467865 0
M  V30 11 C 2.450169 1.943594 0.976304 0
M  V30 12 C 2.410350 2.550045 2.215173 0
M  V30 13 Br 4.065737 3.053310 2.989914 0
M  V30 14 C 1.270297 2.823917 2.942897 0
M  V30 15 C 1.326319 3.483813 4.276550 0
M  V30 16 C 0.072401 2.452419 2.367137 0
M  V30 17 C -0.020733 1.838652 1.133389 0
M  V30 18 O -1.070478 1.460780 0.522368 0
M  V30 19 C -2.166545 1.082878 -0.081744 0
M  V30 20 C -2.883705 0.051534 0.818675 0 CFG=2
M  V30 21 C -3.189702 0.781158 2.106411 0
M  V30 22 N -2.546537 0.087727 3.200069 0
M  V30 23 C -2.908947 -1.324375 3.142680 0
M  V30 24 C -2.361576 -1.945514 1.895580 0
M  V30 25 O -1.982061 -0.994825 0.976176 0
M  V30 26 C 2.758533 -3.168719 -2.009247 0
M  V30 27 N 2.891749 -4.519748 -1.929652 0
M  V30 28 H 2.975258 -7.045751 -2.191281 0
M  V30 29 H 1.168232 -7.271836 -2.416733 0
M  V30 30 H 1.902878 -7.151438 -0.748064 0
M  V30 31 H -0.388973 -5.378799 -1.899102 0
M  V30 32 H 1.351159 -0.578497 -2.984721 0
M  V30 33 H 1.197575 1.506979 -1.724298 0
M  V30 34 H 3.357063 1.747735 0.442175 0
M  V30 35 H 1.087475 4.551906 4.258314 0
M  V30 36 H 2.317616 3.345144 4.752451 0
M  V30 37 H 0.621557 2.898838 4.928719 0
M  V30 38 H -0.829583 2.660302 2.924837 0
M  V30 39 H -2.080278 0.568499 -1.076582 0
M  V30 40 H -2.956713 1.890483 -0.258924 0
M  V30 41 H -3.824074 -0.279416 0.333292 0
M  V30 42 H -2.917754 1.839359 2.101334 0
M  V30 43 H -4.290058 0.749065 2.280831 0
M  V30 44 H -1.532428 0.149835 3.082541 0
M  V30 45 H -2.453943 -1.811026 4.017580 0
M  V30 46 H -4.010718 -1.453096 3.192855 0
M  V30 47 H -1.442257 -2.523926 2.146779 0
M  V30 48 H -3.145338 -2.622578 1.460787 0
M  V30 49 H 3.615194 -2.516268 -2.042211 0
M  V30 END ATOM
M  V30 BEGIN BOND
M  V30 1 1 1 2
M  V30 2 2 2 3
M  V30 3 1 3 4
M  V30 4 2 4 5
M  V30 5 1 5 6
M  V30 6 1 6 7
M  V30 7 2 7 8
M  V30 8 1 7 9
M  V30 9 1 9 10
M  V30 10 2 10 11
M  V30 11 1 11 12
M  V30 12 1 12 13
M  V30 13 2 12 14
M  V30 14 1 14 15
M  V30 15 1 14 16
M  V30 16 2 16 17
M  V30 17 1 17 18
M  V30 18 1 18 19
M  V30 19 1 19 20
M  V30 20 1 20 21
M  V30 21 1 21 22
M  V30 22 1 22 23
M  V30 23 1 23 24
M  V30 24 1 24 25
M  V30 25 1 5 26
M  V30 26 2 26 27
M  V30 27 1 27 2
M  V30 28 1 17 10
M  V30 29 1 25 20
M  V30 30 1 1 28
M  V30 31 1 1 29
M  V30 32 1 1 30
M  V30 33 1 3 31
M  V30 34 1 6 32
M  V30 35 1 9 33
M  V30 36 1 11 34
M  V30 37 1 15 35
M  V30 38 1 15 36
M  V30 39 1 15 37
M  V30 40 1 16 38
M  V30 41 1 19 39
M  V30 42 1 19 40
M  V30 43 1 20 41 CFG=3
M  V30 44 1 21 42
M  V30 45 1 21 43
M  V30 46 1 22 44
M  V30 47 1 23 45
M  V30 48 1 23 46
M  V30 49 1 24 47
M  V30 50 1 24 48
M  V30 51 1 26 49
M  V30 END BOND
M  V30 END CTAB
M  END
>  <Dataset>  (370) 
ChEMBL_Kinases

>  <Ligand_Instance>  (370) 
nan

>  <PDB_ID>  (370) 
nan

>  <Standardized_SMILES>  (370) 
Cc1cnc(NC(=O)Nc2cc(Br)c(C)cc2OC[C@@H]2CNCCO2)cn1

>  <Name>  (370) 
RABUSERTIB

>  <Pocket>  (370) 
nan

>  <ATP_Site>  (370) 
nan

>  <Peripheral>  (370) 
nan

>  <Num_H_Atoms_ProtBoundConf>  (370) 
nan

>  <Num_Resolved_Atoms>  (370) 
nan

>  <Num_Not_Resolved_Atoms>  (370) 
nan

$$$$
CHEMBL294120
     RDKit          3D

  0  0  0  0  0  0  0  0  0  0999 V3000
M  V30 BEGIN CTAB
M  V30 COUNTS 59 64 0 0 0
M  V30 BEGIN ATOM
M  V30 1 O 4.686497 -0.167613 3.511894 0
M  V30 2 C 4.132780 -0.902640 2.664310 0
M  V30 3 N 4.802424 -2.086354 2.191004 0
M  V30 4 C 3.881451 -2.677692 1.241250 0
M  V30 5 O 4.188780 -3.748603 0.640687 0
M  V30 6 C 2.688358 -1.828542 1.177514 0
M  V30 7 C 2.860081 -0.804755 2.010352 0
M  V30 8 C 1.917893 0.253817 2.174258 0
M  V30 9 C 0.598980 -0.021764 2.020092 0
M  V30 10 N -0.240295 1.077808 2.124111 0
M  V30 11 C 0.588108 2.109561 2.368562 0
M  V30 12 C 0.168070 3.402561 2.544599 0
M  V30 13 C 1.235754 4.280576 2.778440 0
M  V30 14 C 2.566395 3.841662 2.818726 0
M  V30 15 C 2.887509 2.514134 2.628677 0
M  V30 16 C 1.879030 1.611717 2.396775 0
M  V30 17 C -1.462011 0.513290 1.861389 0
M  V30 18 C -2.740234 1.087753 1.423967 0
M  V30 19 C -3.484181 -0.276448 1.080103 0
M  V30 20 O -2.783391 -1.028303 0.195367 0
M  V30 21 C -3.358439 -2.242731 -0.077257 0
M  V30 22 C -3.970416 -2.074729 -1.484927 0
M  V30 23 O -4.889156 -1.031485 -1.355592 0
M  V30 24 C -2.588924 -3.499947 0.030586 0
M  V30 25 C -1.417973 -3.797275 -0.787738 0
M  V30 26 N -0.191759 -3.088033 -0.773627 0
M  V30 27 C 0.444482 -2.986988 0.366359 0
M  V30 28 C 1.642474 -2.261449 0.272244 0
M  V30 29 C 1.627039 -1.954695 -1.073343 0
M  V30 30 C 2.540156 -1.247712 -1.867413 0
M  V30 31 C 2.342752 -1.052927 -3.233734 0
M  V30 32 C 1.217981 -1.563338 -3.849281 0
M  V30 33 C 0.309194 -2.262313 -3.080705 0
M  V30 34 C 0.523718 -2.443955 -1.731296 0
M  V30 35 H 5.757235 -2.444276 2.475320 0
M  V30 36 H 0.323402 -1.027639 1.881906 0
M  V30 37 H -0.881499 3.648116 2.495728 0
M  V30 38 H 0.961677 5.332352 2.927863 0
M  V30 39 H 3.326316 4.600706 3.006846 0
M  V30 40 H 3.889304 2.205194 2.652609 0
M  V30 41 H -1.289975 -0.145248 0.909652 0
M  V30 42 H -1.755598 -0.323835 2.600375 0
M  V30 43 H -2.630203 1.638232 0.468629 0
M  V30 44 H -3.358446 1.601381 2.158869 0
M  V30 45 H -4.477286 0.053879 0.824100 0
M  V30 46 H -3.326503 -0.823035 2.009925 0
M  V30 47 H -4.291326 -2.247543 0.570753 0
M  V30 48 H -3.212063 -1.736040 -2.201522 0
M  V30 49 H -4.546288 -2.958341 -1.792226 0
M  V30 50 H -4.722289 -0.289298 -1.976616 0
M  V30 51 H -3.358162 -4.274076 -0.328986 0
M  V30 52 H -2.523538 -3.898267 1.090561 0
M  V30 53 H -1.075600 -4.883522 -0.683877 0
M  V30 54 H -1.794491 -3.842390 -1.865440 0
M  V30 55 H 0.212062 -3.360379 1.354359 0
M  V30 56 H 3.441454 -0.804435 -1.523724 0
M  V30 57 H 3.032457 -0.511830 -3.865691 0
M  V30 58 H 0.958491 -1.476262 -4.896108 0
M  V30 59 H -0.593388 -2.690967 -3.490110 0
M  V30 END ATOM
M  V30 BEGIN BOND
M  V30 1 2 1 2
M  V30 2 1 2 3
M  V30 3 1 3 4
M  V30 4 2 4 5
M  V30 5 1 4 6
M  V30 6 2 6 7
M  V30 7 1 7 8
M  V30 8 2 8 9
M  V30 9 1 9 10
M  V30 10 1 10 11
M  V30 11 2 11 12
M  V30 12 1 12 13
M  V30 13 2 13 14
M  V30 14 1 14 15
M  V30 15 2 15 16
M  V30 16 1 10 17
M  V30 17 1 17 18
M  V30 18 1 18 19
M  V30 19 1 19 20
M  V30 20 1 20 21
M  V30 21 1 21 22
M  V30 22 1 22 23
M  V30 23 1 21 24
M  V30 24 1 24 25
M  V30 25 1 25 26
M  V30 26 1 26 27
M  V30 27 2 27 28
M  V30 28 1 28 29
M  V30 29 2 29 30
M  V30 30 1 30 31
M  V30 31 2 31 32
M  V30 32 1 32 33
M  V30 33 2 33 34
M  V30 34 1 7 2
M  V30 35 1 16 8
M  V30 36 1 34 26
M  V30 37 1 28 6
M  V30 38 1 34 29
M  V30 39 1 16 11
M  V30 40 1 3 35
M  V30 41 1 9 36
M  V30 42 1 12 37
M  V30 43 1 13 38
M  V30 44 1 14 39
M  V30 45 1 15 40
M  V30 46 1 17 41
M  V30 47 1 17 42
M  V30 48 1 18 43
M  V30 49 1 18 44
M  V30 50 1 19 45
M  V30 51 1 19 46
M  V30 52 1 21 47
M  V30 53 1 22 48
M  V30 54 1 22 49
M  V30 55 1 23 50
M  V30 56 1 24 51
M  V30 57 1 24 52
M  V30 58 1 25 53
M  V30 59 1 25 54
M  V30 60 1 27 55
M  V30 61 1 30 56
M  V30 62 1 31 57
M  V30 63 1 32 58
M  V30 64 1 33 59
M  V30 END BOND
M  V30 END CTAB
M  END
>  <Dataset>  (371) 
ChEMBL_Kinases

>  <Ligand_Instance>  (371) 
nan

>  <PDB_ID>  (371) 
nan

>  <Standardized_SMILES>  (371) 
O=C1NC(=O)C2=C1c1cn(c3ccccc13)CCCOC(CO)CCn1cc2c2ccccc21

>  <Name>  (371) 
nan

>  <Pocket>  (371) 
nan

>  <ATP_Site>  (371) 
nan

>  <Peripheral>  (371) 
nan

>  <Num_H_Atoms_ProtBoundConf>  (371) 
nan

>  <Num_Resolved_Atoms>  (371) 
nan

>  <Num_Not_Resolved_Atoms>  (371) 
nan

$$$$
CHEMBL294878
     RDKit          3D

  0  0  0  0  0  0  0  0  0  0999 V3000
M  V30 BEGIN CTAB
M  V30 COUNTS 29 31 0 0 0
M  V30 BEGIN ATOM
M  V30 1 O -2.972258 -1.745422 2.350405 0
M  V30 2 C -1.868400 -1.234061 2.014515 0
M  V30 3 C -1.250662 -1.637732 0.844491 0
M  V30 4 C -0.045385 -1.098041 0.451183 0
M  V30 5 C 0.656295 -1.480151 -0.769074 0
M  V30 6 C 1.857545 -0.864737 -1.050800 0
M  V30 7 C 2.607697 -1.149986 -2.179995 0
M  V30 8 C 2.136193 -2.101591 -3.080319 0
M  V30 9 O 2.783902 -2.489231 -4.256533 0
M  V30 10 C 0.928017 -2.724110 -2.802033 0
M  V30 11 C 0.201473 -2.419134 -1.667510 0
M  V30 12 O 0.507980 -0.186878 1.215003 0
M  V30 13 C -0.038348 0.229038 2.333636 0
M  V30 14 C 0.547799 1.187741 3.133525 0
M  V30 15 C -0.037520 1.621299 4.314835 0
M  V30 16 O 0.640759 2.599701 5.053962 0
M  V30 17 C -1.244957 1.093437 4.727064 0
M  V30 18 C -1.873525 0.125555 3.954995 0
M  V30 19 C -1.258923 -0.276905 2.789728 0
M  V30 20 H -1.720862 -2.386631 0.231535 0
M  V30 21 H 2.327054 -0.109587 -0.428242 0
M  V30 22 H 3.550680 -0.681527 -2.422013 0
M  V30 23 H 3.718939 -2.138995 -4.456642 0
M  V30 24 H 0.518972 -3.473840 -3.475156 0
M  V30 25 H -0.737545 -2.915955 -1.469704 0
M  V30 26 H 1.493375 1.609466 2.822559 0
M  V30 27 H 0.815558 3.472502 4.571716 0
M  V30 28 H -1.702453 1.432266 5.650327 0
M  V30 29 H -2.818503 -0.308889 4.247235 0
M  V30 END ATOM
M  V30 BEGIN BOND
M  V30 1 2 1 2
M  V30 2 1 2 3
M  V30 3 2 3 4
M  V30 4 1 4 5
M  V30 5 2 5 6
M  V30 6 1 6 7
M  V30 7 2 7 8
M  V30 8 1 8 9
M  V30 9 1 8 10
M  V30 10 2 10 11
M  V30 11 1 4 12
M  V30 12 1 12 13
M  V30 13 2 13 14
M  V30 14 1 14 15
M  V30 15 1 15 16
M  V30 16 2 15 17
M  V30 17 1 17 18
M  V30 18 2 18 19
M  V30 19 1 19 2
M  V30 20 1 11 5
M  V30 21 1 19 13
M  V30 22 1 3 20
M  V30 23 1 6 21
M  V30 24 1 7 22
M  V30 25 1 9 23
M  V30 26 1 10 24
M  V30 27 1 11 25
M  V30 28 1 14 26
M  V30 29 1 16 27
M  V30 30 1 17 28
M  V30 31 1 18 29
M  V30 END BOND
M  V30 END CTAB
M  END
>  <Dataset>  (372) 
ChEMBL_Kinases

>  <Ligand_Instance>  (372) 
nan

>  <PDB_ID>  (372) 
nan

>  <Standardized_SMILES>  (372) 
O=c1cc(-c2ccc(O)cc2)oc2cc(O)ccc12

>  <Name>  (372) 
nan

>  <Pocket>  (372) 
nan

>  <ATP_Site>  (372) 
nan

>  <Peripheral>  (372) 
nan

>  <Num_H_Atoms_ProtBoundConf>  (372) 
nan

>  <Num_Resolved_Atoms>  (372) 
nan

>  <Num_Not_Resolved_Atoms>  (372) 
nan

$$$$
CHEMBL295619
     RDKit          3D

  0  0  0  0  0  0  0  0  0  0999 V3000
M  V30 BEGIN CTAB
M  V30 COUNTS 43 46 0 0 0
M  V30 BEGIN ATOM
M  V30 1 C -0.150640 -5.567820 2.151391 0
M  V30 2 N 0.123188 -4.295042 1.532623 0
M  V30 3 C -0.735741 -4.072898 0.417583 0
M  V30 4 C -0.152205 -3.331071 -0.733452 0
M  V30 5 N 0.812450 -2.371573 -0.221950 0
M  V30 6 C 0.848510 -0.940675 -0.282763 0
M  V30 7 C 1.463836 -0.293902 -1.330296 0
M  V30 8 F 2.027047 -1.034213 -2.289597 0
M  V30 9 C 1.455412 1.076189 -1.315443 0
M  V30 10 C 0.870388 1.818851 -0.319072 0
M  V30 11 C 0.962553 3.185604 -0.476443 0
M  V30 12 O 1.536086 3.711139 -1.452628 0
M  V30 13 C 0.383128 3.959969 0.509268 0
M  V30 14 C 0.429013 5.409879 0.430712 0
M  V30 15 O -0.031276 6.282042 1.213624 0
M  V30 16 O 1.058801 6.018521 -0.641094 0
M  V30 17 C -0.229545 3.299700 1.552056 0
M  V30 18 N -0.323074 1.946125 1.711772 0
M  V30 19 C 0.235823 1.194677 0.761161 0
M  V30 20 C 0.270635 -0.182454 0.701540 0
M  V30 21 S -0.539660 -1.003978 2.088819 0
M  V30 22 C -0.539776 0.204535 3.450535 0
M  V30 23 C -1.023678 1.513059 2.899461 0
M  V30 24 C 1.928049 -3.012704 0.469905 0
M  V30 25 C 1.519691 -4.213521 1.255395 0
M  V30 26 H -1.207104 -5.525813 2.492794 0
M  V30 27 H -0.104515 -6.419469 1.433671 0
M  V30 28 H 0.486419 -5.752552 3.028254 0
M  V30 29 H -1.623284 -3.481804 0.788227 0
M  V30 30 H -1.202813 -5.049802 0.096843 0
M  V30 31 H -0.951121 -2.774825 -1.247023 0
M  V30 32 H 0.319556 -3.977130 -1.499892 0
M  V30 33 H 1.959532 1.545416 -2.173608 0
M  V30 34 H 1.570032 6.908655 -0.577841 0
M  V30 35 H -0.666125 3.971015 2.294638 0
M  V30 36 H -1.269977 -0.104278 4.225547 0
M  V30 37 H 0.502877 0.313209 3.844215 0
M  V30 38 H -2.120009 1.383378 2.676854 0
M  V30 39 H -0.980664 2.298651 3.685850 0
M  V30 40 H 2.552303 -2.296587 1.024864 0
M  V30 41 H 2.596249 -3.394462 -0.354450 0
M  V30 42 H 2.044484 -4.139080 2.251499 0
M  V30 43 H 1.870114 -5.184343 0.815241 0
M  V30 END ATOM
M  V30 BEGIN BOND
M  V30 1 1 1 2
M  V30 2 1 2 3
M  V30 3 1 3 4
M  V30 4 1 4 5
M  V30 5 1 5 6
M  V30 6 2 6 7
M  V30 7 1 7 8
M  V30 8 1 7 9
M  V30 9 2 9 10
M  V30 10 1 10 11
M  V30 11 2 11 12
M  V30 12 1 11 13
M  V30 13 1 13 14
M  V30 14 2 14 15
M  V30 15 1 14 16
M  V30 16 2 13 17
M  V30 17 1 17 18
M  V30 18 1 18 19
M  V30 19 2 19 20
M  V30 20 1 20 21
M  V30 21 1 21 22
M  V30 22 1 22 23
M  V30 23 1 5 24
M  V30 24 1 24 25
M  V30 25 1 25 2
M  V30 26 1 20 6
M  V30 27 1 19 10
M  V30 28 1 23 18
M  V30 29 1 1 26
M  V30 30 1 1 27
M  V30 31 1 1 28
M  V30 32 1 3 29
M  V30 33 1 3 30
M  V30 34 1 4 31
M  V30 35 1 4 32
M  V30 36 1 9 33
M  V30 37 1 16 34
M  V30 38 1 17 35
M  V30 39 1 22 36
M  V30 40 1 22 37
M  V30 41 1 23 38
M  V30 42 1 23 39
M  V30 43 1 24 40
M  V30 44 1 24 41
M  V30 45 1 25 42
M  V30 46 1 25 43
M  V30 END BOND
M  V30 END CTAB
M  END
>  <Dataset>  (373) 
ChEMBL_Kinases

>  <Ligand_Instance>  (373) 
nan

>  <PDB_ID>  (373) 
nan

>  <Standardized_SMILES>  (373) 
CN1CCN(c2c(F)cc3c(=O)c(C(=O)O)cn4c3c2SCC4)CC1

>  <Name>  (373) 
RUFLOXACIN

>  <Pocket>  (373) 
nan

>  <ATP_Site>  (373) 
nan

>  <Peripheral>  (373) 
nan

>  <Num_H_Atoms_ProtBoundConf>  (373) 
nan

>  <Num_Resolved_Atoms>  (373) 
nan

>  <Num_Not_Resolved_Atoms>  (373) 
nan

$$$$
CHEMBL295652
     RDKit          3D

  0  0  0  0  0  0  0  0  0  0999 V3000
M  V30 BEGIN CTAB
M  V30 COUNTS 18 18 0 0 0
M  V30 BEGIN ATOM
M  V30 1 C -0.215838 -1.369035 -1.633344 0
M  V30 2 O -0.516014 -1.227701 -0.255472 0
M  V30 3 C 0.288369 -0.475093 0.585003 0
M  V30 4 C 1.406019 0.153377 0.081125 0
M  V30 5 C 2.171227 0.888417 0.957131 0
M  V30 6 C 1.794880 0.963094 2.273883 0
M  V30 7 N 2.616268 1.736076 3.150012 0
M  V30 8 C 0.676295 0.339956 2.801647 0
M  V30 9 C -0.080891 -0.396711 1.897435 0
M  V30 10 H 0.642380 -2.042980 -1.796962 0
M  V30 11 H 0.045930 -0.363306 -2.036265 0
M  V30 12 H -1.102541 -1.749569 -2.179913 0
M  V30 13 H 1.712563 0.101958 -0.953656 0
M  V30 14 H 3.062039 1.399176 0.595042 0
M  V30 15 H 2.660787 2.575642 3.760864 0
M  V30 16 H 3.583991 1.761181 3.556775 0
M  V30 17 H 0.394780 0.410103 3.843881 0
M  V30 18 H -0.952269 -0.881194 2.312271 0
M  V30 END ATOM
M  V30 BEGIN BOND
M  V30 1 1 1 2
M  V30 2 1 2 3
M  V30 3 2 3 4
M  V30 4 1 4 5
M  V30 5 2 5 6
M  V30 6 1 6 7
M  V30 7 1 6 8
M  V30 8 2 8 9
M  V30 9 1 9 3
M  V30 10 1 1 10
M  V30 11 1 1 11
M  V30 12 1 1 12
M  V30 13 1 4 13
M  V30 14 1 5 14
M  V30 15 1 7 15
M  V30 16 1 7 16
M  V30 17 1 8 17
M  V30 18 1 9 18
M  V30 END BOND
M  V30 END CTAB
M  END
>  <Dataset>  (374) 
ChEMBL_Kinases

>  <Ligand_Instance>  (374) 
nan

>  <PDB_ID>  (374) 
nan

>  <Standardized_SMILES>  (374) 
COc1ccc(N)cc1

>  <Name>  (374) 
nan

>  <Pocket>  (374) 
nan

>  <ATP_Site>  (374) 
nan

>  <Peripheral>  (374) 
nan

>  <Num_H_Atoms_ProtBoundConf>  (374) 
nan

>  <Num_Resolved_Atoms>  (374) 
nan

>  <Num_Not_Resolved_Atoms>  (374) 
nan

$$$$
CHEMBL297394
     RDKit          3D

  0  0  0  0  0  0  0  0  0  0999 V3000
M  V30 BEGIN CTAB
M  V30 COUNTS 137 139 0 0 0
M  V30 BEGIN ATOM
M  V30 1 N 7.217715 -1.893356 -4.175277 0
M  V30 2 C 6.419270 -0.946411 -3.874526 0
M  V30 3 N 5.811256 -0.240965 -4.957307 0
M  V30 4 N 6.126163 -0.586287 -2.547081 0
M  V30 5 C 6.260066 -1.593791 -1.501451 0
M  V30 6 C 5.183794 -2.647302 -1.715317 0
M  V30 7 C 3.820286 -2.035230 -1.657099 0
M  V30 8 C 2.777149 -3.100971 -1.878218 0 CFG=1
M  V30 9 N 1.455049 -2.504772 -1.822806 0
M  V30 10 C 0.473763 -3.129611 -1.038189 0
M  V30 11 O 0.709179 -4.185089 -0.378714 0
M  V30 12 C -0.968477 -2.908167 -0.685532 0 CFG=1
M  V30 13 C -1.860980 -3.137466 -1.858990 0
M  V30 14 C -1.624593 -2.289116 -3.059115 0
M  V30 15 C -2.656619 -2.671880 -4.132546 0
M  V30 16 N -2.457822 -1.878347 -5.311717 0
M  V30 17 C -3.332925 -2.146352 -6.421483 0
M  V30 18 N -4.531575 -2.617027 -6.237998 0
M  V30 19 N -2.905165 -1.902285 -7.770034 0
M  V30 20 N -1.326396 -3.923730 0.324364 0
M  V30 21 C -1.699211 -3.794875 1.714363 0
M  V30 22 O -1.738252 -2.639788 2.209105 0
M  V30 23 C -1.947459 -5.154125 2.200354 0
M  V30 24 C -2.268639 -5.285401 3.645468 0
M  V30 25 C -1.126658 -4.772752 4.529029 0
M  V30 26 C 0.128143 -5.524567 4.197191 0
M  V30 27 C 1.254869 -5.074296 5.090716 0
M  V30 28 N 1.494661 -3.670103 4.990538 0
M  V30 29 C 1.834602 -2.833941 3.880972 0
M  V30 30 O 1.931826 -3.441174 2.795684 0
M  V30 31 C 2.003122 -1.412473 4.242911 0 CFG=1
M  V30 32 C 3.282650 -1.358898 5.089087 0
M  V30 33 C 3.530537 0.050917 5.512281 0
M  V30 34 C 4.811313 0.095238 6.343835 0
M  V30 35 C 5.046565 1.537332 6.764376 0
M  V30 36 N 6.257968 1.655559 7.566059 0
M  V30 37 N 2.265871 -0.647183 3.051352 0
M  V30 38 C 1.689846 0.643618 3.090949 0
M  V30 39 O 1.010706 1.076422 4.084099 0
M  V30 40 C 1.538813 1.908390 2.300635 0
M  V30 41 C 0.852018 2.881050 3.234459 0
M  V30 42 C 0.671842 4.188183 2.561371 0
M  V30 43 C -0.182119 4.076971 1.342788 0
M  V30 44 C -1.565702 3.568667 1.632723 0
M  V30 45 N -2.293106 3.549678 0.353698 0
M  V30 46 C -3.617454 3.062013 0.650689 0
M  V30 47 O -3.995163 2.730831 1.819744 0
M  V30 48 C -4.788576 2.831525 -0.210517 0 CFG=1
M  V30 49 O -4.449405 3.228019 -1.527278 0
M  V30 50 C -5.618524 2.776122 -2.185134 0 CFG=1
M  V30 51 N -5.616370 3.063326 -3.589948 0
M  V30 52 C -5.499462 2.225356 -4.634148 0
M  V30 53 N -5.561838 3.000172 -5.756961 0
M  V30 54 C -5.713137 4.280426 -5.427666 0
M  V30 55 C -5.832608 5.467164 -6.117376 0
M  V30 56 N -5.802298 5.463798 -7.556846 0
M  V30 57 N -5.982276 6.675644 -5.504950 0
M  V30 58 C -6.011871 6.681600 -4.138989 0
M  V30 59 N -5.895911 5.524669 -3.466524 0
M  V30 60 C -5.748819 4.329890 -4.034350 0
M  V30 61 C -5.529064 1.297225 -1.871327 0 CFG=2
M  V30 62 O -6.784505 0.713906 -1.995989 0
M  V30 63 C -5.100764 1.367230 -0.399987 0 CFG=2
M  V30 64 O -6.190166 1.053978 0.418174 0
M  V30 65 C 3.015382 -3.673931 -3.249868 0
M  V30 66 N 3.868518 -4.360400 -4.139122 0
M  V30 67 O 2.052857 -3.510191 -4.041058 0
M  V30 68 H 7.474953 -2.208737 -5.126916 0
M  V30 69 H 5.380809 0.300851 -5.734477 0
M  V30 70 H 5.219490 -0.606943 -5.743474 0
M  V30 71 H 5.822686 0.416577 -2.413667 0
M  V30 72 H 6.105079 -1.151182 -0.500769 0
M  V30 73 H 7.241199 -2.074479 -1.578469 0
M  V30 74 H 5.286690 -3.332031 -0.822553 0
M  V30 75 H 5.329395 -3.145585 -2.670769 0
M  V30 76 H 3.705753 -1.307582 -2.498793 0
M  V30 77 H 3.629091 -1.470539 -0.727937 0
M  V30 78 H 2.878919 -3.924392 -1.171523 0
M  V30 79 H 1.055796 -1.653410 -2.252225 0
M  V30 80 H -1.052494 -1.903419 -0.237837 0
M  V30 81 H -2.914786 -2.999867 -1.484278 0
M  V30 82 H -1.746919 -4.226812 -2.142130 0
M  V30 83 H -0.629027 -2.510597 -3.545736 0
M  V30 84 H -1.731060 -1.212773 -2.885507 0
M  V30 85 H -2.439792 -3.728377 -4.384937 0
M  V30 86 H -3.671363 -2.544775 -3.701684 0
M  V30 87 H -1.771547 -1.111245 -5.528881 0
M  V30 88 H -5.162449 -2.809877 -7.046414 0
M  V30 89 H -2.593100 -1.321734 -8.556487 0
M  V30 90 H -2.782371 -2.624799 -8.541591 0
M  V30 91 H -1.234341 -4.833059 -0.231436 0
M  V30 92 H -2.821208 -5.590913 1.634619 0
M  V30 93 H -1.086991 -5.842049 1.940663 0
M  V30 94 H -3.187226 -4.766364 3.947072 0
M  V30 95 H -2.392714 -6.348402 3.898992 0
M  V30 96 H -1.438795 -4.976421 5.570725 0
M  V30 97 H -0.992332 -3.694262 4.403181 0
M  V30 98 H 0.010922 -6.613580 4.302788 0
M  V30 99 H 0.458731 -5.315189 3.153629 0
M  V30 100 H 2.202129 -5.658352 4.844766 0
M  V30 101 H 0.968057 -5.362228 6.118233 0
M  V30 102 H 1.393552 -3.190708 5.935516 0
M  V30 103 H 1.212644 -0.985405 4.857079 0
M  V30 104 H 3.097786 -1.973222 5.973997 0
M  V30 105 H 4.114489 -1.737164 4.485785 0
M  V30 106 H 3.671016 0.742078 4.674248 0
M  V30 107 H 2.682022 0.429417 6.151826 0
M  V30 108 H 5.681347 -0.226677 5.734330 0
M  V30 109 H 4.744312 -0.550074 7.241989 0
M  V30 110 H 5.227230 2.160899 5.858909 0
M  V30 111 H 4.174886 1.894566 7.344043 0
M  V30 112 H 7.050465 1.377686 6.919442 0
M  V30 113 H 6.197011 0.928604 8.327509 0
M  V30 114 H 2.724071 -0.648233 2.133557 0
M  V30 115 H 2.514332 2.295363 1.963962 0
M  V30 116 H 0.916000 1.738166 1.403301 0
M  V30 117 H 1.412917 2.951284 4.196307 0
M  V30 118 H -0.160269 2.455148 3.495416 0
M  V30 119 H 1.698884 4.532995 2.244577 0
M  V30 120 H 0.276564 4.948186 3.273727 0
M  V30 121 H -0.316267 5.117999 0.942466 0
M  V30 122 H 0.275083 3.456280 0.558636 0
M  V30 123 H -1.599200 2.567738 2.091175 0
M  V30 124 H -2.073006 4.276312 2.324784 0
M  V30 125 H -2.246909 3.738122 -0.654618 0
M  V30 126 H -5.680810 3.420759 0.062921 0
M  V30 127 H -6.483303 3.205892 -1.654987 0
M  V30 128 H -5.380027 1.140612 -4.589541 0
M  V30 129 H -4.772427 5.669943 -7.704667 0
M  V30 130 H -6.369285 5.345296 -8.424739 0
M  V30 131 H -6.126758 7.588442 -3.521381 0
M  V30 132 H -4.766791 0.776748 -2.473438 0
M  V30 133 H -7.287428 1.195458 -2.723372 0
M  V30 134 H -4.209926 0.735358 -0.204255 0
M  V30 135 H -7.027432 1.136466 -0.138590 0
M  V30 136 H 3.885288 -5.423021 -4.132147 0
M  V30 137 H 4.484709 -3.863206 -4.806413 0
M  V30 END ATOM
M  V30 BEGIN BOND
M  V30 1 2 1 2 CFG=2
M  V30 2 1 2 3
M  V30 3 1 2 4
M  V30 4 1 4 5
M  V30 5 1 5 6
M  V30 6 1 6 7
M  V30 7 1 7 8
M  V30 8 1 8 9
M  V30 9 1 9 10
M  V30 10 2 10 11
M  V30 11 1 10 12
M  V30 12 1 12 13
M  V30 13 1 13 14
M  V30 14 1 14 15
M  V30 15 1 15 16
M  V30 16 1 16 17
M  V30 17 2 17 18 CFG=2
M  V30 18 1 17 19
M  V30 19 1 12 20
M  V30 20 1 20 21
M  V30 21 2 21 22
M  V30 22 1 21 23
M  V30 23 1 23 24
M  V30 24 1 24 25
M  V30 25 1 25 26
M  V30 26 1 26 27
M  V30 27 1 27 28
M  V30 28 1 28 29
M  V30 29 2 29 30
M  V30 30 1 29 31
M  V30 31 1 31 32
M  V30 32 1 32 33
M  V30 33 1 33 34
M  V30 34 1 34 35
M  V30 35 1 35 36
M  V30 36 1 31 37
M  V30 37 1 37 38
M  V30 38 2 38 39
M  V30 39 1 38 40
M  V30 40 1 40 41
M  V30 41 1 41 42
M  V30 42 1 42 43
M  V30 43 1 43 44
M  V30 44 1 44 45
M  V30 45 1 45 46
M  V30 46 2 46 47
M  V30 47 1 46 48
M  V30 48 1 48 49
M  V30 49 1 49 50
M  V30 50 1 50 51
M  V30 51 1 51 52
M  V30 52 2 52 53
M  V30 53 1 53 54
M  V30 54 2 54 55
M  V30 55 1 55 56
M  V30 56 1 55 57
M  V30 57 2 57 58
M  V30 58 1 58 59
M  V30 59 2 59 60
M  V30 60 1 50 61
M  V30 61 1 61 62
M  V30 62 1 61 63
M  V30 63 1 63 64
M  V30 64 1 8 65
M  V30 65 1 65 66
M  V30 66 2 65 67
M  V30 67 1 63 48
M  V30 68 1 60 51
M  V30 69 1 60 54
M  V30 70 1 1 68
M  V30 71 1 3 69
M  V30 72 1 3 70
M  V30 73 1 4 71
M  V30 74 1 5 72
M  V30 75 1 5 73
M  V30 76 1 6 74
M  V30 77 1 6 75
M  V30 78 1 7 76
M  V30 79 1 7 77
M  V30 80 1 8 78 CFG=1
M  V30 81 1 9 79
M  V30 82 1 12 80 CFG=1
M  V30 83 1 13 81
M  V30 84 1 13 82
M  V30 85 1 14 83
M  V30 86 1 14 84
M  V30 87 1 15 85
M  V30 88 1 15 86
M  V30 89 1 16 87
M  V30 90 1 18 88
M  V30 91 1 19 89
M  V30 92 1 19 90
M  V30 93 1 20 91
M  V30 94 1 23 92
M  V30 95 1 23 93
M  V30 96 1 24 94
M  V30 97 1 24 95
M  V30 98 1 25 96
M  V30 99 1 25 97
M  V30 100 1 26 98
M  V30 101 1 26 99
M  V30 102 1 27 100
M  V30 103 1 27 101
M  V30 104 1 28 102
M  V30 105 1 31 103 CFG=1
M  V30 106 1 32 104
M  V30 107 1 32 105
M  V30 108 1 33 106
M  V30 109 1 33 107
M  V30 110 1 34 108
M  V30 111 1 34 109
M  V30 112 1 35 110
M  V30 113 1 35 111
M  V30 114 1 36 112
M  V30 115 1 36 113
M  V30 116 1 37 114
M  V30 117 1 40 115
M  V30 118 1 40 116
M  V30 119 1 41 117
M  V30 120 1 41 118
M  V30 121 1 42 119
M  V30 122 1 42 120
M  V30 123 1 43 121
M  V30 124 1 43 122
M  V30 125 1 44 123
M  V30 126 1 44 124
M  V30 127 1 45 125
M  V30 128 1 48 126 CFG=1
M  V30 129 1 50 127 CFG=1
M  V30 130 1 52 128
M  V30 131 1 56 129
M  V30 132 1 56 130
M  V30 133 1 58 131
M  V30 134 1 61 132 CFG=3
M  V30 135 1 62 133
M  V30 136 1 63 134 CFG=3
M  V30 137 1 64 135
M  V30 138 1 66 136
M  V30 139 1 66 137
M  V30 END BOND
M  V30 END CTAB
M  END
>  <Dataset>  (375) 
ChEMBL_Kinases

>  <Ligand_Instance>  (375) 
nan

>  <PDB_ID>  (375) 
nan

>  <Standardized_SMILES>  (375) 
N=C(N)NCCC[C@@H](NC(=O)[C@@H](CCCNC(=N)N)NC(=O)CCCCCNC(=O)[C@@H](CCCCN)NC(=O)CCCCCNC(=O)[C@H]1O[C@@H](n2cnc3c(N)ncnc32)[C@H](O)[C@@H]1O)C(N)=O

>  <Name>  (375) 
nan

>  <Pocket>  (375) 
nan

>  <ATP_Site>  (375) 
nan

>  <Peripheral>  (375) 
nan

>  <Num_H_Atoms_ProtBoundConf>  (375) 
nan

>  <Num_Resolved_Atoms>  (375) 
nan

>  <Num_Not_Resolved_Atoms>  (375) 
nan

$$$$
CHEMBL297570
     RDKit          3D

  0  0  0  0  0  0  0  0  0  0999 V3000
M  V30 BEGIN CTAB
M  V30 COUNTS 49 51 0 0 0
M  V30 BEGIN ATOM
M  V30 1 C 1.821843 -4.533338 -0.044902 0
M  V30 2 C 1.628431 -3.382513 0.947674 0
M  V30 3 C 1.201293 -4.001955 2.268166 0
M  V30 4 C 0.559393 -2.472078 0.405575 0
M  V30 5 C 2.942532 -2.726307 1.106752 0
M  V30 6 C 3.923968 -3.038323 2.034178 0
M  V30 7 N 4.932637 -2.197499 1.816005 0
M  V30 8 C 4.616331 -1.385317 0.799574 0
M  V30 9 C 5.383423 -0.274539 0.158714 0
M  V30 10 S 4.963608 1.250253 1.054820 0
M  V30 11 C 3.234665 1.673799 0.810578 0
M  V30 12 C 2.798555 2.467152 -0.214673 0
M  V30 13 N 1.532022 2.791819 -0.413595 0
M  V30 14 C 0.644725 2.371907 0.355514 0
M  V30 15 N -0.734577 2.363242 0.644702 0
M  V30 16 C -1.485106 1.317713 0.039347 0
M  V30 17 O -0.998300 0.435849 -0.712481 0
M  V30 18 C -2.944262 1.262464 0.313981 0
M  V30 19 C -3.594408 0.091554 -0.397623 0
M  V30 20 C -5.087257 0.371331 -0.363674 0
M  V30 21 C -5.475643 1.165773 0.858465 0
M  V30 22 N -4.632105 0.893346 1.990384 0
M  V30 23 C -3.236547 1.109914 1.785540 0
M  V30 24 S 1.633222 1.324534 1.625354 0
M  V30 25 O 3.412071 -1.744182 0.409599 0
M  V30 26 H 0.848048 -4.859397 -0.471870 0
M  V30 27 H 2.468395 -4.236365 -0.893769 0
M  V30 28 H 2.250649 -5.409947 0.491675 0
M  V30 29 H 1.219244 -3.273369 3.097835 0
M  V30 30 H 1.824902 -4.866761 2.528269 0
M  V30 31 H 0.153498 -4.369486 2.193379 0
M  V30 32 H -0.399347 -2.735826 0.928783 0
M  V30 33 H 0.377711 -2.703903 -0.684184 0
M  V30 34 H 0.768509 -1.400623 0.506616 0
M  V30 35 H 3.795466 -3.828675 2.751068 0
M  V30 36 H 5.055267 -0.155991 -0.878962 0
M  V30 37 H 6.476513 -0.423198 0.267368 0
M  V30 38 H 3.437396 2.925740 -0.987959 0
M  V30 39 H -1.163192 3.085373 1.265181 0
M  V30 40 H -3.436532 2.182429 -0.046217 0
M  V30 41 H -3.461395 -0.855041 0.197612 0
M  V30 42 H -3.198375 -0.082893 -1.402908 0
M  V30 43 H -5.680664 -0.541643 -0.425582 0
M  V30 44 H -5.298863 1.019283 -1.245400 0
M  V30 45 H -6.500805 0.848018 1.141448 0
M  V30 46 H -5.562112 2.263763 0.651625 0
M  V30 47 H -4.878120 0.012832 2.471661 0
M  V30 48 H -2.711280 0.185023 2.156013 0
M  V30 49 H -2.832527 1.978605 2.355942 0
M  V30 END ATOM
M  V30 BEGIN BOND
M  V30 1 1 1 2
M  V30 2 1 2 3
M  V30 3 1 2 4
M  V30 4 1 2 5
M  V30 5 2 5 6
M  V30 6 1 6 7
M  V30 7 2 7 8
M  V30 8 1 8 9
M  V30 9 1 9 10
M  V30 10 1 10 11
M  V30 11 2 11 12
M  V30 12 1 12 13
M  V30 13 2 13 14
M  V30 14 1 14 15
M  V30 15 1 15 16
M  V30 16 2 16 17
M  V30 17 1 16 18
M  V30 18 1 18 19
M  V30 19 1 19 20
M  V30 20 1 20 21
M  V30 21 1 21 22
M  V30 22 1 22 23
M  V30 23 1 14 24
M  V30 24 1 8 25
M  V30 25 1 25 5
M  V30 26 1 24 11
M  V30 27 1 23 18
M  V30 28 1 1 26
M  V30 29 1 1 27
M  V30 30 1 1 28
M  V30 31 1 3 29
M  V30 32 1 3 30
M  V30 33 1 3 31
M  V30 34 1 4 32
M  V30 35 1 4 33
M  V30 36 1 4 34
M  V30 37 1 6 35
M  V30 38 1 9 36
M  V30 39 1 9 37
M  V30 40 1 12 38
M  V30 41 1 15 39
M  V30 42 1 18 40
M  V30 43 1 19 41
M  V30 44 1 19 42
M  V30 45 1 20 43
M  V30 46 1 20 44
M  V30 47 1 21 45
M  V30 48 1 21 46
M  V30 49 1 22 47
M  V30 50 1 23 48
M  V30 51 1 23 49
M  V30 END BOND
M  V30 END CTAB
M  END
>  <Dataset>  (376) 
ChEMBL_Kinases

>  <Ligand_Instance>  (376) 
nan

>  <PDB_ID>  (376) 
nan

>  <Standardized_SMILES>  (376) 
CC(C)(C)c1cnc(CSc2cnc(NC(=O)C3CCCNC3)s2)o1

>  <Name>  (376) 
nan

>  <Pocket>  (376) 
nan

>  <ATP_Site>  (376) 
nan

>  <Peripheral>  (376) 
nan

>  <Num_H_Atoms_ProtBoundConf>  (376) 
nan

>  <Num_Resolved_Atoms>  (376) 
nan

>  <Num_Not_Resolved_Atoms>  (376) 
nan

$$$$
CHEMBL29762
     RDKit          3D

  0  0  0  0  0  0  0  0  0  0999 V3000
M  V30 BEGIN CTAB
M  V30 COUNTS 61 61 0 0 0
M  V30 BEGIN ATOM
M  V30 1 C 5.618450 -3.352375 0.107140 0
M  V30 2 C 4.325715 -2.642945 -0.151086 0
M  V30 3 C 3.980715 -1.645562 0.977937 0
M  V30 4 C 5.096254 -0.680257 1.009843 0
M  V30 5 C 5.127882 0.411524 1.965306 0
M  V30 6 C 4.156971 1.487809 2.092382 0
M  V30 7 C 3.918967 2.422005 0.957081 0
M  V30 8 C 3.307743 1.837519 -0.254330 0
M  V30 9 C 1.888028 1.306101 0.021841 0
M  V30 10 C 1.404165 0.715045 -1.249703 0
M  V30 11 C 0.026522 0.130989 -1.211283 0
M  V30 12 C -1.043572 1.127123 -0.849648 0
M  V30 13 C -2.427231 0.474620 -0.826244 0
M  V30 14 C -2.495666 -0.619716 0.159117 0
M  V30 15 O -1.763315 -1.195299 1.003742 0
M  V30 16 O -3.710623 -1.282410 0.257217 0
M  V30 17 C -3.847121 -2.334516 1.174720 0
M  V30 18 C -5.234725 -2.931793 1.134348 0 CFG=2
M  V30 19 C -5.586116 -3.487300 -0.210013 0
M  V30 20 C -6.181685 -2.343617 -0.914592 0
M  V30 21 O -6.319253 -2.245442 -2.166886 0
M  V30 22 O -6.565161 -1.394732 0.026314 0
M  V30 23 C -6.297201 -1.864188 1.331559 0 CFG=1
M  V30 24 C -7.511711 -2.590793 1.885462 0
M  V30 25 O -8.575157 -1.692508 1.914307 0
M  V30 26 H 5.753759 -3.381268 1.223666 0
M  V30 27 H 6.426932 -2.777940 -0.385854 0
M  V30 28 H 5.509085 -4.381172 -0.299404 0
M  V30 29 H 3.470648 -3.338921 -0.291726 0
M  V30 30 H 4.406033 -2.040202 -1.079289 0
M  V30 31 H 2.986570 -1.315024 0.740086 0
M  V30 32 H 3.922240 -2.262890 1.908182 0
M  V30 33 H 6.011677 -1.342196 1.303777 0
M  V30 34 H 5.409936 -0.432173 -0.053518 0
M  V30 35 H 5.356710 -0.040342 3.007006 0
M  V30 36 H 6.144475 0.936645 1.789460 0
M  V30 37 H 4.538421 2.164140 2.938514 0
M  V30 38 H 3.140975 1.169642 2.446090 0
M  V30 39 H 4.859994 2.980476 0.669199 0
M  V30 40 H 3.225824 3.226321 1.374652 0
M  V30 41 H 3.923687 1.124156 -0.806308 0
M  V30 42 H 3.132700 2.701566 -0.984588 0
M  V30 43 H 1.330958 2.245530 0.299546 0
M  V30 44 H 1.932042 0.689943 0.900805 0
M  V30 45 H 2.106925 -0.100747 -1.518690 0
M  V30 46 H 1.516188 1.473074 -2.040995 0
M  V30 47 H -0.165566 -0.342597 -2.195029 0
M  V30 48 H -0.015040 -0.682326 -0.458754 0
M  V30 49 H -0.854948 1.664263 0.073782 0
M  V30 50 H -1.074483 1.866218 -1.681548 0
M  V30 51 H -3.149931 1.276687 -0.572421 0
M  V30 52 H -2.695789 0.127721 -1.855616 0
M  V30 53 H -3.138141 -3.160415 1.016589 0
M  V30 54 H -3.677337 -1.908124 2.183166 0
M  V30 55 H -5.351627 -3.719229 1.902514 0
M  V30 56 H -4.718445 -3.934521 -0.736105 0
M  V30 57 H -6.335193 -4.303942 -0.055917 0
M  V30 58 H -5.952189 -1.100143 2.026961 0
M  V30 59 H -7.789274 -3.453077 1.264295 0
M  V30 60 H -7.234660 -2.927574 2.915345 0
M  V30 61 H -9.273846 -1.971459 1.283029 0
M  V30 END ATOM
M  V30 BEGIN BOND
M  V30 1 1 1 2
M  V30 2 1 2 3
M  V30 3 1 3 4
M  V30 4 1 4 5
M  V30 5 1 5 6
M  V30 6 1 6 7
M  V30 7 1 7 8
M  V30 8 1 8 9
M  V30 9 1 9 10
M  V30 10 1 10 11
M  V30 11 1 11 12
M  V30 12 1 12 13
M  V30 13 1 13 14
M  V30 14 2 14 15
M  V30 15 1 14 16
M  V30 16 1 16 17
M  V30 17 1 17 18
M  V30 18 1 18 19
M  V30 19 1 19 20
M  V30 20 2 20 21
M  V30 21 1 20 22
M  V30 22 1 22 23
M  V30 23 1 23 24
M  V30 24 1 24 25
M  V30 25 1 23 18
M  V30 26 1 1 26
M  V30 27 1 1 27
M  V30 28 1 1 28
M  V30 29 1 2 29
M  V30 30 1 2 30
M  V30 31 1 3 31
M  V30 32 1 3 32
M  V30 33 1 4 33
M  V30 34 1 4 34
M  V30 35 1 5 35
M  V30 36 1 5 36
M  V30 37 1 6 37
M  V30 38 1 6 38
M  V30 39 1 7 39
M  V30 40 1 7 40
M  V30 41 1 8 41
M  V30 42 1 8 42
M  V30 43 1 9 43
M  V30 44 1 9 44
M  V30 45 1 10 45
M  V30 46 1 10 46
M  V30 47 1 11 47
M  V30 48 1 11 48
M  V30 49 1 12 49
M  V30 50 1 12 50
M  V30 51 1 13 51
M  V30 52 1 13 52
M  V30 53 1 17 53
M  V30 54 1 17 54
M  V30 55 1 18 55 CFG=1
M  V30 56 1 19 56
M  V30 57 1 19 57
M  V30 58 1 23 58 CFG=1
M  V30 59 1 24 59
M  V30 60 1 24 60
M  V30 61 1 25 61
M  V30 END BOND
M  V30 END CTAB
M  END
>  <Dataset>  (377) 
ChEMBL_Kinases

>  <Ligand_Instance>  (377) 
nan

>  <PDB_ID>  (377) 
nan

>  <Standardized_SMILES>  (377) 
CCCCCCCCCCCCCC(=O)OC[C@@H]1CC(=O)O[C@H]1CO

>  <Name>  (377) 
nan

>  <Pocket>  (377) 
nan

>  <ATP_Site>  (377) 
nan

>  <Peripheral>  (377) 
nan

>  <Num_H_Atoms_ProtBoundConf>  (377) 
nan

>  <Num_Resolved_Atoms>  (377) 
nan

>  <Num_Not_Resolved_Atoms>  (377) 
nan

$$$$
CHEMBL297885
     RDKit          3D

  0  0  0  0  0  0  0  0  0  0999 V3000
M  V30 BEGIN CTAB
M  V30 COUNTS 37 39 0 0 0
M  V30 BEGIN ATOM
M  V30 1 C 2.048018 -5.495041 1.550175 0
M  V30 2 C 0.821972 -4.865720 0.951597 0
M  V30 3 O 1.048465 -3.669835 0.295428 0
M  V30 4 C 1.583099 -2.707035 1.148913 0
M  V30 5 N 1.832490 -1.443720 0.496505 0
M  V30 6 N 2.905392 -0.989839 -0.131231 0
M  V30 7 N 2.716361 0.241258 -0.594326 0
M  V30 8 C 1.469089 0.610568 -0.257066 0
M  V30 9 C 0.990457 1.940786 -0.647530 0
M  V30 10 C -0.095913 2.073882 -1.516377 0
M  V30 11 C -0.593991 3.286047 -1.921510 0
M  V30 12 N 0.025153 4.394478 -1.433359 0
M  V30 13 C 1.071413 4.318772 -0.596930 0
M  V30 14 C 1.572057 3.103402 -0.189662 0
M  V30 15 C 0.900922 -0.451166 0.434761 0
M  V30 16 C -0.437753 -0.368444 0.934247 0
M  V30 17 C -0.737967 0.599468 1.897802 0
M  V30 18 C -1.997756 0.777680 2.458046 0
M  V30 19 C -2.992216 -0.083310 2.001875 0
M  V30 20 F -4.244331 0.036800 2.507554 0
M  V30 21 C -2.783645 -1.066952 1.053359 0
M  V30 22 C -1.501620 -1.160042 0.562417 0
M  V30 23 H 2.095156 -5.293309 2.642929 0
M  V30 24 H 2.005891 -6.601637 1.443934 0
M  V30 25 H 2.992142 -5.136285 1.111271 0
M  V30 26 H 0.079096 -4.655208 1.752442 0
M  V30 27 H 0.305274 -5.542129 0.241030 0
M  V30 28 H 1.048592 -2.621219 2.117158 0
M  V30 29 H 2.590896 -3.134052 1.433441 0
M  V30 30 H -0.599914 1.185095 -1.914132 0
M  V30 31 H -1.437012 3.331766 -2.595235 0
M  V30 32 H 1.518812 5.247725 -0.245387 0
M  V30 33 H 2.405465 3.023329 0.476867 0
M  V30 34 H 0.050037 1.264058 2.243608 0
M  V30 35 H -2.173812 1.535047 3.193474 0
M  V30 36 H -3.575839 -1.714373 0.724433 0
M  V30 37 H -1.306830 -1.927269 -0.187553 0
M  V30 END ATOM
M  V30 BEGIN BOND
M  V30 1 1 1 2
M  V30 2 1 2 3
M  V30 3 1 3 4
M  V30 4 1 4 5
M  V30 5 1 5 6
M  V30 6 2 6 7
M  V30 7 1 7 8
M  V30 8 1 8 9
M  V30 9 2 9 10
M  V30 10 1 10 11
M  V30 11 2 11 12
M  V30 12 1 12 13
M  V30 13 2 13 14
M  V30 14 2 8 15
M  V30 15 1 15 16
M  V30 16 2 16 17
M  V30 17 1 17 18
M  V30 18 2 18 19
M  V30 19 1 19 20
M  V30 20 1 19 21
M  V30 21 2 21 22
M  V30 22 1 15 5
M  V30 23 1 22 16
M  V30 24 1 14 9
M  V30 25 1 1 23
M  V30 26 1 1 24
M  V30 27 1 1 25
M  V30 28 1 2 26
M  V30 29 1 2 27
M  V30 30 1 4 28
M  V30 31 1 4 29
M  V30 32 1 10 30
M  V30 33 1 11 31
M  V30 34 1 13 32
M  V30 35 1 14 33
M  V30 36 1 17 34
M  V30 37 1 18 35
M  V30 38 1 21 36
M  V30 39 1 22 37
M  V30 END BOND
M  V30 END CTAB
M  END
>  <Dataset>  (378) 
ChEMBL_Kinases

>  <Ligand_Instance>  (378) 
nan

>  <PDB_ID>  (378) 
nan

>  <Standardized_SMILES>  (378) 
CCOCn1nnc(-c2ccncc2)c1-c1ccc(F)cc1

>  <Name>  (378) 
nan

>  <Pocket>  (378) 
nan

>  <ATP_Site>  (378) 
nan

>  <Peripheral>  (378) 
nan

>  <Num_H_Atoms_ProtBoundConf>  (378) 
nan

>  <Num_Resolved_Atoms>  (378) 
nan

>  <Num_Not_Resolved_Atoms>  (378) 
nan

$$$$
CHEMBL303926
     RDKit          3D

  0  0  0  0  0  0  0  0  0  0999 V3000
M  V30 BEGIN CTAB
M  V30 COUNTS 38 41 0 0 0
M  V30 BEGIN ATOM
M  V30 1 F 2.324826 -4.528456 6.617508 0
M  V30 2 C 2.497314 -3.872006 5.439010 0
M  V30 3 C 2.916826 -4.622103 4.387445 0
M  V30 4 C 3.111616 -4.029196 3.171825 0
M  V30 5 C 2.870586 -2.657183 3.048685 0
M  V30 6 C 3.054652 -1.935036 1.775059 0
M  V30 7 N 2.853664 -0.674285 1.582695 0
M  V30 8 N 3.075804 -0.143289 0.308719 0
M  V30 9 C 2.064896 0.372571 -0.551099 0
M  V30 10 N 2.395030 0.860552 -1.761561 0
M  V30 11 C 1.480502 1.359967 -2.613865 0
M  V30 12 N 0.177702 1.387040 -2.273330 0
M  V30 13 C -0.204594 0.911248 -1.074499 0
M  V30 14 C 0.736088 0.388407 -0.177028 0
M  V30 15 C 0.062054 -0.013232 0.943441 0
M  V30 16 N -1.231048 0.257230 0.728107 0
M  V30 17 N -1.406685 0.807397 -0.467555 0
M  V30 18 C -2.622454 1.240796 -1.076950 0
M  V30 19 C -2.814475 2.453048 -1.719046 0
M  V30 20 C -4.035078 2.773974 -2.276387 0
M  V30 21 C -5.040579 1.827090 -2.157489 0
M  V30 22 C -4.887280 0.599247 -1.520802 0
M  V30 23 C -3.652211 0.311405 -0.974424 0
M  V30 24 C 2.442043 -1.916362 4.142475 0
M  V30 25 C 2.247456 -2.535631 5.377712 0
M  V30 26 H 3.120532 -5.695357 4.424747 0
M  V30 27 H 3.443986 -4.583082 2.307801 0
M  V30 28 H 3.391230 -2.539294 0.932901 0
M  V30 29 H 4.058763 -0.144185 0.007890 0
M  V30 30 H 1.831457 1.733990 -3.571892 0
M  V30 31 H 0.499187 -0.454955 1.812079 0
M  V30 32 H -1.958381 3.113939 -1.750932 0
M  V30 33 H -4.178859 3.708395 -2.769884 0
M  V30 34 H -6.030854 2.025939 -2.580329 0
M  V30 35 H -5.723728 -0.082977 -1.472175 0
M  V30 36 H -3.558353 -0.656234 -0.481538 0
M  V30 37 H 2.245406 -0.856521 4.088051 0
M  V30 38 H 1.917678 -2.013984 6.256817 0
M  V30 END ATOM
M  V30 BEGIN BOND
M  V30 1 1 1 2
M  V30 2 2 2 3
M  V30 3 1 3 4
M  V30 4 2 4 5
M  V30 5 1 5 6
M  V30 6 2 6 7
M  V30 7 1 7 8
M  V30 8 1 8 9
M  V30 9 2 9 10
M  V30 10 1 10 11
M  V30 11 2 11 12
M  V30 12 1 12 13
M  V30 13 2 13 14
M  V30 14 1 14 15
M  V30 15 2 15 16
M  V30 16 1 16 17
M  V30 17 1 17 18
M  V30 18 2 18 19
M  V30 19 1 19 20
M  V30 20 2 20 21
M  V30 21 1 21 22
M  V30 22 2 22 23
M  V30 23 1 5 24
M  V30 24 2 24 25
M  V30 25 1 25 2
M  V30 26 1 14 9
M  V30 27 1 23 18
M  V30 28 1 17 13
M  V30 29 1 3 26
M  V30 30 1 4 27
M  V30 31 1 6 28
M  V30 32 1 8 29
M  V30 33 1 11 30
M  V30 34 1 15 31
M  V30 35 1 19 32
M  V30 36 1 20 33
M  V30 37 1 21 34
M  V30 38 1 22 35
M  V30 39 1 23 36
M  V30 40 1 24 37
M  V30 41 1 25 38
M  V30 END BOND
M  V30 END CTAB
M  END
>  <Dataset>  (379) 
ChEMBL_Kinases

>  <Ligand_Instance>  (379) 
nan

>  <PDB_ID>  (379) 
nan

>  <Standardized_SMILES>  (379) 
Fc1ccc(/C=N/Nc2ncnc3c2cnn3-c2ccccc2)cc1

>  <Name>  (379) 
nan

>  <Pocket>  (379) 
nan

>  <ATP_Site>  (379) 
nan

>  <Peripheral>  (379) 
nan

>  <Num_H_Atoms_ProtBoundConf>  (379) 
nan

>  <Num_Resolved_Atoms>  (379) 
nan

>  <Num_Not_Resolved_Atoms>  (379) 
nan

$$$$
CHEMBL299756
     RDKit          3D

  0  0  0  0  0  0  0  0  0  0999 V3000
M  V30 BEGIN CTAB
M  V30 COUNTS 32 35 0 0 0
M  V30 BEGIN ATOM
M  V30 1 N 5.901814 -1.391599 3.822847 0
M  V30 2 C 4.942464 -1.543648 3.160444 0
M  V30 3 C 3.778337 -1.724054 2.344699 0
M  V30 4 C 3.595897 -2.920060 1.682037 0
M  V30 5 C 2.471361 -3.084445 0.898552 0
M  V30 6 C 1.500559 -2.101677 0.737274 0
M  V30 7 N 0.342631 -2.066031 0.024397 0
M  V30 8 C -0.167478 -0.854333 0.257935 0
M  V30 9 C 0.632504 -0.107881 1.103742 0
M  V30 10 C 1.712416 -0.916443 1.413527 0
M  V30 11 C 2.831263 -0.732289 2.202486 0
M  V30 12 C 0.436786 1.275334 1.615990 0
M  V30 13 C -0.990086 1.528178 2.016653 0
M  V30 14 O -1.183834 2.039257 3.165772 0
M  V30 15 N -2.231329 1.292650 1.319284 0
M  V30 16 C -2.329409 0.489837 0.124561 0
M  V30 17 C -3.484532 0.762644 -0.559385 0
M  V30 18 C -3.713091 0.063382 -1.735015 0
M  V30 19 C -2.798913 -0.885604 -2.206340 0
M  V30 20 C -1.625654 -1.158665 -1.506179 0
M  V30 21 C -1.427506 -0.455557 -0.352803 0
M  V30 22 H 4.320168 -3.722876 1.770469 0
M  V30 23 H 2.367657 -4.032542 0.399010 0
M  V30 24 H 0.043829 -2.889772 -0.538490 0
M  V30 25 H 2.950894 0.216019 2.712143 0
M  V30 26 H 0.712712 1.987081 0.823356 0
M  V30 27 H 1.038758 1.375286 2.537201 0
M  V30 28 H -3.104330 1.715654 1.683917 0
M  V30 29 H -4.152220 1.502527 -0.150657 0
M  V30 30 H -4.622234 0.270936 -2.283077 0
M  V30 31 H -3.078224 -1.375444 -3.139397 0
M  V30 32 H -0.973324 -1.900164 -1.937576 0
M  V30 END ATOM
M  V30 BEGIN BOND
M  V30 1 3 1 2
M  V30 2 1 2 3
M  V30 3 2 3 4
M  V30 4 1 4 5
M  V30 5 2 5 6
M  V30 6 1 6 7
M  V30 7 1 7 8
M  V30 8 2 8 9
M  V30 9 1 9 10
M  V30 10 2 10 11
M  V30 11 1 9 12
M  V30 12 1 12 13
M  V30 13 2 13 14
M  V30 14 1 13 15
M  V30 15 1 15 16
M  V30 16 2 16 17
M  V30 17 1 17 18
M  V30 18 2 18 19
M  V30 19 1 19 20
M  V30 20 2 20 21
M  V30 21 1 11 3
M  V30 22 1 21 16
M  V30 23 1 10 6
M  V30 24 1 21 8
M  V30 25 1 4 22
M  V30 26 1 5 23
M  V30 27 1 7 24
M  V30 28 1 11 25
M  V30 29 1 12 26
M  V30 30 1 12 27
M  V30 31 1 15 28
M  V30 32 1 17 29
M  V30 33 1 18 30
M  V30 34 1 19 31
M  V30 35 1 20 32
M  V30 END BOND
M  V30 END CTAB
M  END
>  <Dataset>  (380) 
ChEMBL_Kinases

>  <Ligand_Instance>  (380) 
nan

>  <PDB_ID>  (380) 
nan

>  <Standardized_SMILES>  (380) 
N#Cc1ccc2[nH]c3c(c2c1)CC(=O)Nc1ccccc1-3

>  <Name>  (380) 
PAULLONE 2

>  <Pocket>  (380) 
nan

>  <ATP_Site>  (380) 
nan

>  <Peripheral>  (380) 
nan

>  <Num_H_Atoms_ProtBoundConf>  (380) 
nan

>  <Num_Resolved_Atoms>  (380) 
nan

>  <Num_Not_Resolved_Atoms>  (380) 
nan

$$$$
CHEMBL300389
     RDKit          3D

  0  0  0  0  0  0  0  0  0  0999 V3000
M  V30 BEGIN CTAB
M  V30 COUNTS 43 45 0 0 0
M  V30 BEGIN ATOM
M  V30 1 O 0.532427 -6.018389 2.185676 0
M  V30 2 C -0.314472 -5.051335 2.723883 0
M  V30 3 C -1.568453 -4.911632 1.928389 0
M  V30 4 C -1.368176 -4.522906 0.512322 0
M  V30 5 N -0.718807 -3.278781 0.375304 0
M  V30 6 C 0.563429 -2.674912 0.470119 0
M  V30 7 C 0.951730 -1.370617 0.474553 0
M  V30 8 C 2.286394 -1.071358 0.526112 0
M  V30 9 C 2.648227 0.336547 0.539510 0
M  V30 10 C 3.973903 0.691712 0.585903 0
M  V30 11 C 4.329004 2.014182 0.599895 0
M  V30 12 N 3.393100 2.971311 0.568555 0
M  V30 13 C 2.078196 2.651548 0.522391 0
M  V30 14 N 1.150473 3.722629 0.497904 0
M  V30 15 C -0.267395 3.706917 0.437747 0
M  V30 16 C -1.035173 4.849726 0.479677 0
M  V30 17 C -2.407005 4.833541 0.418776 0
M  V30 18 C -3.100739 3.651903 0.310297 0
M  V30 19 C -2.381361 2.478955 0.264202 0
M  V30 20 Cl -3.245544 0.951808 0.125850 0
M  V30 21 C -1.008943 2.551827 0.328791 0
M  V30 22 N 1.783956 1.356166 0.510712 0
M  V30 23 C 3.244047 -2.043996 0.573498 0
M  V30 24 C 2.840894 -3.356411 0.568347 0
M  V30 25 N 1.529807 -3.615077 0.517594 0
M  V30 26 H -0.038932 -6.678329 1.692334 0
M  V30 27 H 0.222226 -4.110191 2.845087 0
M  V30 28 H -0.574344 -5.433880 3.760643 0
M  V30 29 H -2.158120 -5.877365 2.013088 0
M  V30 30 H -2.247090 -4.182170 2.468239 0
M  V30 31 H -2.398911 -4.438217 0.045222 0
M  V30 32 H -0.900911 -5.341751 -0.097117 0
M  V30 33 H -1.357870 -2.463269 0.109590 0
M  V30 34 H 0.117559 -0.687336 0.435077 0
M  V30 35 H 4.817561 0.042791 0.613558 0
M  V30 36 H 5.357305 2.374762 0.636004 0
M  V30 37 H 1.531075 4.700387 0.526974 0
M  V30 38 H -0.538841 5.811342 0.564438 0
M  V30 39 H -2.929674 5.781607 0.456823 0
M  V30 40 H -4.170880 3.716391 0.267435 0
M  V30 41 H -0.536446 1.586962 0.284134 0
M  V30 42 H 4.300932 -1.873514 0.615017 0
M  V30 43 H 3.590807 -4.160960 0.606237 0
M  V30 END ATOM
M  V30 BEGIN BOND
M  V30 1 1 1 2
M  V30 2 1 2 3
M  V30 3 1 3 4
M  V30 4 1 4 5
M  V30 5 1 5 6
M  V30 6 2 6 7
M  V30 7 1 7 8
M  V30 8 1 8 9
M  V30 9 2 9 10
M  V30 10 1 10 11
M  V30 11 2 11 12
M  V30 12 1 12 13
M  V30 13 1 13 14
M  V30 14 1 14 15
M  V30 15 2 15 16
M  V30 16 1 16 17
M  V30 17 2 17 18
M  V30 18 1 18 19
M  V30 19 1 19 20
M  V30 20 2 19 21
M  V30 21 2 13 22
M  V30 22 2 8 23
M  V30 23 1 23 24
M  V30 24 2 24 25
M  V30 25 1 25 6
M  V30 26 1 22 9
M  V30 27 1 21 15
M  V30 28 1 1 26
M  V30 29 1 2 27
M  V30 30 1 2 28
M  V30 31 1 3 29
M  V30 32 1 3 30
M  V30 33 1 4 31
M  V30 34 1 4 32
M  V30 35 1 5 33
M  V30 36 1 7 34
M  V30 37 1 10 35
M  V30 38 1 11 36
M  V30 39 1 14 37
M  V30 40 1 16 38
M  V30 41 1 17 39
M  V30 42 1 18 40
M  V30 43 1 21 41
M  V30 44 1 23 42
M  V30 45 1 24 43
M  V30 END BOND
M  V30 END CTAB
M  END
>  <Dataset>  (381) 
ChEMBL_Kinases

>  <Ligand_Instance>  (381) 
nan

>  <PDB_ID>  (381) 
nan

>  <Standardized_SMILES>  (381) 
OCCCNc1cc(-c2ccnc(Nc3cccc(Cl)c3)n2)ccn1

>  <Name>  (381) 
nan

>  <Pocket>  (381) 
nan

>  <ATP_Site>  (381) 
nan

>  <Peripheral>  (381) 
nan

>  <Num_H_Atoms_ProtBoundConf>  (381) 
nan

>  <Num_Resolved_Atoms>  (381) 
nan

>  <Num_Not_Resolved_Atoms>  (381) 
nan

$$$$
CHEMBL301018
     RDKit          3D

  0  0  0  0  0  0  0  0  0  0999 V3000
M  V30 BEGIN CTAB
M  V30 COUNTS 36 38 0 0 0
M  V30 BEGIN ATOM
M  V30 1 C -0.551971 -5.511627 2.493973 0
M  V30 2 O -1.118757 -4.242273 2.291761 0
M  V30 3 C -0.529897 -3.289771 1.463005 0
M  V30 4 C 0.653811 -3.610441 0.834494 0
M  V30 5 C 1.273600 -2.700003 0.006145 0
M  V30 6 N 2.446964 -2.957408 -0.633874 0
M  V30 7 C 3.028570 -2.043192 -1.428492 0
M  V30 8 N 2.479204 -0.824742 -1.632433 0
M  V30 9 C 1.313970 -0.532738 -1.013923 0
M  V30 10 N 0.807522 0.749424 -1.273345 0
M  V30 11 C 0.863082 1.994725 -0.594165 0
M  V30 12 C 0.269820 3.073838 -1.207747 0
M  V30 13 C 0.292954 4.300940 -0.585608 0
M  V30 14 C 0.894895 4.487623 0.639875 0
M  V30 15 F 0.852742 5.736880 1.150085 0
M  V30 16 C 1.482373 3.379334 1.227938 0
M  V30 17 Cl 2.239058 3.643229 2.781738 0
M  V30 18 C 1.475053 2.136595 0.629257 0
M  V30 19 C 0.696749 -1.454192 -0.192547 0
M  V30 20 C -0.489671 -1.107576 0.425389 0
M  V30 21 C -1.080459 -2.047030 1.248424 0
M  V30 22 O -2.277676 -1.759725 1.900696 0
M  V30 23 C -2.837245 -0.476363 1.672405 0
M  V30 24 H -0.116541 -5.956396 1.582622 0
M  V30 25 H 0.285268 -5.385144 3.224965 0
M  V30 26 H -1.289815 -6.232318 2.911444 0
M  V30 27 H 1.185253 -4.545822 0.919344 0
M  V30 28 H 3.956786 -2.442180 -1.844510 0
M  V30 29 H 0.308448 0.623375 -2.178064 0
M  V30 30 H -0.214790 2.940457 -2.187775 0
M  V30 31 H -0.201304 5.113007 -1.137297 0
M  V30 32 H 1.931601 1.282733 1.091128 0
M  V30 33 H -0.902140 -0.144314 0.250654 0
M  V30 34 H -3.206056 -0.323116 0.648403 0
M  V30 35 H -2.090803 0.350272 1.850250 0
M  V30 36 H -3.616932 -0.352934 2.460768 0
M  V30 END ATOM
M  V30 BEGIN BOND
M  V30 1 1 1 2
M  V30 2 1 2 3
M  V30 3 2 3 4
M  V30 4 1 4 5
M  V30 5 2 5 6
M  V30 6 1 6 7
M  V30 7 2 7 8
M  V30 8 1 8 9
M  V30 9 1 9 10
M  V30 10 1 10 11
M  V30 11 2 11 12
M  V30 12 1 12 13
M  V30 13 2 13 14
M  V30 14 1 14 15
M  V30 15 1 14 16
M  V30 16 1 16 17
M  V30 17 2 16 18
M  V30 18 2 9 19
M  V30 19 1 19 20
M  V30 20 2 20 21
M  V30 21 1 21 22
M  V30 22 1 22 23
M  V30 23 1 21 3
M  V30 24 1 19 5
M  V30 25 1 18 11
M  V30 26 1 1 24
M  V30 27 1 1 25
M  V30 28 1 1 26
M  V30 29 1 4 27
M  V30 30 1 7 28
M  V30 31 1 10 29
M  V30 32 1 12 30
M  V30 33 1 13 31
M  V30 34 1 18 32
M  V30 35 1 20 33
M  V30 36 1 23 34
M  V30 37 1 23 35
M  V30 38 1 23 36
M  V30 END BOND
M  V30 END CTAB
M  END
>  <Dataset>  (382) 
ChEMBL_Kinases

>  <Ligand_Instance>  (382) 
nan

>  <PDB_ID>  (382) 
nan

>  <Standardized_SMILES>  (382) 
COc1cc2ncnc(Nc3ccc(F)c(Cl)c3)c2cc1OC

>  <Name>  (382) 
nan

>  <Pocket>  (382) 
nan

>  <ATP_Site>  (382) 
nan

>  <Peripheral>  (382) 
nan

>  <Num_H_Atoms_ProtBoundConf>  (382) 
nan

>  <Num_Resolved_Atoms>  (382) 
nan

>  <Num_Not_Resolved_Atoms>  (382) 
nan

$$$$
CHEMBL301138
     RDKit          3D

  0  0  0  0  0  0  0  0  0  0999 V3000
M  V30 BEGIN CTAB
M  V30 COUNTS 40 44 0 0 0
M  V30 BEGIN ATOM
M  V30 1 C 1.901796 -2.731549 4.118247 0
M  V30 2 N 1.152163 -2.295172 2.978674 0
M  V30 3 C 1.566138 -2.441076 1.716255 0
M  V30 4 C 0.630069 -1.923338 0.824751 0
M  V30 5 C 0.765443 -1.933963 -0.624199 0
M  V30 6 C 0.543389 -1.039602 -1.573523 0
M  V30 7 C 0.071726 0.325709 -1.538522 0
M  V30 8 C -0.881622 0.833953 -2.431286 0
M  V30 9 O -1.127599 2.083664 -2.207880 0
M  V30 10 C -0.414446 2.502363 -1.215643 0
M  V30 11 C -0.261018 3.714194 -0.548221 0
M  V30 12 C 0.602781 3.841133 0.497465 0
M  V30 13 C 1.358950 2.755249 0.927884 0
M  V30 14 C 1.239033 1.520850 0.290502 0
M  V30 15 C 0.356116 1.425889 -0.763773 0
M  V30 16 C 0.877883 -1.671399 -2.872370 0
M  V30 17 O 0.802861 -1.147155 -4.032895 0
M  V30 18 N 1.320793 -3.007631 -2.682296 0
M  V30 19 C 1.250632 -3.174115 -1.273252 0
M  V30 20 O 1.585730 -4.287955 -0.740197 0
M  V30 21 C -0.355142 -1.466780 1.636639 0
M  V30 22 C -1.562120 -0.852268 1.376686 0
M  V30 23 C -2.385842 -0.495166 2.427736 0
M  V30 24 C -2.069735 -0.720347 3.753488 0
M  V30 25 C -0.847504 -1.343916 4.033294 0
M  V30 26 C -0.048386 -1.688327 2.969554 0
M  V30 27 H 2.561839 -3.589240 3.847195 0
M  V30 28 H 1.244916 -3.151114 4.929936 0
M  V30 29 H 2.421657 -1.879928 4.553664 0
M  V30 30 H 2.506616 -2.899733 1.403301 0
M  V30 31 H -1.431415 0.364866 -3.255294 0
M  V30 32 H -0.883777 4.500737 -0.946988 0
M  V30 33 H 0.628241 4.834906 0.928941 0
M  V30 34 H 2.019560 2.909156 1.750309 0
M  V30 35 H 1.821730 0.671934 0.609540 0
M  V30 36 H 1.623396 -3.697220 -3.402185 0
M  V30 37 H -1.837487 -0.667521 0.350461 0
M  V30 38 H -3.332337 -0.013563 2.235398 0
M  V30 39 H -2.666343 -0.466789 4.606342 0
M  V30 40 H -0.545208 -1.548178 5.048090 0
M  V30 END ATOM
M  V30 BEGIN BOND
M  V30 1 1 1 2
M  V30 2 1 2 3
M  V30 3 2 3 4
M  V30 4 1 4 5
M  V30 5 2 5 6
M  V30 6 1 6 7
M  V30 7 2 7 8
M  V30 8 1 8 9
M  V30 9 1 9 10
M  V30 10 2 10 11
M  V30 11 1 11 12
M  V30 12 2 12 13
M  V30 13 1 13 14
M  V30 14 2 14 15
M  V30 15 1 6 16
M  V30 16 2 16 17
M  V30 17 1 16 18
M  V30 18 1 18 19
M  V30 19 2 19 20
M  V30 20 1 4 21
M  V30 21 2 21 22
M  V30 22 1 22 23
M  V30 23 2 23 24
M  V30 24 1 24 25
M  V30 25 2 25 26
M  V30 26 1 26 2
M  V30 27 1 19 5
M  V30 28 1 26 21
M  V30 29 1 15 7
M  V30 30 1 15 10
M  V30 31 1 1 27
M  V30 32 1 1 28
M  V30 33 1 1 29
M  V30 34 1 3 30
M  V30 35 1 8 31
M  V30 36 1 11 32
M  V30 37 1 12 33
M  V30 38 1 13 34
M  V30 39 1 14 35
M  V30 40 1 18 36
M  V30 41 1 22 37
M  V30 42 1 23 38
M  V30 43 1 24 39
M  V30 44 1 25 40
M  V30 END BOND
M  V30 END CTAB
M  END
>  <Dataset>  (383) 
ChEMBL_Kinases

>  <Ligand_Instance>  (383) 
nan

>  <PDB_ID>  (383) 
nan

>  <Standardized_SMILES>  (383) 
Cn1cc(C2=C(c3coc4ccccc34)C(=O)NC2=O)c2ccccc21

>  <Name>  (383) 
nan

>  <Pocket>  (383) 
nan

>  <ATP_Site>  (383) 
nan

>  <Peripheral>  (383) 
nan

>  <Num_H_Atoms_ProtBoundConf>  (383) 
nan

>  <Num_Resolved_Atoms>  (383) 
nan

>  <Num_Not_Resolved_Atoms>  (383) 
nan

$$$$
CHEMBL301228
     RDKit          3D

  0  0  0  0  0  0  0  0  0  0999 V3000
M  V30 BEGIN CTAB
M  V30 COUNTS 49 54 0 0 0
M  V30 BEGIN ATOM
M  V30 1 C 2.239485 -0.794041 3.721735 0
M  V30 2 C 1.173108 -1.696407 3.116386 0
M  V30 3 N 1.125413 -1.649030 1.695242 0
M  V30 4 C 1.977079 -2.509597 1.067323 0
M  V30 5 C 2.948137 -3.427772 1.503075 0
M  V30 6 C 3.732346 -4.217915 0.717179 0
M  V30 7 C 3.542798 -4.092805 -0.634166 0
M  V30 8 C 2.621078 -3.225321 -1.150490 0
M  V30 9 C 1.868781 -2.462568 -0.292776 0
M  V30 10 C 0.893146 -1.516179 -0.497803 0
M  V30 11 C 0.378200 -1.087118 -1.728819 0
M  V30 12 C -0.612340 -0.133260 -1.666553 0
M  V30 13 C -1.025023 0.329047 -0.445497 0
M  V30 14 C -1.975947 1.273542 -0.169502 0
M  V30 15 C -2.837906 2.056642 -0.842410 0
M  V30 16 C -3.714974 2.933367 -0.258212 0
M  V30 17 C -3.761446 3.064096 1.110870 0
M  V30 18 C -2.879291 2.261965 1.784298 0
M  V30 19 C -1.963209 1.349120 1.214997 0
M  V30 20 N -1.052937 0.500611 1.802032 0
M  V30 21 C -0.966749 0.569351 3.198765 0
M  V30 22 C -1.994689 -0.346378 3.880727 0
M  V30 23 C -0.502531 -0.105454 0.764249 0
M  V30 24 C 0.466455 -1.042544 0.728944 0
M  V30 25 C -0.929032 0.102020 -3.047247 0
M  V30 26 O -1.743536 0.856486 -3.592189 0
M  V30 27 N -0.161392 -0.678839 -3.940516 0
M  V30 28 C 0.702671 -1.478461 -3.131573 0
M  V30 29 H 3.244424 -1.264756 3.744480 0
M  V30 30 H 1.996142 -0.518684 4.764316 0
M  V30 31 H 2.368056 0.126318 3.079341 0
M  V30 32 H 0.225476 -1.753043 3.667251 0
M  V30 33 H 1.564695 -2.740496 3.470625 0
M  V30 34 H 3.153180 -3.576391 2.577209 0
M  V30 35 H 4.463269 -4.906158 1.111567 0
M  V30 36 H 4.123012 -4.682077 -1.322843 0
M  V30 37 H 2.513375 -3.165542 -2.212125 0
M  V30 38 H -2.918882 2.066410 -1.896504 0
M  V30 39 H -4.399636 3.552272 -0.833523 0
M  V30 40 H -4.446260 3.749723 1.587090 0
M  V30 41 H -2.980312 2.422840 2.876073 0
M  V30 42 H -1.292451 1.627162 3.578242 0
M  V30 43 H -0.032705 0.492418 3.706888 0
M  V30 44 H -1.611626 -0.731231 4.838098 0
M  V30 45 H -2.962093 0.162729 4.021970 0
M  V30 46 H -2.132880 -1.210162 3.201218 0
M  V30 47 H -0.088058 -0.794799 -4.972704 0
M  V30 48 H 0.507967 -2.571541 -3.308524 0
M  V30 49 H 1.750511 -1.225002 -3.340619 0
M  V30 END ATOM
M  V30 BEGIN BOND
M  V30 1 1 1 2
M  V30 2 1 2 3
M  V30 3 1 3 4
M  V30 4 2 4 5
M  V30 5 1 5 6
M  V30 6 2 6 7
M  V30 7 1 7 8
M  V30 8 2 8 9
M  V30 9 1 9 10
M  V30 10 2 10 11
M  V30 11 1 11 12
M  V30 12 2 12 13
M  V30 13 1 13 14
M  V30 14 2 14 15
M  V30 15 1 15 16
M  V30 16 2 16 17
M  V30 17 1 17 18
M  V30 18 2 18 19
M  V30 19 1 19 20
M  V30 20 1 20 21
M  V30 21 1 21 22
M  V30 22 1 20 23
M  V30 23 2 23 24
M  V30 24 1 12 25
M  V30 25 2 25 26
M  V30 26 1 25 27
M  V30 27 1 27 28
M  V30 28 1 24 3
M  V30 29 1 9 4
M  V30 30 1 24 10
M  V30 31 1 28 11
M  V30 32 1 23 13
M  V30 33 1 19 14
M  V30 34 1 1 29
M  V30 35 1 1 30
M  V30 36 1 1 31
M  V30 37 1 2 32
M  V30 38 1 2 33
M  V30 39 1 5 34
M  V30 40 1 6 35
M  V30 41 1 7 36
M  V30 42 1 8 37
M  V30 43 1 15 38
M  V30 44 1 16 39
M  V30 45 1 17 40
M  V30 46 1 18 41
M  V30 47 1 21 42
M  V30 48 1 21 43
M  V30 49 1 22 44
M  V30 50 1 22 45
M  V30 51 1 22 46
M  V30 52 1 27 47
M  V30 53 1 28 48
M  V30 54 1 28 49
M  V30 END BOND
M  V30 END CTAB
M  END
>  <Dataset>  (384) 
ChEMBL_Kinases

>  <Ligand_Instance>  (384) 
nan

>  <PDB_ID>  (384) 
nan

>  <Standardized_SMILES>  (384) 
CCn1c2ccccc2c2c3c(c4c5ccccc5n(CC)c4c21)C(=O)NC3

>  <Name>  (384) 
nan

>  <Pocket>  (384) 
nan

>  <ATP_Site>  (384) 
nan

>  <Peripheral>  (384) 
nan

>  <Num_H_Atoms_ProtBoundConf>  (384) 
nan

>  <Num_Resolved_Atoms>  (384) 
nan

>  <Num_Not_Resolved_Atoms>  (384) 
nan

$$$$
CHEMBL301612
     RDKit          3D

  0  0  0  0  0  0  0  0  0  0999 V3000
M  V30 BEGIN CTAB
M  V30 COUNTS 41 44 0 0 0
M  V30 BEGIN ATOM
M  V30 1 C 1.739254 -2.742443 0.073747 0
M  V30 2 N 1.517629 -1.317373 -0.087816 0
M  V30 3 C 2.287888 -0.637528 -0.978388 0
M  V30 4 O 3.182669 -1.221882 -1.653164 0
M  V30 5 C 2.074023 0.719726 -1.133168 0
M  V30 6 C 2.848295 1.536774 -2.076644 0
M  V30 7 C 2.207667 1.523225 -3.306746 0
M  V30 8 Cl 0.737362 0.665075 -3.729471 0
M  V30 9 C 2.704257 2.230163 -4.381583 0
M  V30 10 C 3.881653 2.965872 -4.191569 0
M  V30 11 C 4.516809 2.971042 -2.946447 0
M  V30 12 C 4.002373 2.248889 -1.864043 0
M  V30 13 Cl 4.655681 2.147186 -0.267763 0
M  V30 14 C 1.082691 1.293472 -0.358899 0
M  V30 15 C 0.281026 0.610818 0.564519 0
M  V30 16 C -0.640199 1.385960 1.224137 0
M  V30 17 N -1.351713 0.653704 2.080902 0
M  V30 18 C -1.179498 -0.692052 2.270285 0
M  V30 19 N -1.901021 -1.434668 3.185019 0
M  V30 20 C -2.572953 -2.169720 4.117636 0
M  V30 21 C -3.920757 -2.181231 4.511906 0
M  V30 22 C -4.464872 -3.028697 5.441865 0
M  V30 23 C -3.519858 -3.890503 5.967585 0
M  V30 24 C -2.186041 -4.013897 5.700773 0
M  V30 25 C -1.745831 -3.117714 4.748959 0
M  V30 26 N -0.227480 -1.351567 1.547636 0
M  V30 27 C 0.564362 -0.729321 0.646575 0
M  V30 28 H 2.772209 -3.021343 -0.241298 0
M  V30 29 H 1.702641 -3.019219 1.154237 0
M  V30 30 H 1.050069 -3.343435 -0.532955 0
M  V30 31 H 2.310090 2.304544 -5.375620 0
M  V30 32 H 4.405426 3.571993 -4.915185 0
M  V30 33 H 5.431632 3.526551 -2.746077 0
M  V30 34 H 0.958895 2.354781 -0.512851 0
M  V30 35 H -0.732369 2.440322 1.038787 0
M  V30 36 H -2.716849 -1.425496 2.482459 0
M  V30 37 H -4.501689 -1.428943 3.992281 0
M  V30 38 H -5.508573 -2.941986 5.673031 0
M  V30 39 H -3.926299 -4.577665 6.717120 0
M  V30 40 H -1.580397 -4.750876 6.191781 0
M  V30 41 H -0.685366 -3.208591 4.523531 0
M  V30 END ATOM
M  V30 BEGIN BOND
M  V30 1 1 1 2
M  V30 2 1 2 3
M  V30 3 2 3 4
M  V30 4 1 3 5
M  V30 5 1 5 6
M  V30 6 2 6 7
M  V30 7 1 7 8
M  V30 8 1 7 9
M  V30 9 2 9 10
M  V30 10 1 10 11
M  V30 11 2 11 12
M  V30 12 1 12 13
M  V30 13 2 5 14
M  V30 14 1 14 15
M  V30 15 2 15 16
M  V30 16 1 16 17
M  V30 17 2 17 18
M  V30 18 1 18 19
M  V30 19 1 19 20
M  V30 20 2 20 21
M  V30 21 1 21 22
M  V30 22 2 22 23
M  V30 23 1 23 24
M  V30 24 2 24 25
M  V30 25 1 18 26
M  V30 26 2 26 27
M  V30 27 1 27 2
M  V30 28 1 12 6
M  V30 29 1 27 15
M  V30 30 1 25 20
M  V30 31 1 1 28
M  V30 32 1 1 29
M  V30 33 1 1 30
M  V30 34 1 9 31
M  V30 35 1 10 32
M  V30 36 1 11 33
M  V30 37 1 14 34
M  V30 38 1 16 35
M  V30 39 1 19 36
M  V30 40 1 21 37
M  V30 41 1 22 38
M  V30 42 1 23 39
M  V30 43 1 24 40
M  V30 44 1 25 41
M  V30 END BOND
M  V30 END CTAB
M  END
>  <Dataset>  (385) 
ChEMBL_Kinases

>  <Ligand_Instance>  (385) 
nan

>  <PDB_ID>  (385) 
nan

>  <Standardized_SMILES>  (385) 
Cn1c(=O)c(-c2c(Cl)cccc2Cl)cc2cnc(Nc3ccccc3)nc21

>  <Name>  (385) 
nan

>  <Pocket>  (385) 
nan

>  <ATP_Site>  (385) 
nan

>  <Peripheral>  (385) 
nan

>  <Num_H_Atoms_ProtBoundConf>  (385) 
nan

>  <Num_Resolved_Atoms>  (385) 
nan

>  <Num_Not_Resolved_Atoms>  (385) 
nan

$$$$
CHEMBL301620
     RDKit          3D

  0  0  0  0  0  0  0  0  0  0999 V3000
M  V30 BEGIN CTAB
M  V30 COUNTS 43 48 0 0 0
M  V30 BEGIN ATOM
M  V30 1 C 0.585163 -2.048875 3.711670 0
M  V30 2 N 0.647005 -2.051096 2.279455 0
M  V30 3 C 0.960255 -3.203832 1.658184 0
M  V30 4 C 1.245654 -4.509020 2.087399 0
M  V30 5 C 1.547144 -5.579663 1.294003 0
M  V30 6 C 1.572814 -5.354045 -0.055636 0
M  V30 7 C 1.305290 -4.106401 -0.556763 0
M  V30 8 C 1.011250 -3.084068 0.305207 0
M  V30 9 C 0.704536 -1.754713 0.091909 0
M  V30 10 C 0.621087 -1.071590 -1.126722 0
M  V30 11 C 0.303558 0.264763 -1.059838 0
M  V30 12 C 0.088724 0.851746 0.157001 0
M  V30 13 C -0.236628 2.139835 0.435757 0
M  V30 14 C -0.464092 3.293254 -0.220172 0
M  V30 15 C -0.785598 4.494433 0.365365 0
M  V30 16 C -0.898468 4.585387 1.737149 0
M  V30 17 C -0.666021 3.408084 2.401989 0
M  V30 18 C -0.336143 2.172535 1.810600 0
M  V30 19 N -0.088525 0.963680 2.403232 0
M  V30 20 C -0.170700 0.815888 3.813761 0
M  V30 21 C 0.171102 0.171040 1.363456 0
M  V30 22 C 0.484763 -1.145500 1.319550 0
M  V30 23 C 0.293852 0.664783 -2.444900 0
M  V30 24 O 0.070619 1.756340 -2.982439 0
M  V30 25 N 0.593655 -0.383453 -3.337007 0
M  V30 26 C 0.825265 -1.551701 -2.523126 0
M  V30 27 H 0.899532 -3.068151 4.129649 0
M  V30 28 H 1.397315 -1.424413 4.191401 0
M  V30 29 H -0.413850 -1.954931 4.151306 0
M  V30 30 H 1.242767 -4.764880 3.159056 0
M  V30 31 H 1.758964 -6.562128 1.668302 0
M  V30 32 H 1.800584 -6.142256 -0.738726 0
M  V30 33 H 1.335330 -3.970790 -1.628381 0
M  V30 34 H -0.413263 3.379492 -1.277181 0
M  V30 35 H -0.963071 5.412025 -0.206515 0
M  V30 36 H -1.148786 5.517772 2.203345 0
M  V30 37 H -0.773432 3.563799 3.487188 0
M  V30 38 H -0.551938 1.793721 4.272209 0
M  V30 39 H -1.006771 0.142358 4.161991 0
M  V30 40 H 0.798610 0.678670 4.288599 0
M  V30 41 H 0.677915 -0.492183 -4.367570 0
M  V30 42 H 1.861676 -1.905934 -2.702248 0
M  V30 43 H 0.087820 -2.319368 -2.832715 0
M  V30 END ATOM
M  V30 BEGIN BOND
M  V30 1 1 1 2
M  V30 2 1 2 3
M  V30 3 2 3 4
M  V30 4 1 4 5
M  V30 5 2 5 6
M  V30 6 1 6 7
M  V30 7 2 7 8
M  V30 8 1 8 9
M  V30 9 2 9 10
M  V30 10 1 10 11
M  V30 11 2 11 12
M  V30 12 1 12 13
M  V30 13 2 13 14
M  V30 14 1 14 15
M  V30 15 2 15 16
M  V30 16 1 16 17
M  V30 17 2 17 18
M  V30 18 1 18 19
M  V30 19 1 19 20
M  V30 20 1 19 21
M  V30 21 2 21 22
M  V30 22 1 11 23
M  V30 23 2 23 24
M  V30 24 1 23 25
M  V30 25 1 25 26
M  V30 26 1 22 2
M  V30 27 1 8 3
M  V30 28 1 22 9
M  V30 29 1 26 10
M  V30 30 1 21 12
M  V30 31 1 18 13
M  V30 32 1 1 27
M  V30 33 1 1 28
M  V30 34 1 1 29
M  V30 35 1 4 30
M  V30 36 1 5 31
M  V30 37 1 6 32
M  V30 38 1 7 33
M  V30 39 1 14 34
M  V30 40 1 15 35
M  V30 41 1 16 36
M  V30 42 1 17 37
M  V30 43 1 20 38
M  V30 44 1 20 39
M  V30 45 1 20 40
M  V30 46 1 25 41
M  V30 47 1 26 42
M  V30 48 1 26 43
M  V30 END BOND
M  V30 END CTAB
M  END
>  <Dataset>  (386) 
ChEMBL_Kinases

>  <Ligand_Instance>  (386) 
nan

>  <PDB_ID>  (386) 
nan

>  <Standardized_SMILES>  (386) 
Cn1c2ccccc2c2c3c(c4c5ccccc5n(C)c4c21)C(=O)NC3

>  <Name>  (386) 
nan

>  <Pocket>  (386) 
nan

>  <ATP_Site>  (386) 
nan

>  <Peripheral>  (386) 
nan

>  <Num_H_Atoms_ProtBoundConf>  (386) 
nan

>  <Num_Resolved_Atoms>  (386) 
nan

>  <Num_Not_Resolved_Atoms>  (386) 
nan

$$$$
CHEMBL303144
     RDKit          3D

  0  0  0  0  0  0  0  0  0  0999 V3000
M  V30 BEGIN CTAB
M  V30 COUNTS 67 71 0 0 0
M  V30 BEGIN ATOM
M  V30 1 C 2.544621 2.395792 4.037271 0
M  V30 2 C 2.978375 1.572575 2.853140 0 CFG=2
M  V30 3 N 2.459659 0.234500 2.942467 0
M  V30 4 C 1.247180 -0.458329 3.008732 0
M  V30 5 C 0.716405 -0.816234 1.798874 0
M  V30 6 C -0.473895 -1.504457 1.700855 0
M  V30 7 C -1.203800 -1.971921 0.533424 0
M  V30 8 C -1.765296 -1.128870 -0.387805 0
M  V30 9 C -1.829935 0.320664 -0.519468 0
M  V30 10 C -3.156330 0.761587 -0.425058 0
M  V30 11 C -3.476093 2.101890 -0.522216 0
M  V30 12 C -2.484206 3.044324 -0.716410 0
M  V30 13 C -1.193353 2.587086 -0.805599 0
M  V30 14 C -0.048290 3.529227 -1.015594 0
M  V30 15 F 0.378236 3.909217 0.254561 0
M  V30 16 F 0.970967 2.905178 -1.699368 0
M  V30 17 F -0.505509 4.647621 -1.669460 0
M  V30 18 C -0.849316 1.260642 -0.712354 0
M  V30 19 N -2.340843 -1.943959 -1.301109 0
M  V30 20 C -2.143719 -3.246448 -0.959146 0
M  V30 21 C -2.685070 -4.364255 -1.812194 0
M  V30 22 C -4.178818 -4.356591 -1.853711 0
M  V30 23 C -4.782132 -3.795272 -3.094682 0
M  V30 24 N -3.930239 -2.968786 -3.868096 0
M  V30 25 C -2.658251 -3.509492 -4.188910 0
M  V30 26 C -2.021315 -4.375332 -3.164225 0
M  V30 27 N -1.435416 -3.227551 0.183008 0
M  V30 28 C -1.036491 -4.447530 0.848949 0
M  V30 29 C -1.136909 -1.833670 2.888425 0
M  V30 30 C -0.579824 -1.460412 4.102792 0
M  V30 31 N 0.586769 -0.788172 4.143872 0
M  V30 32 C 4.449733 1.553804 2.801058 0
M  V30 33 C 5.311760 2.251115 1.984193 0
M  V30 34 C 6.671055 2.107999 2.075134 0
M  V30 35 C 7.230002 1.248919 3.000617 0
M  V30 36 C 6.390122 0.546495 3.822104 0
M  V30 37 C 5.011629 0.691359 3.730162 0
M  V30 38 H 3.198783 3.302111 4.152968 0
M  V30 39 H 2.608253 1.788263 4.963882 0
M  V30 40 H 1.508738 2.765347 3.957198 0
M  V30 41 H 2.587066 2.053931 1.929267 0
M  V30 42 H 3.135206 -0.580153 2.976474 0
M  V30 43 H 1.150209 -0.611121 0.840659 0
M  V30 44 H -4.046449 0.130917 -0.271761 0
M  V30 45 H -4.492231 2.482530 -0.454117 0
M  V30 46 H -2.728749 4.082062 -0.791887 0
M  V30 47 H 0.123756 0.818591 -0.771709 0
M  V30 48 H -2.369714 -5.294667 -1.293870 0
M  V30 49 H -4.572926 -5.405496 -1.751823 0
M  V30 50 H -4.550302 -3.853228 -0.918941 0
M  V30 51 H -5.675914 -3.199192 -2.795805 0
M  V30 52 H -5.169936 -4.597908 -3.770069 0
M  V30 53 H -3.968535 -1.961679 -3.680272 0
M  V30 54 H -1.975118 -2.657312 -4.420748 0
M  V30 55 H -2.745625 -4.051235 -5.175114 0
M  V30 56 H -1.976569 -5.425164 -3.528437 0
M  V30 57 H -0.956416 -4.079380 -2.985553 0
M  V30 58 H -0.544244 -4.222160 1.827320 0
M  V30 59 H -0.271588 -4.988841 0.227767 0
M  V30 60 H -1.893931 -5.127202 0.967158 0
M  V30 61 H -2.070001 -2.363125 3.046712 0
M  V30 62 H -0.992688 -1.654915 5.083616 0
M  V30 63 H 4.790500 2.907586 1.281735 0
M  V30 64 H 7.281534 2.687779 1.401144 0
M  V30 65 H 8.298612 1.118970 3.091146 0
M  V30 66 H 6.843077 -0.122008 4.541306 0
M  V30 67 H 4.454501 0.083773 4.432294 0
M  V30 END ATOM
M  V30 BEGIN BOND
M  V30 1 1 1 2
M  V30 2 1 2 3
M  V30 3 1 3 4
M  V30 4 2 4 5
M  V30 5 1 5 6
M  V30 6 1 6 7
M  V30 7 2 7 8
M  V30 8 1 8 9
M  V30 9 2 9 10
M  V30 10 1 10 11
M  V30 11 2 11 12
M  V30 12 1 12 13
M  V30 13 1 13 14
M  V30 14 1 14 15
M  V30 15 1 14 16
M  V30 16 1 14 17
M  V30 17 2 13 18
M  V30 18 1 8 19
M  V30 19 2 19 20
M  V30 20 1 20 21
M  V30 21 1 21 22
M  V30 22 1 22 23
M  V30 23 1 23 24
M  V30 24 1 24 25
M  V30 25 1 25 26
M  V30 26 1 20 27
M  V30 27 1 27 28
M  V30 28 2 6 29
M  V30 29 1 29 30
M  V30 30 2 30 31
M  V30 31 1 2 32
M  V30 32 2 32 33
M  V30 33 1 33 34
M  V30 34 2 34 35
M  V30 35 1 35 36
M  V30 36 2 36 37
M  V30 37 1 31 4
M  V30 38 1 37 32
M  V30 39 1 27 7
M  V30 40 1 18 9
M  V30 41 1 26 21
M  V30 42 1 1 38
M  V30 43 1 1 39
M  V30 44 1 1 40
M  V30 45 1 2 41 CFG=3
M  V30 46 1 3 42
M  V30 47 1 5 43
M  V30 48 1 10 44
M  V30 49 1 11 45
M  V30 50 1 12 46
M  V30 51 1 18 47
M  V30 52 1 21 48
M  V30 53 1 22 49
M  V30 54 1 22 50
M  V30 55 1 23 51
M  V30 56 1 23 52
M  V30 57 1 24 53
M  V30 58 1 25 54
M  V30 59 1 25 55
M  V30 60 1 26 56
M  V30 61 1 26 57
M  V30 62 1 28 58
M  V30 63 1 28 59
M  V30 64 1 28 60
M  V30 65 1 29 61
M  V30 66 1 30 62
M  V30 67 1 33 63
M  V30 68 1 34 64
M  V30 69 1 35 65
M  V30 70 1 36 66
M  V30 71 1 37 67
M  V30 END BOND
M  V30 END CTAB
M  END
>  <Dataset>  (387) 
ChEMBL_Kinases

>  <Ligand_Instance>  (387) 
nan

>  <PDB_ID>  (387) 
nan

>  <Standardized_SMILES>  (387) 
C[C@H](Nc1cc(-c2c(-c3cccc(C(F)(F)F)c3)nc(C3CCNCC3)n2C)ccn1)c1ccccc1

>  <Name>  (387) 
nan

>  <Pocket>  (387) 
nan

>  <ATP_Site>  (387) 
nan

>  <Peripheral>  (387) 
nan

>  <Num_H_Atoms_ProtBoundConf>  (387) 
nan

>  <Num_Resolved_Atoms>  (387) 
nan

>  <Num_Not_Resolved_Atoms>  (387) 
nan

$$$$
CHEMBL299225
     RDKit          3D

  0  0  0  0  0  0  0  0  0  0999 V3000
M  V30 BEGIN CTAB
M  V30 COUNTS 61 61 0 0 0
M  V30 BEGIN ATOM
M  V30 1 C 0.961904 -3.965019 0.418636 0
M  V30 2 C 2.424977 -3.595349 0.290873 0
M  V30 3 C 2.713458 -2.357373 1.099875 0
M  V30 4 C 4.175481 -2.012092 0.955248 0
M  V30 5 C 4.563394 -0.792792 1.720897 0
M  V30 6 C 3.859193 0.462165 1.333011 0
M  V30 7 C 4.112952 0.820961 -0.115026 0
M  V30 8 C 3.412630 2.092237 -0.511009 0
M  V30 9 C 1.919133 2.065365 -0.379365 0
M  V30 10 C 1.355399 0.995299 -1.252299 0
M  V30 11 C -0.122943 0.831994 -1.237241 0
M  V30 12 C -0.919330 2.002857 -1.656263 0
M  V30 13 C -2.420667 1.717435 -1.600158 0
M  V30 14 C -2.840068 1.362935 -0.215828 0
M  V30 15 O -2.830543 2.253476 0.666870 0
M  V30 16 O -3.209075 0.036752 -0.049417 0
M  V30 17 C -3.620780 -0.371075 1.245064 0
M  V30 18 C -3.984088 -1.839107 1.269188 0
M  V30 19 C -2.801411 -2.727487 0.990713 0
M  V30 20 O -2.345093 -2.577640 -0.315921 0
M  V30 21 C -4.539635 -2.169609 2.634774 0
M  V30 22 C -5.645712 -3.163293 2.427061 0
M  V30 23 C -5.843277 -3.134848 0.958141 0
M  V30 24 O -6.654772 -3.910661 0.387591 0
M  V30 25 O -5.023699 -2.165943 0.398841 0
M  V30 26 H 0.414508 -3.472233 -0.389331 0
M  V30 27 H 0.873843 -5.054829 0.286342 0
M  V30 28 H 0.581148 -3.659512 1.420166 0
M  V30 29 H 3.054114 -4.446151 0.657825 0
M  V30 30 H 2.639082 -3.359815 -0.768219 0
M  V30 31 H 2.061514 -1.538972 0.744404 0
M  V30 32 H 2.445983 -2.528054 2.172222 0
M  V30 33 H 4.816821 -2.841643 1.311713 0
M  V30 34 H 4.399730 -1.905034 -0.118426 0
M  V30 35 H 5.656709 -0.627422 1.509566 0
M  V30 36 H 4.503879 -0.959267 2.806553 0
M  V30 37 H 2.759243 0.279328 1.502283 0
M  V30 38 H 4.168338 1.260749 2.021351 0
M  V30 39 H 3.852685 -0.039479 -0.724781 0
M  V30 40 H 5.201183 1.047212 -0.180629 0
M  V30 41 H 3.648085 2.394149 -1.550668 0
M  V30 42 H 3.781770 2.918518 0.130965 0
M  V30 43 H 1.575783 1.976937 0.676612 0
M  V30 44 H 1.588418 3.041357 -0.807866 0
M  V30 45 H 1.815287 0.006120 -1.054659 0
M  V30 46 H 1.687017 1.239513 -2.298848 0
M  V30 47 H -0.362972 -0.016877 -1.910073 0
M  V30 48 H -0.478413 0.518780 -0.235116 0
M  V30 49 H -0.763957 2.919274 -1.080551 0
M  V30 50 H -0.734934 2.269890 -2.736380 0
M  V30 51 H -2.890972 2.716483 -1.838736 0
M  V30 52 H -2.756995 1.011512 -2.366198 0
M  V30 53 H -4.490924 0.206485 1.583699 0
M  V30 54 H -2.785181 -0.230563 1.958063 0
M  V30 55 H -1.998870 -2.491295 1.747498 0
M  V30 56 H -3.142049 -3.771713 1.125231 0
M  V30 57 H -2.187954 -3.469870 -0.726622 0
M  V30 58 H -4.992526 -1.259473 3.113626 0
M  V30 59 H -3.755845 -2.623766 3.287257 0
M  V30 60 H -6.579843 -2.860858 2.929953 0
M  V30 61 H -5.328946 -4.169284 2.772947 0
M  V30 END ATOM
M  V30 BEGIN BOND
M  V30 1 1 1 2
M  V30 2 1 2 3
M  V30 3 1 3 4
M  V30 4 1 4 5
M  V30 5 1 5 6
M  V30 6 1 6 7
M  V30 7 1 7 8
M  V30 8 1 8 9
M  V30 9 1 9 10
M  V30 10 1 10 11
M  V30 11 1 11 12
M  V30 12 1 12 13
M  V30 13 1 13 14
M  V30 14 2 14 15
M  V30 15 1 14 16
M  V30 16 1 16 17
M  V30 17 1 17 18
M  V30 18 1 18 19
M  V30 19 1 19 20
M  V30 20 1 18 21
M  V30 21 1 21 22
M  V30 22 1 22 23
M  V30 23 2 23 24
M  V30 24 1 23 25
M  V30 25 1 25 18
M  V30 26 1 1 26
M  V30 27 1 1 27
M  V30 28 1 1 28
M  V30 29 1 2 29
M  V30 30 1 2 30
M  V30 31 1 3 31
M  V30 32 1 3 32
M  V30 33 1 4 33
M  V30 34 1 4 34
M  V30 35 1 5 35
M  V30 36 1 5 36
M  V30 37 1 6 37
M  V30 38 1 6 38
M  V30 39 1 7 39
M  V30 40 1 7 40
M  V30 41 1 8 41
M  V30 42 1 8 42
M  V30 43 1 9 43
M  V30 44 1 9 44
M  V30 45 1 10 45
M  V30 46 1 10 46
M  V30 47 1 11 47
M  V30 48 1 11 48
M  V30 49 1 12 49
M  V30 50 1 12 50
M  V30 51 1 13 51
M  V30 52 1 13 52
M  V30 53 1 17 53
M  V30 54 1 17 54
M  V30 55 1 19 55
M  V30 56 1 19 56
M  V30 57 1 20 57
M  V30 58 1 21 58
M  V30 59 1 21 59
M  V30 60 1 22 60
M  V30 61 1 22 61
M  V30 END BOND
M  V30 END CTAB
M  END
>  <Dataset>  (388) 
ChEMBL_Kinases

>  <Ligand_Instance>  (388) 
nan

>  <PDB_ID>  (388) 
nan

>  <Standardized_SMILES>  (388) 
CCCCCCCCCCCCCC(=O)OCC1(CO)CCC(=O)O1

>  <Name>  (388) 
nan

>  <Pocket>  (388) 
nan

>  <ATP_Site>  (388) 
nan

>  <Peripheral>  (388) 
nan

>  <Num_H_Atoms_ProtBoundConf>  (388) 
nan

>  <Num_Resolved_Atoms>  (388) 
nan

>  <Num_Not_Resolved_Atoms>  (388) 
nan

$$$$
CHEMBL249959
     RDKit          3D

  0  0  0  0  0  0  0  0  0  0999 V3000
M  V30 BEGIN CTAB
M  V30 COUNTS 61 65 0 0 0
M  V30 BEGIN ATOM
M  V30 1 N 10.031032 -3.794997 3.523586 0
M  V30 2 C 8.626750 -3.780518 3.583744 0
M  V30 3 O 8.127793 -4.720999 4.252246 0
M  V30 4 C 7.944620 -2.701510 2.880194 0
M  V30 5 C 8.572055 -1.704560 2.153749 0
M  V30 6 C 7.800909 -0.741009 1.536210 0
M  V30 7 C 6.420662 -0.700355 1.593147 0
M  V30 8 N 5.486602 0.133065 1.076672 0
M  V30 9 C 4.270448 -0.339984 1.478851 0
M  V30 10 C 2.996499 0.282256 1.129676 0
M  V30 11 C 2.966136 1.418620 0.347927 0
M  V30 12 C 1.697231 1.947499 0.062006 0
M  V30 13 C 0.489836 1.388534 0.522356 0
M  V30 14 O -0.495450 2.158427 0.055715 0
M  V30 15 C -1.854645 2.233261 0.067109 0
M  V30 16 C -2.668118 1.166535 -0.584322 0
M  V30 17 C -4.176251 1.478807 -0.434644 0
M  V30 18 C -4.960765 0.653157 -1.438961 0
M  V30 19 N -4.237618 -0.554801 -1.778037 0
M  V30 20 C -4.972494 -1.503579 -2.542034 0
M  V30 21 C -6.171446 -1.960624 -1.793416 0
M  V30 22 C -7.440460 -1.425287 -1.846026 0
M  V30 23 C -8.476184 -1.933707 -1.098162 0
M  V30 24 C -8.247658 -3.019716 -0.261344 0
M  V30 25 C -6.984660 -3.572656 -0.192376 0
M  V30 26 C -5.972128 -3.047536 -0.946722 0
M  V30 27 C -3.565968 -1.108519 -0.620923 0
M  V30 28 C -2.482975 -0.224195 -0.076373 0
M  V30 29 C 0.658069 0.256678 1.293428 0
M  V30 30 C 1.861297 -0.319459 1.615451 0
M  V30 31 N 4.499454 -1.437084 2.221115 0
M  V30 32 C 5.820864 -1.688966 2.312264 0
M  V30 33 C 6.557933 -2.669868 2.943696 0
M  V30 34 H 10.696868 -4.277780 4.193318 0
M  V30 35 H 10.998681 -3.604853 3.189645 0
M  V30 36 H 9.650080 -1.743099 2.113538 0
M  V30 37 H 8.356139 0.018088 0.978315 0
M  V30 38 H 5.719966 0.958735 0.493196 0
M  V30 39 H 3.915607 1.806734 0.020325 0
M  V30 40 H 1.848281 2.845579 -0.566158 0
M  V30 41 H -2.256112 2.391148 1.134133 0
M  V30 42 H -2.159921 3.227580 -0.414197 0
M  V30 43 H -2.445883 1.128348 -1.690364 0
M  V30 44 H -4.384194 2.545287 -0.467972 0
M  V30 45 H -4.444064 1.100808 0.571697 0
M  V30 46 H -5.048307 1.257562 -2.360457 0
M  V30 47 H -5.974835 0.428054 -1.082820 0
M  V30 48 H -5.347567 -0.962645 -3.447985 0
M  V30 49 H -4.325517 -2.357520 -2.843398 0
M  V30 50 H -7.577482 -0.587619 -2.509428 0
M  V30 51 H -9.453609 -1.504408 -1.151674 0
M  V30 52 H -9.079815 -3.380166 0.299666 0
M  V30 53 H -6.880397 -4.416845 0.480476 0
M  V30 54 H -5.024073 -3.544536 -0.827309 0
M  V30 55 H -3.118741 -2.069784 -0.942207 0
M  V30 56 H -4.314904 -1.397652 0.168738 0
M  V30 57 H -2.589004 -0.252496 1.036711 0
M  V30 58 H -1.498309 -0.661389 -0.349485 0
M  V30 59 H -0.281141 -0.130214 1.638170 0
M  V30 60 H 1.799183 -1.205804 2.231146 0
M  V30 61 H 6.069886 -3.438637 3.504009 0
M  V30 END ATOM
M  V30 BEGIN BOND
M  V30 1 1 1 2
M  V30 2 2 2 3
M  V30 3 1 2 4
M  V30 4 2 4 5
M  V30 5 1 5 6
M  V30 6 2 6 7
M  V30 7 1 7 8
M  V30 8 1 8 9
M  V30 9 1 9 10
M  V30 10 2 10 11
M  V30 11 1 11 12
M  V30 12 2 12 13
M  V30 13 1 13 14
M  V30 14 1 14 15
M  V30 15 1 15 16
M  V30 16 1 16 17
M  V30 17 1 17 18
M  V30 18 1 18 19
M  V30 19 1 19 20
M  V30 20 1 20 21
M  V30 21 2 21 22
M  V30 22 1 22 23
M  V30 23 2 23 24
M  V30 24 1 24 25
M  V30 25 2 25 26
M  V30 26 1 19 27
M  V30 27 1 27 28
M  V30 28 1 13 29
M  V30 29 2 29 30
M  V30 30 2 9 31
M  V30 31 1 31 32
M  V30 32 2 32 33
M  V30 33 1 33 4
M  V30 34 1 32 7
M  V30 35 1 30 10
M  V30 36 1 28 16
M  V30 37 1 26 21
M  V30 38 1 1 34
M  V30 39 1 1 35
M  V30 40 1 5 36
M  V30 41 1 6 37
M  V30 42 1 8 38
M  V30 43 1 11 39
M  V30 44 1 12 40
M  V30 45 1 15 41
M  V30 46 1 15 42
M  V30 47 1 16 43
M  V30 48 1 17 44
M  V30 49 1 17 45
M  V30 50 1 18 46
M  V30 51 1 18 47
M  V30 52 1 20 48
M  V30 53 1 20 49
M  V30 54 1 22 50
M  V30 55 1 23 51
M  V30 56 1 24 52
M  V30 57 1 25 53
M  V30 58 1 26 54
M  V30 59 1 27 55
M  V30 60 1 27 56
M  V30 61 1 28 57
M  V30 62 1 28 58
M  V30 63 1 29 59
M  V30 64 1 30 60
M  V30 65 1 33 61
M  V30 END BOND
M  V30 END CTAB
M  END
>  <Dataset>  (389) 
ChEMBL_Kinases

>  <Ligand_Instance>  (389) 
nan

>  <PDB_ID>  (389) 
nan

>  <Standardized_SMILES>  (389) 
NC(=O)c1ccc2[nH]c(-c3ccc(OCC4CCN(Cc5ccccc5)CC4)cc3)nc2c1

>  <Name>  (389) 
nan

>  <Pocket>  (389) 
nan

>  <ATP_Site>  (389) 
nan

>  <Peripheral>  (389) 
nan

>  <Num_H_Atoms_ProtBoundConf>  (389) 
nan

>  <Num_Resolved_Atoms>  (389) 
nan

>  <Num_Not_Resolved_Atoms>  (389) 
nan

$$$$
CHEMBL249937
     RDKit          3D

  0  0  0  0  0  0  0  0  0  0999 V3000
M  V30 BEGIN CTAB
M  V30 COUNTS 55 59 0 0 0
M  V30 BEGIN ATOM
M  V30 1 C 3.685829 0.065932 5.438868 0
M  V30 2 N 4.414091 -1.072255 4.964306 0
M  V30 3 C 3.662449 -2.273652 5.186208 0
M  V30 4 C 4.908331 -0.934268 3.628950 0
M  V30 5 C 3.843955 -0.721009 2.612181 0
M  V30 6 C 3.392562 0.545943 2.250067 0
M  V30 7 C 2.397572 0.737116 1.298642 0
M  V30 8 N 1.891047 -0.376753 0.742982 0
M  V30 9 C 0.926336 -0.422146 -0.193256 0
M  V30 10 C 0.128845 0.565833 -0.908639 0
M  V30 11 C 0.680760 1.553990 -1.727242 0
M  V30 12 C -0.156261 2.459406 -2.377685 0
M  V30 13 N -1.505933 2.387745 -2.221222 0
M  V30 14 C -2.028142 1.416251 -1.417946 0
M  V30 15 N -3.442242 1.285799 -1.212195 0
M  V30 16 C -4.005262 0.276685 -0.378035 0
M  V30 17 O -3.242670 -0.533018 0.204084 0
M  V30 18 C -5.479215 0.178179 -0.194799 0
M  V30 19 C -6.369198 1.304785 -0.517058 0
M  V30 20 C -6.306472 0.204958 -1.503711 0
M  V30 21 N -1.217669 0.538541 -0.787249 0
M  V30 22 C 0.679643 -1.748523 -0.510060 0
M  V30 23 C -0.255075 -2.390905 -1.450645 0
M  V30 24 C -1.141868 -3.218417 -0.765503 0
M  V30 25 C -2.115429 -3.929593 -1.433879 0
M  V30 26 C -2.200717 -3.810292 -2.800275 0
M  V30 27 F -3.101420 -4.449331 -3.554672 0
M  V30 28 C -1.321059 -2.990445 -3.472809 0
M  V30 29 C -0.336540 -2.268453 -2.817181 0
M  V30 30 N 1.527226 -2.485596 0.266690 0
M  V30 31 C 2.268934 -1.634371 1.034535 0
M  V30 32 C 3.257835 -1.823145 1.980200 0
M  V30 33 H 2.768200 0.307069 4.895524 0
M  V30 34 H 4.348026 0.952291 5.540106 0
M  V30 35 H 3.377063 -0.174322 6.488110 0
M  V30 36 H 2.611516 -2.208559 4.880009 0
M  V30 37 H 4.158070 -3.158946 4.733210 0
M  V30 38 H 3.659404 -2.494702 6.290613 0
M  V30 39 H 5.395134 -1.908832 3.367868 0
M  V30 40 H 5.608197 -0.091687 3.573050 0
M  V30 41 H 3.866270 1.389275 2.758136 0
M  V30 42 H 2.061122 1.731570 1.031675 0
M  V30 43 H 1.756524 1.588852 -1.834494 0
M  V30 44 H 0.281657 3.223528 -3.011579 0
M  V30 45 H -4.076335 1.961789 -1.698020 0
M  V30 46 H -5.778530 -0.650166 0.479062 0
M  V30 47 H -7.333243 1.374541 0.062418 0
M  V30 48 H -5.924331 2.292729 -0.661749 0
M  V30 49 H -7.168044 -0.489908 -1.575265 0
M  V30 50 H -5.724247 0.265561 -2.423470 0
M  V30 51 H -1.169319 -3.391158 0.315703 0
M  V30 52 H -2.830835 -4.589640 -0.934582 0
M  V30 53 H -1.348735 -2.865009 -4.540620 0
M  V30 54 H 0.393009 -1.610072 -3.218897 0
M  V30 55 H 3.574268 -2.834131 2.226787 0
M  V30 END ATOM
M  V30 BEGIN BOND
M  V30 1 1 1 2
M  V30 2 1 2 3
M  V30 3 1 2 4
M  V30 4 1 4 5
M  V30 5 1 5 6
M  V30 6 2 6 7
M  V30 7 1 7 8
M  V30 8 1 8 9
M  V30 9 1 9 10
M  V30 10 2 10 11
M  V30 11 1 11 12
M  V30 12 2 12 13
M  V30 13 1 13 14
M  V30 14 1 14 15
M  V30 15 1 15 16
M  V30 16 2 16 17
M  V30 17 1 16 18
M  V30 18 1 18 19
M  V30 19 1 19 20
M  V30 20 2 14 21
M  V30 21 2 9 22
M  V30 22 1 22 23
M  V30 23 2 23 24
M  V30 24 1 24 25
M  V30 25 2 25 26
M  V30 26 1 26 27
M  V30 27 1 26 28
M  V30 28 2 28 29
M  V30 29 1 22 30
M  V30 30 2 30 31
M  V30 31 1 31 32
M  V30 32 2 32 5
M  V30 33 1 31 8
M  V30 34 1 21 10
M  V30 35 1 29 23
M  V30 36 1 20 18
M  V30 37 1 1 33
M  V30 38 1 1 34
M  V30 39 1 1 35
M  V30 40 1 3 36
M  V30 41 1 3 37
M  V30 42 1 3 38
M  V30 43 1 4 39
M  V30 44 1 4 40
M  V30 45 1 6 41
M  V30 46 1 7 42
M  V30 47 1 11 43
M  V30 48 1 12 44
M  V30 49 1 15 45
M  V30 50 1 18 46
M  V30 51 1 19 47
M  V30 52 1 19 48
M  V30 53 1 20 49
M  V30 54 1 20 50
M  V30 55 1 24 51
M  V30 56 1 25 52
M  V30 57 1 28 53
M  V30 58 1 29 54
M  V30 59 1 32 55
M  V30 END BOND
M  V30 END CTAB
M  END
>  <Dataset>  (390) 
ChEMBL_Kinases

>  <Ligand_Instance>  (390) 
nan

>  <PDB_ID>  (390) 
nan

>  <Standardized_SMILES>  (390) 
CN(C)Cc1ccn2c(-c3ccnc(NC(=O)C4CC4)n3)c(-c3ccc(F)cc3)nc2c1

>  <Name>  (390) 
nan

>  <Pocket>  (390) 
nan

>  <ATP_Site>  (390) 
nan

>  <Peripheral>  (390) 
nan

>  <Num_H_Atoms_ProtBoundConf>  (390) 
nan

>  <Num_Resolved_Atoms>  (390) 
nan

>  <Num_Not_Resolved_Atoms>  (390) 
nan

$$$$
CHEMBL249936
     RDKit          3D

  0  0  0  0  0  0  0  0  0  0999 V3000
M  V30 BEGIN CTAB
M  V30 COUNTS 54 57 0 0 0
M  V30 BEGIN ATOM
M  V30 1 C -4.527343 -6.616745 -2.653373 0
M  V30 2 C -4.784326 -5.161897 -2.306861 0
M  V30 3 C -3.674872 -4.685999 -1.458641 0
M  V30 4 O -2.639676 -5.252913 -1.019510 0
M  V30 5 N -3.108613 -3.677797 -0.759406 0
M  V30 6 C -2.491059 -2.676575 -0.031386 0
M  V30 7 N -2.808993 -2.549726 1.287919 0
M  V30 8 C -2.206862 -1.578814 2.039645 0
M  V30 9 C -1.305616 -0.808678 1.331751 0
M  V30 10 C -0.940149 -0.884900 0.001644 0
M  V30 11 C 0.046083 0.037163 -0.549795 0
M  V30 12 C 1.242619 -0.396467 -1.102427 0
M  V30 13 C 1.786242 -1.754076 -1.267740 0
M  V30 14 C 2.061667 -2.310357 -2.498908 0
M  V30 15 C 2.576107 -3.605312 -2.537545 0
M  V30 16 C 2.790822 -4.281912 -1.357572 0
M  V30 17 F 3.290405 -5.538201 -1.409138 0
M  V30 18 C 2.520099 -3.739454 -0.113102 0
M  V30 19 C 2.005684 -2.440667 -0.104922 0
M  V30 20 N 1.938348 0.701510 -1.522686 0
M  V30 21 C 1.197522 1.813211 -1.242397 0
M  V30 22 C 1.340422 3.175857 -1.411750 0
M  V30 23 C 0.375501 4.076931 -1.006201 0
M  V30 24 C 0.702096 5.506415 -1.267630 0
M  V30 25 N 1.402423 6.091476 -0.134739 0
M  V30 26 C 1.750486 7.464079 -0.354408 0
M  V30 27 C 0.494936 6.023331 1.005600 0
M  V30 28 C -0.780049 3.619875 -0.408588 0
M  V30 29 C -0.899292 2.242284 -0.249547 0
M  V30 30 N 0.047896 1.381103 -0.649324 0
M  V30 31 N -1.592915 -1.883000 -0.667794 0
M  V30 32 H -4.259026 -6.758570 -3.731841 0
M  V30 33 H -3.727783 -7.051209 -1.999859 0
M  V30 34 H -5.454979 -7.188878 -2.465678 0
M  V30 35 H -4.794883 -4.618891 -3.282349 0
M  V30 36 H -5.763885 -5.086080 -1.794290 0
M  V30 37 H -3.934820 -3.070326 -1.055031 0
M  V30 38 H -2.390327 -1.400725 3.082168 0
M  V30 39 H -0.816181 -0.032078 1.907769 0
M  V30 40 H 1.857255 -1.698641 -3.348947 0
M  V30 41 H 2.787526 -4.028839 -3.519339 0
M  V30 42 H 2.690621 -4.277129 0.818633 0
M  V30 43 H 1.802053 -2.039056 0.883939 0
M  V30 44 H 2.263375 3.491644 -1.884885 0
M  V30 45 H 1.304805 5.611074 -2.206546 0
M  V30 46 H -0.263229 6.026056 -1.446650 0
M  V30 47 H 2.810411 7.660431 -0.018695 0
M  V30 48 H 1.151169 8.178124 0.246026 0
M  V30 49 H 1.675195 7.754413 -1.431034 0
M  V30 50 H 0.343011 4.980859 1.319307 0
M  V30 51 H -0.494044 6.441956 0.732862 0
M  V30 52 H 0.906535 6.652234 1.836389 0
M  V30 53 H -1.507162 4.348902 -0.107101 0
M  V30 54 H -1.823734 1.933735 0.224395 0
M  V30 END ATOM
M  V30 BEGIN BOND
M  V30 1 1 1 2
M  V30 2 1 2 3
M  V30 3 2 3 4
M  V30 4 1 3 5
M  V30 5 1 5 6
M  V30 6 2 6 7
M  V30 7 1 7 8
M  V30 8 2 8 9
M  V30 9 1 9 10
M  V30 10 1 10 11
M  V30 11 2 11 12
M  V30 12 1 12 13
M  V30 13 2 13 14
M  V30 14 1 14 15
M  V30 15 2 15 16
M  V30 16 1 16 17
M  V30 17 1 16 18
M  V30 18 2 18 19
M  V30 19 1 12 20
M  V30 20 2 20 21
M  V30 21 1 21 22
M  V30 22 2 22 23
M  V30 23 1 23 24
M  V30 24 1 24 25
M  V30 25 1 25 26
M  V30 26 1 25 27
M  V30 27 1 23 28
M  V30 28 2 28 29
M  V30 29 1 29 30
M  V30 30 2 10 31
M  V30 31 1 31 6
M  V30 32 1 30 11
M  V30 33 1 19 13
M  V30 34 1 30 21
M  V30 35 1 1 32
M  V30 36 1 1 33
M  V30 37 1 1 34
M  V30 38 1 2 35
M  V30 39 1 2 36
M  V30 40 1 5 37
M  V30 41 1 8 38
M  V30 42 1 9 39
M  V30 43 1 14 40
M  V30 44 1 15 41
M  V30 45 1 18 42
M  V30 46 1 19 43
M  V30 47 1 22 44
M  V30 48 1 24 45
M  V30 49 1 24 46
M  V30 50 1 26 47
M  V30 51 1 26 48
M  V30 52 1 26 49
M  V30 53 1 27 50
M  V30 54 1 27 51
M  V30 55 1 27 52
M  V30 56 1 28 53
M  V30 57 1 29 54
M  V30 END BOND
M  V30 END CTAB
M  END
>  <Dataset>  (391) 
ChEMBL_Kinases

>  <Ligand_Instance>  (391) 
nan

>  <PDB_ID>  (391) 
nan

>  <Standardized_SMILES>  (391) 
CCC(=O)Nc1nccc(-c2c(-c3ccc(F)cc3)nc3cc(CN(C)C)ccn23)n1

>  <Name>  (391) 
nan

>  <Pocket>  (391) 
nan

>  <ATP_Site>  (391) 
nan

>  <Peripheral>  (391) 
nan

>  <Num_H_Atoms_ProtBoundConf>  (391) 
nan

>  <Num_Resolved_Atoms>  (391) 
nan

>  <Num_Not_Resolved_Atoms>  (391) 
nan

$$$$
CHEMBL249929
     RDKit          3D

  0  0  0  0  0  0  0  0  0  0999 V3000
M  V30 BEGIN CTAB
M  V30 COUNTS 39 42 0 0 0
M  V30 BEGIN ATOM
M  V30 1 C 0.613584 -3.643523 3.527231 0
M  V30 2 C 1.644293 -3.196182 2.561859 0
M  V30 3 C 2.878403 -3.816011 2.367568 0
M  V30 4 N 3.520165 -3.101057 1.403277 0
M  V30 5 C 2.732902 -2.084819 1.010538 0
M  V30 6 C 2.810221 -1.053301 0.107571 0
M  V30 7 N 4.001289 -0.910706 -0.696440 0
M  V30 8 C 4.133125 0.165169 -1.667692 0
M  V30 9 C 3.042390 0.035350 -2.665896 0
M  V30 10 N 2.030639 -0.963831 -2.686772 0
M  V30 11 O 2.973128 0.882394 -3.610146 0
M  V30 12 N 1.850236 -0.165859 -0.078604 0
M  V30 13 C 0.698693 -0.202774 0.614738 0
M  V30 14 C -0.380368 0.634859 0.538548 0
M  V30 15 C -1.443185 0.413429 1.334407 0
M  V30 16 C -2.702643 1.105666 1.483053 0
M  V30 17 C -2.974759 2.221316 0.710940 0
M  V30 18 C -4.157916 2.923451 0.807469 0
M  V30 19 C -5.082045 2.461289 1.724141 0
M  V30 20 C -4.835819 1.350760 2.506894 0
M  V30 21 C -3.636399 0.657654 2.393488 0
M  V30 22 S -0.995593 -1.041196 2.287458 0
M  V30 23 C 0.630576 -1.241634 1.518521 0
M  V30 24 N 1.601766 -2.165750 1.728771 0
M  V30 25 H 0.894645 -3.244719 4.539430 0
M  V30 26 H -0.407259 -3.362964 3.251432 0
M  V30 27 H 0.710542 -4.753990 3.642615 0
M  V30 28 H 3.224513 -4.682819 2.889795 0
M  V30 29 H 4.765540 -1.605291 -0.558116 0
M  V30 30 H 5.122770 0.049636 -2.151548 0
M  V30 31 H 4.108409 1.160657 -1.177696 0
M  V30 32 H 2.027601 -1.520375 -3.587185 0
M  V30 33 H 1.232078 -1.576751 -2.417407 0
M  V30 34 H -0.446829 1.486516 -0.132004 0
M  V30 35 H -2.224616 2.566818 -0.008474 0
M  V30 36 H -4.292074 3.788941 0.164193 0
M  V30 37 H -6.016469 3.000791 1.812900 0
M  V30 38 H -5.576449 0.994851 3.229495 0
M  V30 39 H -3.488122 -0.206801 3.027759 0
M  V30 END ATOM
M  V30 BEGIN BOND
M  V30 1 1 1 2
M  V30 2 2 2 3
M  V30 3 1 3 4
M  V30 4 2 4 5
M  V30 5 1 5 6
M  V30 6 1 6 7
M  V30 7 1 7 8
M  V30 8 1 8 9
M  V30 9 1 9 10
M  V30 10 2 9 11
M  V30 11 2 6 12
M  V30 12 1 12 13
M  V30 13 1 13 14
M  V30 14 2 14 15
M  V30 15 1 15 16
M  V30 16 2 16 17
M  V30 17 1 17 18
M  V30 18 2 18 19
M  V30 19 1 19 20
M  V30 20 2 20 21
M  V30 21 1 15 22
M  V30 22 1 22 23
M  V30 23 1 23 24
M  V30 24 1 24 2
M  V30 25 1 24 5
M  V30 26 2 23 13
M  V30 27 1 21 16
M  V30 28 1 1 25
M  V30 29 1 1 26
M  V30 30 1 1 27
M  V30 31 1 3 28
M  V30 32 1 7 29
M  V30 33 1 8 30
M  V30 34 1 8 31
M  V30 35 1 10 32
M  V30 36 1 10 33
M  V30 37 1 14 34
M  V30 38 1 17 35
M  V30 39 1 18 36
M  V30 40 1 19 37
M  V30 41 1 20 38
M  V30 42 1 21 39
M  V30 END BOND
M  V30 END CTAB
M  END
>  <Dataset>  (392) 
ChEMBL_Kinases

>  <Ligand_Instance>  (392) 
nan

>  <PDB_ID>  (392) 
nan

>  <Standardized_SMILES>  (392) 
Cc1cnc2c(NCC(N)=O)nc3cc(-c4ccccc4)sc3n12

>  <Name>  (392) 
nan

>  <Pocket>  (392) 
nan

>  <ATP_Site>  (392) 
nan

>  <Peripheral>  (392) 
nan

>  <Num_H_Atoms_ProtBoundConf>  (392) 
nan

>  <Num_Resolved_Atoms>  (392) 
nan

>  <Num_Not_Resolved_Atoms>  (392) 
nan

$$$$
CHEMBL249902
     RDKit          3D

  0  0  0  0  0  0  0  0  0  0999 V3000
M  V30 BEGIN CTAB
M  V30 COUNTS 37 40 0 0 0
M  V30 BEGIN ATOM
M  V30 1 C -1.997199 -2.070917 3.371686 0
M  V30 2 C -1.229518 -2.560120 2.190991 0
M  V30 3 C -1.031180 -3.728352 1.506177 0
M  V30 4 N -0.172033 -3.457337 0.487833 0
M  V30 5 C 0.124863 -2.082639 0.603341 0
M  V30 6 C 0.932027 -1.975455 -0.398116 0
M  V30 7 N 1.799283 -1.859938 -1.473967 0
M  V30 8 C 1.830462 -3.142323 -2.127351 0
M  V30 9 C 0.521891 -3.466880 -2.851025 0
M  V30 10 N 0.635352 -4.770609 -3.458543 0
M  V30 11 N 1.194987 -0.595228 -0.213170 0
M  V30 12 C 0.718516 0.240664 0.718248 0
M  V30 13 C 0.853801 1.618327 1.062817 0
M  V30 14 C 0.249132 2.195217 2.059420 0
M  V30 15 C 0.438776 3.632852 2.344281 0
M  V30 16 C 1.189938 4.585036 1.758506 0
M  V30 17 C 0.870981 5.680779 2.532652 0
M  V30 18 O 0.010588 5.350781 3.470490 0
M  V30 19 C -0.299646 4.079863 3.405344 0
M  V30 20 S -0.702357 0.933843 2.811305 0
M  V30 21 C -0.134823 -0.366019 1.589521 0
M  V30 22 N -0.528177 -1.633448 1.617795 0
M  V30 23 H -2.956931 -1.641087 3.084780 0
M  V30 24 H -2.240569 -3.016538 3.938193 0
M  V30 25 H -1.398029 -1.479294 4.079222 0
M  V30 26 H -1.522450 -4.626407 1.817823 0
M  V30 27 H 2.432256 -1.359008 -2.058492 0
M  V30 28 H 2.626579 -3.306886 -2.870069 0
M  V30 29 H 1.943808 -4.002746 -1.404220 0
M  V30 30 H 0.428084 -2.758904 -3.711463 0
M  V30 31 H -0.364099 -3.400823 -2.229540 0
M  V30 32 H 0.084641 -4.916163 -4.309511 0
M  V30 33 H 1.624706 -4.990401 -3.689483 0
M  V30 34 H 1.550387 2.107937 0.351508 0
M  V30 35 H 1.827424 4.410048 0.920516 0
M  V30 36 H 1.291150 6.688065 2.370348 0
M  V30 37 H -1.004973 3.727685 4.145121 0
M  V30 END ATOM
M  V30 BEGIN BOND
M  V30 1 1 1 2
M  V30 2 2 2 3
M  V30 3 1 3 4
M  V30 4 2 4 5
M  V30 5 1 5 6
M  V30 6 1 6 7
M  V30 7 1 7 8
M  V30 8 1 8 9
M  V30 9 1 9 10
M  V30 10 2 6 11
M  V30 11 1 11 12
M  V30 12 1 12 13
M  V30 13 2 13 14
M  V30 14 1 14 15
M  V30 15 1 15 16
M  V30 16 2 16 17
M  V30 17 1 17 18
M  V30 18 1 18 19
M  V30 19 1 14 20
M  V30 20 1 20 21
M  V30 21 1 21 22
M  V30 22 1 22 2
M  V30 23 1 22 5
M  V30 24 2 21 12
M  V30 25 2 19 15
M  V30 26 1 1 23
M  V30 27 1 1 24
M  V30 28 1 1 25
M  V30 29 1 3 26
M  V30 30 1 7 27
M  V30 31 1 8 28
M  V30 32 1 8 29
M  V30 33 1 9 30
M  V30 34 1 9 31
M  V30 35 1 10 32
M  V30 36 1 10 33
M  V30 37 1 13 34
M  V30 38 1 16 35
M  V30 39 1 17 36
M  V30 40 1 19 37
M  V30 END BOND
M  V30 END CTAB
M  END
>  <Dataset>  (393) 
ChEMBL_Kinases

>  <Ligand_Instance>  (393) 
nan

>  <PDB_ID>  (393) 
nan

>  <Standardized_SMILES>  (393) 
Cc1cnc2c(NCCN)nc3cc(-c4ccoc4)sc3n12

>  <Name>  (393) 
nan

>  <Pocket>  (393) 
nan

>  <ATP_Site>  (393) 
nan

>  <Peripheral>  (393) 
nan

>  <Num_H_Atoms_ProtBoundConf>  (393) 
nan

>  <Num_Resolved_Atoms>  (393) 
nan

>  <Num_Not_Resolved_Atoms>  (393) 
nan

$$$$
CHEMBL249901
     RDKit          3D

  0  0  0  0  0  0  0  0  0  0999 V3000
M  V30 BEGIN CTAB
M  V30 COUNTS 40 43 0 0 0
M  V30 BEGIN ATOM
M  V30 1 C 1.218133 -1.537243 4.832064 0
M  V30 2 C 2.043233 -1.793167 3.623124 0
M  V30 3 C 3.302639 -2.377943 3.559346 0
M  V30 4 N 3.654980 -2.401321 2.254986 0
M  V30 5 C 2.678182 -1.860874 1.507230 0
M  V30 6 C 2.461487 -1.613114 0.168380 0
M  V30 7 N 3.454825 -1.982141 -0.776861 0
M  V30 8 C 3.382788 -1.789629 -2.209773 0
M  V30 9 C 3.307012 -0.322782 -2.486275 0
M  V30 10 N 3.236768 -0.106047 -3.920468 0
M  V30 11 N 1.340401 -1.036670 -0.287486 0
M  V30 12 C 0.341491 -0.656273 0.528485 0
M  V30 13 C -0.849555 -0.062664 0.216284 0
M  V30 14 C -1.714787 0.238162 1.185595 0
M  V30 15 C -3.018153 0.851490 1.176229 0
M  V30 16 C -3.537841 1.228875 -0.046392 0
M  V30 17 C -4.794553 1.827106 -0.118453 0
M  V30 18 C -5.511383 2.036032 1.054441 0
M  V30 19 C -4.960090 1.646802 2.249515 0
M  V30 20 C -3.716636 1.051903 2.348150 0
M  V30 21 S -0.908636 -0.307864 2.720136 0
M  V30 22 C 0.594480 -0.920527 1.862177 0
M  V30 23 N 1.708746 -1.498136 2.358161 0
M  V30 24 H 1.713622 -2.066583 5.693463 0
M  V30 25 H 1.191396 -0.460729 5.024673 0
M  V30 26 H 0.214331 -1.987163 4.708958 0
M  V30 27 H 3.882721 -2.742417 4.402653 0
M  V30 28 H 4.327073 -2.435288 -0.434673 0
M  V30 29 H 4.168626 -2.312593 -2.754082 0
M  V30 30 H 2.418028 -2.224929 -2.607119 0
M  V30 31 H 2.425603 0.118490 -2.027799 0
M  V30 32 H 4.214350 0.163008 -2.068808 0
M  V30 33 H 2.428793 -0.553726 -4.358123 0
M  V30 34 H 4.159806 -0.403835 -4.348439 0
M  V30 35 H -1.147693 0.188057 -0.798699 0
M  V30 36 H -2.983775 1.068879 -0.966797 0
M  V30 37 H -5.217088 2.130218 -1.078386 0
M  V30 38 H -6.484491 2.493447 1.051976 0
M  V30 39 H -5.517004 1.808414 3.167042 0
M  V30 40 H -3.304349 0.754334 3.301392 0
M  V30 END ATOM
M  V30 BEGIN BOND
M  V30 1 1 1 2
M  V30 2 2 2 3
M  V30 3 1 3 4
M  V30 4 2 4 5
M  V30 5 1 5 6
M  V30 6 1 6 7
M  V30 7 1 7 8
M  V30 8 1 8 9
M  V30 9 1 9 10
M  V30 10 2 6 11
M  V30 11 1 11 12
M  V30 12 1 12 13
M  V30 13 2 13 14
M  V30 14 1 14 15
M  V30 15 2 15 16
M  V30 16 1 16 17
M  V30 17 2 17 18
M  V30 18 1 18 19
M  V30 19 2 19 20
M  V30 20 1 14 21
M  V30 21 1 21 22
M  V30 22 1 22 23
M  V30 23 1 23 2
M  V30 24 1 23 5
M  V30 25 2 22 12
M  V30 26 1 20 15
M  V30 27 1 1 24
M  V30 28 1 1 25
M  V30 29 1 1 26
M  V30 30 1 3 27
M  V30 31 1 7 28
M  V30 32 1 8 29
M  V30 33 1 8 30
M  V30 34 1 9 31
M  V30 35 1 9 32
M  V30 36 1 10 33
M  V30 37 1 10 34
M  V30 38 1 13 35
M  V30 39 1 16 36
M  V30 40 1 17 37
M  V30 41 1 18 38
M  V30 42 1 19 39
M  V30 43 1 20 40
M  V30 END BOND
M  V30 END CTAB
M  END
>  <Dataset>  (394) 
ChEMBL_Kinases

>  <Ligand_Instance>  (394) 
nan

>  <PDB_ID>  (394) 
nan

>  <Standardized_SMILES>  (394) 
Cc1cnc2c(NCCN)nc3cc(-c4ccccc4)sc3n12

>  <Name>  (394) 
nan

>  <Pocket>  (394) 
nan

>  <ATP_Site>  (394) 
nan

>  <Peripheral>  (394) 
nan

>  <Num_H_Atoms_ProtBoundConf>  (394) 
nan

>  <Num_Resolved_Atoms>  (394) 
nan

>  <Num_Not_Resolved_Atoms>  (394) 
nan

$$$$
CHEMBL249900
     RDKit          3D

  0  0  0  0  0  0  0  0  0  0999 V3000
M  V30 BEGIN CTAB
M  V30 COUNTS 30 32 0 0 0
M  V30 BEGIN ATOM
M  V30 1 C -2.027798 0.396802 4.301751 0
M  V30 2 C -1.366392 -0.499090 3.290075 0
M  V30 3 C -1.284447 -1.895148 3.331618 0
M  V30 4 N -0.608247 -2.328389 2.234556 0
M  V30 5 C -0.269605 -1.245073 1.516279 0
M  V30 6 C 0.387380 -0.948733 0.357234 0
M  V30 7 N 0.920888 -2.055832 -0.408963 0
M  V30 8 C 1.634009 -1.849794 -1.652040 0
M  V30 9 C 2.085752 -3.169086 -2.251296 0
M  V30 10 N 2.954120 -3.798830 -1.290410 0
M  V30 11 N 0.570105 0.270526 -0.112765 0
M  V30 12 C 0.099992 1.372463 0.545952 0
M  V30 13 C 0.299165 2.606784 0.045928 0
M  V30 14 C -0.276643 3.611685 0.897507 0
M  V30 15 S -1.044615 2.650629 2.332180 0
M  V30 16 C -0.562302 1.113194 1.709229 0
M  V30 17 N -0.727156 -0.169199 2.156948 0
M  V30 18 H -3.044363 0.703454 3.954343 0
M  V30 19 H -2.146318 -0.213231 5.218443 0
M  V30 20 H -1.438462 1.315953 4.478345 0
M  V30 21 H -1.687142 -2.540572 4.102265 0
M  V30 22 H 0.798029 -3.024319 -0.073634 0
M  V30 23 H 2.477725 -1.147868 -1.576030 0
M  V30 24 H 0.921867 -1.425693 -2.411594 0
M  V30 25 H 1.225933 -3.830269 -2.423158 0
M  V30 26 H 2.655234 -2.957752 -3.172405 0
M  V30 27 H 3.646978 -4.419760 -1.746597 0
M  V30 28 H 2.435423 -4.330747 -0.569884 0
M  V30 29 H 0.786175 2.981775 -0.833413 0
M  V30 30 H -0.212409 4.808981 0.632440 0
M  V30 END ATOM
M  V30 BEGIN BOND
M  V30 1 1 1 2
M  V30 2 2 2 3
M  V30 3 1 3 4
M  V30 4 2 4 5
M  V30 5 1 5 6
M  V30 6 1 6 7
M  V30 7 1 7 8
M  V30 8 1 8 9
M  V30 9 1 9 10
M  V30 10 2 6 11
M  V30 11 1 11 12
M  V30 12 1 12 13
M  V30 13 2 13 14
M  V30 14 1 14 15
M  V30 15 1 15 16
M  V30 16 1 16 17
M  V30 17 1 17 2
M  V30 18 1 17 5
M  V30 19 2 16 12
M  V30 20 1 1 18
M  V30 21 1 1 19
M  V30 22 1 1 20
M  V30 23 1 3 21
M  V30 24 1 7 22
M  V30 25 1 8 23
M  V30 26 1 8 24
M  V30 27 1 9 25
M  V30 28 1 9 26
M  V30 29 1 10 27
M  V30 30 1 10 28
M  V30 31 1 13 29
M  V30 32 1 14 30
M  V30 END BOND
M  V30 END CTAB
M  END
>  <Dataset>  (395) 
ChEMBL_Kinases

>  <Ligand_Instance>  (395) 
nan

>  <PDB_ID>  (395) 
nan

>  <Standardized_SMILES>  (395) 
Cc1cnc2c(NCCN)nc3ccsc3n12

>  <Name>  (395) 
nan

>  <Pocket>  (395) 
nan

>  <ATP_Site>  (395) 
nan

>  <Peripheral>  (395) 
nan

>  <Num_H_Atoms_ProtBoundConf>  (395) 
nan

>  <Num_Resolved_Atoms>  (395) 
nan

>  <Num_Not_Resolved_Atoms>  (395) 
nan

$$$$
CHEMBL249887
     RDKit          3D

  0  0  0  0  0  0  0  0  0  0999 V3000
M  V30 BEGIN CTAB
M  V30 COUNTS 47 50 0 0 0
M  V30 BEGIN ATOM
M  V30 1 C -0.807905 -4.656803 4.639750 0
M  V30 2 N -1.746310 -4.874043 3.555305 0
M  V30 3 C -1.889913 -3.986866 2.445631 0
M  V30 4 N -1.092537 -2.907065 2.449172 0
M  V30 5 C -1.134981 -1.993762 1.453567 0
M  V30 6 C -0.401669 -0.852641 1.304990 0
M  V30 7 C -0.594407 -0.079102 0.243313 0
M  V30 8 C -0.022857 1.161649 -0.232851 0
M  V30 9 C -0.443517 1.732701 -1.404855 0
M  V30 10 C 0.146906 2.921314 -1.801162 0
M  V30 11 C 1.138761 3.481298 -0.993206 0
M  V30 12 C 1.545335 2.893351 0.176496 0
M  V30 13 C 2.609568 3.606105 0.928740 0
M  V30 14 C 4.005130 3.175380 0.531341 0 CFG=1
M  V30 15 N 4.933464 3.963723 1.356040 0
M  V30 16 C 4.250620 1.753081 0.784411 0
M  V30 17 N 5.130201 0.987568 1.598757 0
M  V30 18 O 3.712089 0.692813 0.318457 0
M  V30 19 C 0.955140 1.704143 0.573736 0
M  V30 20 S -1.893699 -0.911559 -0.713035 0
M  V30 21 C -2.057130 -2.290050 0.472813 0
M  V30 22 N -2.874593 -3.372388 0.443890 0
M  V30 23 C -3.784892 -3.732372 -0.455009 0
M  V30 24 C -4.165504 -3.016041 -1.719685 0
M  V30 25 C -4.314628 -4.929485 0.034592 0
M  V30 26 N -3.690353 -5.223864 1.206044 0
M  V30 27 C -2.803353 -4.257271 1.450474 0
M  V30 28 H -0.494653 -5.634113 5.067998 0
M  V30 29 H 0.120732 -4.190131 4.213410 0
M  V30 30 H -1.191273 -3.968531 5.419236 0
M  V30 31 H -2.347236 -5.725127 3.590833 0
M  V30 32 H 0.349960 -0.512922 2.003682 0
M  V30 33 H -1.207559 1.298430 -2.024253 0
M  V30 34 H -0.191440 3.363893 -2.726665 0
M  V30 35 H 1.568096 4.423596 -1.361387 0
M  V30 36 H 2.483271 4.688552 0.875787 0
M  V30 37 H 2.487140 3.340962 2.011649 0
M  V30 38 H 4.230158 3.442764 -0.520926 0
M  V30 39 H 5.150319 3.438758 2.236707 0
M  V30 40 H 4.468642 4.867337 1.609671 0
M  V30 41 H 6.110594 0.624786 1.570700 0
M  V30 42 H 4.994604 0.540198 2.551856 0
M  V30 43 H 1.295954 1.263386 1.500873 0
M  V30 44 H -3.526668 -3.397106 -2.553170 0
M  V30 45 H -4.116558 -1.928865 -1.592023 0
M  V30 46 H -5.210014 -3.364213 -1.941397 0
M  V30 47 H -5.092951 -5.505738 -0.458701 0
M  V30 END ATOM
M  V30 BEGIN BOND
M  V30 1 1 1 2
M  V30 2 1 2 3
M  V30 3 2 3 4
M  V30 4 1 4 5
M  V30 5 1 5 6
M  V30 6 2 6 7
M  V30 7 1 7 8
M  V30 8 2 8 9
M  V30 9 1 9 10
M  V30 10 2 10 11
M  V30 11 1 11 12
M  V30 12 1 12 13
M  V30 13 1 13 14
M  V30 14 1 14 15
M  V30 15 1 14 16
M  V30 16 1 16 17
M  V30 17 2 16 18
M  V30 18 2 12 19
M  V30 19 1 7 20
M  V30 20 1 20 21
M  V30 21 1 21 22
M  V30 22 1 22 23
M  V30 23 1 23 24
M  V30 24 2 23 25
M  V30 25 1 25 26
M  V30 26 2 26 27
M  V30 27 1 27 3
M  V30 28 2 21 5
M  V30 29 1 27 22
M  V30 30 1 19 8
M  V30 31 1 1 28
M  V30 32 1 1 29
M  V30 33 1 1 30
M  V30 34 1 2 31
M  V30 35 1 6 32
M  V30 36 1 9 33
M  V30 37 1 10 34
M  V30 38 1 11 35
M  V30 39 1 13 36
M  V30 40 1 13 37
M  V30 41 1 14 38 CFG=3
M  V30 42 1 15 39
M  V30 43 1 15 40
M  V30 44 1 17 41
M  V30 45 1 17 42
M  V30 46 1 19 43
M  V30 47 1 24 44
M  V30 48 1 24 45
M  V30 49 1 24 46
M  V30 50 1 25 47
M  V30 END BOND
M  V30 END CTAB
M  END
>  <Dataset>  (396) 
ChEMBL_Kinases

>  <Ligand_Instance>  (396) 
nan

>  <PDB_ID>  (396) 
nan

>  <Standardized_SMILES>  (396) 
CNc1nc2cc(-c3cccc(C[C@@H](N)C(N)=O)c3)sc2n2c(C)cnc12

>  <Name>  (396) 
nan

>  <Pocket>  (396) 
nan

>  <ATP_Site>  (396) 
nan

>  <Peripheral>  (396) 
nan

>  <Num_H_Atoms_ProtBoundConf>  (396) 
nan

>  <Num_Resolved_Atoms>  (396) 
nan

>  <Num_Not_Resolved_Atoms>  (396) 
nan

$$$$
CHEMBL249886
     RDKit          3D

  0  0  0  0  0  0  0  0  0  0999 V3000
M  V30 BEGIN CTAB
M  V30 COUNTS 46 49 0 0 0
M  V30 BEGIN ATOM
M  V30 1 C -0.542565 -5.371965 3.732212 0
M  V30 2 N -1.670307 -5.272789 2.830304 0
M  V30 3 C -1.783739 -4.216038 1.871208 0
M  V30 4 N -0.817967 -3.315742 1.826272 0
M  V30 5 C -0.814890 -2.276112 0.966073 0
M  V30 6 C 0.093752 -1.292529 0.810501 0
M  V30 7 C -0.090360 -0.353638 -0.102193 0
M  V30 8 C 0.651013 0.828941 -0.544452 0
M  V30 9 C 0.148394 1.615461 -1.562189 0
M  V30 10 C 0.901686 2.718647 -1.929967 0
M  V30 11 C 2.097901 2.974569 -1.272995 0
M  V30 12 C 2.582850 2.162059 -0.246538 0
M  V30 13 C 3.870509 2.479598 0.425786 0
M  V30 14 C 3.549563 3.385675 1.605663 0
M  V30 15 N 2.655692 2.731546 2.540885 0
M  V30 16 C 4.790439 3.714384 2.369728 0
M  V30 17 O 4.613847 3.305350 3.549559 0
M  V30 18 O 6.031318 4.134176 2.809817 0
M  V30 19 C 1.833021 1.059943 0.122871 0
M  V30 20 S -1.653828 -0.785325 -0.880380 0
M  V30 21 C -1.918133 -2.266105 0.155948 0
M  V30 22 N -2.946769 -3.177444 0.164354 0
M  V30 23 C -4.050934 -3.223257 -0.600141 0
M  V30 24 C -4.427029 -2.258658 -1.673649 0
M  V30 25 C -4.720377 -4.351436 -0.150797 0
M  V30 26 N -3.987159 -4.912212 0.847297 0
M  V30 27 C -2.886345 -4.186438 1.045290 0
M  V30 28 H -0.214080 -6.439094 3.868346 0
M  V30 29 H -0.875591 -4.968782 4.732123 0
M  V30 30 H 0.315711 -4.758810 3.434326 0
M  V30 31 H -2.411400 -5.998805 2.893963 0
M  V30 32 H 1.005247 -1.188123 1.386360 0
M  V30 33 H -0.779837 1.405569 -2.062605 0
M  V30 34 H 0.552248 3.366296 -2.721185 0
M  V30 35 H 2.659358 3.846968 -1.588720 0
M  V30 36 H 4.632356 2.909818 -0.218764 0
M  V30 37 H 4.227539 1.509801 0.879963 0
M  V30 38 H 3.034875 4.288272 1.232887 0
M  V30 39 H 3.165632 2.067615 3.175101 0
M  V30 40 H 2.247732 3.453048 3.164687 0
M  V30 41 H 6.876157 3.795109 2.384322 0
M  V30 42 H 2.194180 0.425170 0.911922 0
M  V30 43 H -5.520064 -2.280411 -1.791767 0
M  V30 44 H -3.890400 -2.419243 -2.612345 0
M  V30 45 H -4.176442 -1.208516 -1.345842 0
M  V30 46 H -5.664506 -4.703014 -0.545337 0
M  V30 END ATOM
M  V30 BEGIN BOND
M  V30 1 1 1 2
M  V30 2 1 2 3
M  V30 3 2 3 4
M  V30 4 1 4 5
M  V30 5 1 5 6
M  V30 6 2 6 7
M  V30 7 1 7 8
M  V30 8 2 8 9
M  V30 9 1 9 10
M  V30 10 2 10 11
M  V30 11 1 11 12
M  V30 12 1 12 13
M  V30 13 1 13 14
M  V30 14 1 14 15
M  V30 15 1 14 16
M  V30 16 2 16 17
M  V30 17 1 16 18
M  V30 18 2 12 19
M  V30 19 1 7 20
M  V30 20 1 20 21
M  V30 21 1 21 22
M  V30 22 1 22 23
M  V30 23 1 23 24
M  V30 24 2 23 25
M  V30 25 1 25 26
M  V30 26 2 26 27
M  V30 27 1 27 3
M  V30 28 2 21 5
M  V30 29 1 27 22
M  V30 30 1 19 8
M  V30 31 1 1 28
M  V30 32 1 1 29
M  V30 33 1 1 30
M  V30 34 1 2 31
M  V30 35 1 6 32
M  V30 36 1 9 33
M  V30 37 1 10 34
M  V30 38 1 11 35
M  V30 39 1 13 36
M  V30 40 1 13 37
M  V30 41 1 14 38
M  V30 42 1 15 39
M  V30 43 1 15 40
M  V30 44 1 18 41
M  V30 45 1 19 42
M  V30 46 1 24 43
M  V30 47 1 24 44
M  V30 48 1 24 45
M  V30 49 1 25 46
M  V30 END BOND
M  V30 END CTAB
M  END
>  <Dataset>  (397) 
ChEMBL_Kinases

>  <Ligand_Instance>  (397) 
nan

>  <PDB_ID>  (397) 
nan

>  <Standardized_SMILES>  (397) 
CNc1nc2cc(-c3cccc(CC(N)C(=O)O)c3)sc2n2c(C)cnc12

>  <Name>  (397) 
nan

>  <Pocket>  (397) 
nan

>  <ATP_Site>  (397) 
nan

>  <Peripheral>  (397) 
nan

>  <Num_H_Atoms_ProtBoundConf>  (397) 
nan

>  <Num_Resolved_Atoms>  (397) 
nan

>  <Num_Not_Resolved_Atoms>  (397) 
nan

$$$$
CHEMBL249834
     RDKit          3D

  0  0  0  0  0  0  0  0  0  0999 V3000
M  V30 BEGIN CTAB
M  V30 COUNTS 52 56 0 0 0
M  V30 BEGIN ATOM
M  V30 1 N 1.099364 -0.954005 5.751084 0
M  V30 2 C 2.106264 -0.634941 4.786379 0
M  V30 3 C 1.642226 -0.845846 3.361744 0
M  V30 4 C 0.457515 -0.010184 3.009154 0
M  V30 5 C 0.079386 -0.295363 1.595481 0
M  V30 6 C 0.475320 0.596419 0.612904 0
M  V30 7 C 0.152334 0.335872 -0.698627 0
M  V30 8 C 0.578901 1.275618 -1.612953 0
M  V30 9 C 1.354335 2.479027 -1.370411 0
M  V30 10 C 2.549142 2.558692 -0.692859 0
M  V30 11 C 3.243083 3.727157 -0.474486 0
M  V30 12 C 2.714807 4.902809 -0.963542 0
M  V30 13 C 1.522355 4.893623 -1.651565 0
M  V30 14 F 1.059753 6.081000 -2.106889 0
M  V30 15 C 0.860734 3.687652 -1.845031 0
M  V30 16 C 0.232968 0.996592 -2.940075 0
M  V30 17 N -0.467368 -0.100854 -3.354081 0
M  V30 18 C -0.850783 -0.976650 -2.408882 0
M  V30 19 O -1.475410 -1.925797 -2.912366 0
M  V30 20 C -0.551121 -0.773979 -1.089341 0
M  V30 21 C -0.946607 -1.659268 -0.126760 0
M  V30 22 C -1.656551 -2.779805 -0.466942 0
M  V30 23 C -2.071972 -3.683750 0.489560 0
M  V30 24 C -2.837717 -4.914435 0.223581 0
M  V30 25 C -3.780733 -5.234447 -0.731993 0
M  V30 26 N -4.175737 -6.503425 -0.534803 0
M  V30 27 N -3.516294 -7.008837 0.517037 0
M  V30 28 C -2.700424 -6.060330 0.990234 0
M  V30 29 C -1.727746 -3.388514 1.810455 0
M  V30 30 C -1.014189 -2.269754 2.185107 0
M  V30 31 C -0.626335 -1.400369 1.166311 0
M  V30 32 H 1.016525 -0.218185 6.486452 0
M  V30 33 H 0.212968 -1.291703 5.357492 0
M  V30 34 H 2.985223 -1.272553 4.990252 0
M  V30 35 H 2.417183 0.424150 4.943283 0
M  V30 36 H 1.510019 -1.901944 3.147005 0
M  V30 37 H 2.482557 -0.483578 2.691942 0
M  V30 38 H 0.721698 1.061854 3.098833 0
M  V30 39 H -0.398916 -0.160489 3.699408 0
M  V30 40 H 1.019941 1.474370 0.927067 0
M  V30 41 H 2.990102 1.653834 -0.311457 0
M  V30 42 H 4.189427 3.714483 0.074512 0
M  V30 43 H 3.312599 5.803106 -0.758084 0
M  V30 44 H -0.079639 3.748065 -2.398898 0
M  V30 45 H 0.547096 1.713230 -3.716325 0
M  V30 46 H -0.654804 -0.175759 -4.396532 0
M  V30 47 H -1.969830 -3.099248 -1.434339 0
M  V30 48 H -4.075935 -4.499148 -1.471415 0
M  V30 49 H -3.643489 -7.997571 0.885287 0
M  V30 50 H -2.062971 -6.230439 1.840509 0
M  V30 51 H -2.057907 -4.106687 2.577905 0
M  V30 52 H -0.827006 -2.166239 3.233368 0
M  V30 END ATOM
M  V30 BEGIN BOND
M  V30 1 1 1 2
M  V30 2 1 2 3
M  V30 3 1 3 4
M  V30 4 1 4 5
M  V30 5 2 5 6
M  V30 6 1 6 7
M  V30 7 1 7 8
M  V30 8 1 8 9
M  V30 9 2 9 10
M  V30 10 1 10 11
M  V30 11 2 11 12
M  V30 12 1 12 13
M  V30 13 1 13 14
M  V30 14 2 13 15
M  V30 15 2 8 16
M  V30 16 1 16 17
M  V30 17 1 17 18
M  V30 18 2 18 19
M  V30 19 1 18 20
M  V30 20 1 20 21
M  V30 21 2 21 22
M  V30 22 1 22 23
M  V30 23 1 23 24
M  V30 24 1 24 25
M  V30 25 2 25 26
M  V30 26 1 26 27
M  V30 27 1 27 28
M  V30 28 2 23 29
M  V30 29 1 29 30
M  V30 30 2 30 31
M  V30 31 1 31 5
M  V30 32 2 20 7
M  V30 33 1 31 21
M  V30 34 1 15 9
M  V30 35 2 28 24
M  V30 36 1 1 32
M  V30 37 1 1 33
M  V30 38 1 2 34
M  V30 39 1 2 35
M  V30 40 1 3 36
M  V30 41 1 3 37
M  V30 42 1 4 38
M  V30 43 1 4 39
M  V30 44 1 6 40
M  V30 45 1 10 41
M  V30 46 1 11 42
M  V30 47 1 12 43
M  V30 48 1 15 44
M  V30 49 1 16 45
M  V30 50 1 17 46
M  V30 51 1 22 47
M  V30 52 1 25 48
M  V30 53 1 27 49
M  V30 54 1 28 50
M  V30 55 1 29 51
M  V30 56 1 30 52
M  V30 END BOND
M  V30 END CTAB
M  END
>  <Dataset>  (398) 
ChEMBL_Kinases

>  <Ligand_Instance>  (398) 
nan

>  <PDB_ID>  (398) 
nan

>  <Standardized_SMILES>  (398) 
NCCCc1cc2c(-c3cccc(F)c3)c[nH]c(=O)c2c2cc(-c3cn[nH]c3)ccc12

>  <Name>  (398) 
nan

>  <Pocket>  (398) 
nan

>  <ATP_Site>  (398) 
nan

>  <Peripheral>  (398) 
nan

>  <Num_H_Atoms_ProtBoundConf>  (398) 
nan

>  <Num_Resolved_Atoms>  (398) 
nan

>  <Num_Not_Resolved_Atoms>  (398) 
nan

$$$$
CHEMBL249796
     RDKit          3D

  0  0  0  0  0  0  0  0  0  0999 V3000
M  V30 BEGIN CTAB
M  V30 COUNTS 32 34 0 0 0
M  V30 BEGIN ATOM
M  V30 1 N -3.211360 -2.435096 3.181884 0
M  V30 2 C -2.011812 -1.760689 2.729807 0
M  V30 3 C -1.662007 -2.265550 1.358355 0
M  V30 4 C -0.464382 -1.581574 0.868423 0
M  V30 5 C 0.793020 -2.159835 0.917470 0
M  V30 6 C 1.878747 -1.435807 0.451115 0
M  V30 7 C 3.100147 -2.042385 0.518991 0
M  V30 8 C 4.181425 -1.322762 0.056243 0
M  V30 9 N 4.068196 -0.068009 -0.448448 0
M  V30 10 C 2.855610 0.496984 -0.500691 0
M  V30 11 O 2.932897 1.638680 -0.987475 0
M  V30 12 C 1.743381 -0.165630 -0.057015 0
M  V30 13 C 0.520721 0.423906 -0.117361 0
M  V30 14 C 0.360386 1.679950 -0.624231 0
M  V30 15 C -0.875666 2.284995 -0.696550 0
M  V30 16 Br -1.188604 4.052093 -1.397602 0
M  V30 17 C -1.963554 1.565398 -0.231840 0
M  V30 18 C -1.806942 0.295868 0.280889 0
M  V30 19 C -0.538815 -0.285577 0.339382 0
M  V30 20 H -3.602346 -2.011721 4.045806 0
M  V30 21 H -3.935477 -2.474840 2.411505 0
M  V30 22 H -1.209672 -2.051058 3.481669 0
M  V30 23 H -2.072493 -0.667139 2.810336 0
M  V30 24 H -1.403289 -3.357172 1.469895 0
M  V30 25 H -2.511556 -2.259914 0.665362 0
M  V30 26 H 0.912340 -3.153654 1.312438 0
M  V30 27 H 3.255203 -3.046279 0.913871 0
M  V30 28 H 5.147259 -1.810504 0.116364 0
M  V30 29 H 4.985145 0.352237 -0.762426 0
M  V30 30 H 1.106210 2.334239 -1.012433 0
M  V30 31 H -2.954364 2.045665 -0.287358 0
M  V30 32 H -2.730462 -0.159119 0.600999 0
M  V30 END ATOM
M  V30 BEGIN BOND
M  V30 1 1 1 2
M  V30 2 1 2 3
M  V30 3 1 3 4
M  V30 4 2 4 5
M  V30 5 1 5 6
M  V30 6 1 6 7
M  V30 7 2 7 8
M  V30 8 1 8 9
M  V30 9 1 9 10
M  V30 10 2 10 11
M  V30 11 1 10 12
M  V30 12 1 12 13
M  V30 13 2 13 14
M  V30 14 1 14 15
M  V30 15 1 15 16
M  V30 16 2 15 17
M  V30 17 1 17 18
M  V30 18 2 18 19
M  V30 19 1 19 4
M  V30 20 2 12 6
M  V30 21 1 19 13
M  V30 22 1 1 20
M  V30 23 1 1 21
M  V30 24 1 2 22
M  V30 25 1 2 23
M  V30 26 1 3 24
M  V30 27 1 3 25
M  V30 28 1 5 26
M  V30 29 1 7 27
M  V30 30 1 8 28
M  V30 31 1 9 29
M  V30 32 1 14 30
M  V30 33 1 17 31
M  V30 34 1 18 32
M  V30 END BOND
M  V30 END CTAB
M  END
>  <Dataset>  (399) 
ChEMBL_Kinases

>  <Ligand_Instance>  (399) 
nan

>  <PDB_ID>  (399) 
nan

>  <Standardized_SMILES>  (399) 
NCCc1cc2cc[nH]c(=O)c2c2cc(Br)ccc12

>  <Name>  (399) 
nan

>  <Pocket>  (399) 
nan

>  <ATP_Site>  (399) 
nan

>  <Peripheral>  (399) 
nan

>  <Num_H_Atoms_ProtBoundConf>  (399) 
nan

>  <Num_Resolved_Atoms>  (399) 
nan

>  <Num_Not_Resolved_Atoms>  (399) 
nan

$$$$
CHEMBL249777
     RDKit          3D

  0  0  0  0  0  0  0  0  0  0999 V3000
M  V30 BEGIN CTAB
M  V30 COUNTS 48 51 0 0 0
M  V30 BEGIN ATOM
M  V30 1 N -0.612716 -8.924459 -3.700433 0
M  V30 2 C -1.413084 -7.853764 -3.212884 0
M  V30 3 O -2.646453 -8.088179 -3.278161 0
M  V30 4 C -0.800476 -6.635817 -2.703118 0
M  V30 5 C 0.568822 -6.422906 -2.651286 0
M  V30 6 C 1.081688 -5.243249 -2.155202 0
M  V30 7 C 0.240591 -4.249128 -1.699544 0
M  V30 8 N 0.513780 -3.032487 -1.180405 0
M  V30 9 C -0.652975 -2.443380 -0.890676 0
M  V30 10 C -0.764812 -1.108628 -0.309045 0
M  V30 11 C 0.395918 -0.411385 -0.041333 0
M  V30 12 C 0.344084 0.852274 0.507679 0
M  V30 13 C -0.849101 1.474286 0.812640 0
M  V30 14 O -1.169147 2.678564 1.344569 0
M  V30 15 C -0.440260 3.739231 1.787052 0
M  V30 16 C 0.512430 3.569481 2.902878 0
M  V30 17 C 1.141262 4.954050 3.124375 0
M  V30 18 C 2.197687 4.837110 4.199279 0
M  V30 19 N 1.578112 4.472408 5.430804 0
M  V30 20 C 0.958392 3.178370 5.267449 0
M  V30 21 C -0.125929 3.192624 4.215787 0
M  V30 22 C -2.024784 0.757814 0.536961 0
M  V30 23 C -1.984122 -0.528426 -0.021582 0
M  V30 24 N -1.642399 -3.290250 -1.228435 0
M  V30 25 C -1.137354 -4.424662 -1.734923 0
M  V30 26 C -1.597433 -5.616950 -2.238036 0
M  V30 27 H -0.898006 -9.608419 -4.421331 0
M  V30 28 H 0.364028 -9.295708 -3.510070 0
M  V30 29 H 1.215174 -7.224035 -3.017539 0
M  V30 30 H 2.142269 -5.095332 -2.122401 0
M  V30 31 H 1.465389 -2.665126 -1.049301 0
M  V30 32 H 1.406203 -0.791883 -0.236087 0
M  V30 33 H 1.186369 1.472746 0.748487 0
M  V30 34 H -1.163333 4.553939 2.089878 0
M  V30 35 H 0.116328 4.199055 0.934741 0
M  V30 36 H 1.320212 2.878529 2.655121 0
M  V30 37 H 0.325695 5.616131 3.521296 0
M  V30 38 H 1.583627 5.336446 2.181947 0
M  V30 39 H 2.734647 5.777603 4.321643 0
M  V30 40 H 2.873026 3.998655 3.907373 0
M  V30 41 H 2.135214 4.560473 6.282888 0
M  V30 42 H 0.523186 2.825474 6.231455 0
M  V30 43 H 1.760121 2.459710 4.996760 0
M  V30 44 H -0.830572 4.001934 4.482548 0
M  V30 45 H -0.585606 2.189419 4.221160 0
M  V30 46 H -3.065685 1.077292 0.706184 0
M  V30 47 H -2.864649 -1.111530 -0.248227 0
M  V30 48 H -2.671331 -5.755128 -2.266210 0
M  V30 END ATOM
M  V30 BEGIN BOND
M  V30 1 1 1 2
M  V30 2 2 2 3
M  V30 3 1 2 4
M  V30 4 2 4 5
M  V30 5 1 5 6
M  V30 6 2 6 7
M  V30 7 1 7 8
M  V30 8 1 8 9
M  V30 9 1 9 10
M  V30 10 2 10 11
M  V30 11 1 11 12
M  V30 12 2 12 13
M  V30 13 1 13 14
M  V30 14 1 14 15
M  V30 15 1 15 16
M  V30 16 1 16 17
M  V30 17 1 17 18
M  V30 18 1 18 19
M  V30 19 1 19 20
M  V30 20 1 20 21
M  V30 21 1 13 22
M  V30 22 2 22 23
M  V30 23 2 9 24
M  V30 24 1 24 25
M  V30 25 2 25 26
M  V30 26 1 26 4
M  V30 27 1 25 7
M  V30 28 1 23 10
M  V30 29 1 21 16
M  V30 30 1 1 27
M  V30 31 1 1 28
M  V30 32 1 5 29
M  V30 33 1 6 30
M  V30 34 1 8 31
M  V30 35 1 11 32
M  V30 36 1 12 33
M  V30 37 1 15 34
M  V30 38 1 15 35
M  V30 39 1 16 36
M  V30 40 1 17 37
M  V30 41 1 17 38
M  V30 42 1 18 39
M  V30 43 1 18 40
M  V30 44 1 19 41
M  V30 45 1 20 42
M  V30 46 1 20 43
M  V30 47 1 21 44
M  V30 48 1 21 45
M  V30 49 1 22 46
M  V30 50 1 23 47
M  V30 51 1 26 48
M  V30 END BOND
M  V30 END CTAB
M  END
>  <Dataset>  (400) 
ChEMBL_Kinases

>  <Ligand_Instance>  (400) 
nan

>  <PDB_ID>  (400) 
nan

>  <Standardized_SMILES>  (400) 
NC(=O)c1ccc2[nH]c(-c3ccc(OCC4CCNCC4)cc3)nc2c1

>  <Name>  (400) 
nan

>  <Pocket>  (400) 
nan

>  <ATP_Site>  (400) 
nan

>  <Peripheral>  (400) 
nan

>  <Num_H_Atoms_ProtBoundConf>  (400) 
nan

>  <Num_Resolved_Atoms>  (400) 
nan

>  <Num_Not_Resolved_Atoms>  (400) 
nan

$$$$
CHEMBL249776
     RDKit          3D

  0  0  0  0  0  0  0  0  0  0999 V3000
M  V30 BEGIN CTAB
M  V30 COUNTS 48 51 0 0 0
M  V30 BEGIN ATOM
M  V30 1 N -1.153691 -9.129421 -2.780512 0
M  V30 2 C -1.894632 -8.002541 -2.377044 0
M  V30 3 O -3.124230 -8.284046 -2.405877 0
M  V30 4 C -1.195045 -6.785567 -2.017605 0
M  V30 5 C 0.181214 -6.694921 -2.058166 0
M  V30 6 C 0.734930 -5.482509 -1.692826 0
M  V30 7 C -0.049848 -4.415018 -1.306459 0
M  V30 8 N 0.333010 -3.163142 -0.919640 0
M  V30 9 C -0.801864 -2.493088 -0.644468 0
M  V30 10 C -0.823977 -1.099908 -0.191217 0
M  V30 11 C 0.375707 -0.435498 -0.036719 0
M  V30 12 C 0.373896 0.875593 0.388909 0
M  V30 13 C -0.776417 1.580401 0.676499 0
M  V30 14 O -1.040516 2.832441 1.097304 0
M  V30 15 C -0.257940 3.912938 1.414435 0
M  V30 16 C 0.715907 3.778157 2.525777 0
M  V30 17 C 1.443408 5.121511 2.659754 0
M  V30 18 C 2.674133 4.853373 3.498284 0
M  V30 19 C 2.281472 3.792409 4.528886 0
M  V30 20 N 0.907010 4.024679 4.938440 0
M  V30 21 C 0.053238 3.537700 3.869045 0
M  V30 22 C -1.983783 0.882889 0.511535 0
M  V30 23 C -2.011941 -0.450644 0.080050 0
M  V30 24 N -1.862113 -3.296217 -0.851207 0
M  V30 25 C -1.426916 -4.518059 -1.269877 0
M  V30 26 C -2.004642 -5.719693 -1.630499 0
M  V30 27 H -1.201540 -9.903182 -3.470534 0
M  V30 28 H -0.288970 -9.710636 -2.630573 0
M  V30 29 H 0.794535 -7.538462 -2.363124 0
M  V30 30 H 1.829784 -5.408764 -1.724558 0
M  V30 31 H 1.334888 -2.844086 -0.867027 0
M  V30 32 H 1.353355 -0.872101 -0.228256 0
M  V30 33 H 1.254797 1.480649 0.536008 0
M  V30 34 H -0.927569 4.812900 1.534421 0
M  V30 35 H 0.343520 4.172810 0.500319 0
M  V30 36 H 1.479017 3.044010 2.291582 0
M  V30 37 H 0.779175 5.790740 3.236931 0
M  V30 38 H 1.704959 5.529036 1.665148 0
M  V30 39 H 3.026424 5.759777 4.022431 0
M  V30 40 H 3.445087 4.438960 2.815493 0
M  V30 41 H 2.977018 3.819384 5.401056 0
M  V30 42 H 2.381895 2.773065 4.107965 0
M  V30 43 H 0.732781 3.418139 5.771044 0
M  V30 44 H -0.955528 3.993436 3.899210 0
M  V30 45 H -0.001416 2.443587 3.975076 0
M  V30 46 H -3.002027 1.241010 0.679646 0
M  V30 47 H -2.908920 -1.032691 -0.063230 0
M  V30 48 H -3.073609 -5.796617 -1.601103 0
M  V30 END ATOM
M  V30 BEGIN BOND
M  V30 1 1 1 2
M  V30 2 2 2 3
M  V30 3 1 2 4
M  V30 4 2 4 5
M  V30 5 1 5 6
M  V30 6 2 6 7
M  V30 7 1 7 8
M  V30 8 1 8 9
M  V30 9 1 9 10
M  V30 10 2 10 11
M  V30 11 1 11 12
M  V30 12 2 12 13
M  V30 13 1 13 14
M  V30 14 1 14 15
M  V30 15 1 15 16
M  V30 16 1 16 17
M  V30 17 1 17 18
M  V30 18 1 18 19
M  V30 19 1 19 20
M  V30 20 1 20 21
M  V30 21 1 13 22
M  V30 22 2 22 23
M  V30 23 2 9 24
M  V30 24 1 24 25
M  V30 25 2 25 26
M  V30 26 1 26 4
M  V30 27 1 25 7
M  V30 28 1 23 10
M  V30 29 1 21 16
M  V30 30 1 1 27
M  V30 31 1 1 28
M  V30 32 1 5 29
M  V30 33 1 6 30
M  V30 34 1 8 31
M  V30 35 1 11 32
M  V30 36 1 12 33
M  V30 37 1 15 34
M  V30 38 1 15 35
M  V30 39 1 16 36
M  V30 40 1 17 37
M  V30 41 1 17 38
M  V30 42 1 18 39
M  V30 43 1 18 40
M  V30 44 1 19 41
M  V30 45 1 19 42
M  V30 46 1 20 43
M  V30 47 1 21 44
M  V30 48 1 21 45
M  V30 49 1 22 46
M  V30 50 1 23 47
M  V30 51 1 26 48
M  V30 END BOND
M  V30 END CTAB
M  END
>  <Dataset>  (401) 
ChEMBL_Kinases

>  <Ligand_Instance>  (401) 
nan

>  <PDB_ID>  (401) 
nan

>  <Standardized_SMILES>  (401) 
NC(=O)c1ccc2[nH]c(-c3ccc(OCC4CCCNC4)cc3)nc2c1

>  <Name>  (401) 
nan

>  <Pocket>  (401) 
nan

>  <ATP_Site>  (401) 
nan

>  <Peripheral>  (401) 
nan

>  <Num_H_Atoms_ProtBoundConf>  (401) 
nan

>  <Num_Resolved_Atoms>  (401) 
nan

>  <Num_Not_Resolved_Atoms>  (401) 
nan

$$$$
CHEMBL249750
     RDKit          3D

  0  0  0  0  0  0  0  0  0  0999 V3000
M  V30 BEGIN CTAB
M  V30 COUNTS 54 57 0 0 0
M  V30 BEGIN ATOM
M  V30 1 N 1.610913 -6.989149 -5.049723 0
M  V30 2 C 2.472447 -6.799551 -3.953524 0
M  V30 3 O 3.349091 -7.663871 -3.712450 0
M  V30 4 C 2.365161 -5.623799 -3.098468 0
M  V30 5 C 3.267505 -5.507164 -2.060182 0
M  V30 6 C 3.235344 -4.422213 -1.198753 0
M  V30 7 C 2.246320 -3.464995 -1.441484 0
M  V30 8 N 2.004807 -2.318047 -0.744705 0
M  V30 9 C 0.962013 -1.689898 -1.313130 0
M  V30 10 C 0.371723 -0.423943 -0.880550 0
M  V30 11 C 0.969571 0.158531 0.212467 0
M  V30 12 C 0.448998 1.346703 0.656965 0
M  V30 13 C -0.630251 2.032486 0.115658 0
M  V30 14 O -1.380126 3.137273 0.261825 0
M  V30 15 C -1.392800 4.159118 1.153375 0
M  V30 16 C -1.794724 4.026937 2.557040 0
M  V30 17 C -1.150903 3.058847 3.467360 0
M  V30 18 N -1.329830 1.669796 3.177055 0
M  V30 19 C -2.678111 1.221547 3.386531 0
M  V30 20 C -2.861962 -0.066645 2.608088 0
M  V30 21 C -1.677345 -0.967256 2.845662 0
M  V30 22 C -0.871627 -0.575846 4.043933 0
M  V30 23 C -0.417959 0.867273 3.988645 0
M  V30 24 C -1.202883 1.385344 -1.004782 0
M  V30 25 C -0.706322 0.163083 -1.502613 0
M  V30 26 N 0.557264 -2.444797 -2.360564 0
M  V30 27 C 1.326868 -3.548012 -2.470048 0
M  V30 28 C 1.408204 -4.651788 -3.296430 0
M  V30 29 H 0.559650 -7.144776 -5.034550 0
M  V30 30 H 1.688541 -7.036975 -6.107650 0
M  V30 31 H 4.031941 -6.262611 -1.886599 0
M  V30 32 H 3.938239 -4.326524 -0.386189 0
M  V30 33 H 2.552678 -2.002131 0.089115 0
M  V30 34 H 1.805751 -0.170524 0.798359 0
M  V30 35 H 0.785197 1.978199 1.493772 0
M  V30 36 H -0.323946 4.624260 1.202030 0
M  V30 37 H -1.924070 5.086442 0.681719 0
M  V30 38 H -2.910933 3.823138 2.598956 0
M  V30 39 H -1.702363 5.039735 3.092858 0
M  V30 40 H -1.439093 3.280663 4.534694 0
M  V30 41 H -0.025027 3.259028 3.479479 0
M  V30 42 H -2.872928 1.002529 4.460715 0
M  V30 43 H -3.411689 1.952379 3.063054 0
M  V30 44 H -3.838639 -0.551978 2.824495 0
M  V30 45 H -2.880454 0.171094 1.507826 0
M  V30 46 H -1.005335 -1.036301 1.954023 0
M  V30 47 H -2.084549 -1.996168 3.064034 0
M  V30 48 H 0.060535 -1.199179 4.016319 0
M  V30 49 H -1.352225 -0.798882 4.999348 0
M  V30 50 H -0.479500 1.267963 5.025401 0
M  V30 51 H 0.632402 0.952974 3.662689 0
M  V30 52 H -2.052843 1.643483 -1.662992 0
M  V30 53 H -1.055820 -0.417667 -2.340711 0
M  V30 54 H 0.694051 -4.731587 -4.108695 0
M  V30 END ATOM
M  V30 BEGIN BOND
M  V30 1 1 1 2
M  V30 2 2 2 3
M  V30 3 1 2 4
M  V30 4 2 4 5
M  V30 5 1 5 6
M  V30 6 2 6 7
M  V30 7 1 7 8
M  V30 8 1 8 9
M  V30 9 1 9 10
M  V30 10 2 10 11
M  V30 11 1 11 12
M  V30 12 2 12 13
M  V30 13 1 13 14
M  V30 14 1 14 15
M  V30 15 1 15 16
M  V30 16 1 16 17
M  V30 17 1 17 18
M  V30 18 1 18 19
M  V30 19 1 19 20
M  V30 20 1 20 21
M  V30 21 1 21 22
M  V30 22 1 22 23
M  V30 23 1 13 24
M  V30 24 2 24 25
M  V30 25 2 9 26
M  V30 26 1 26 27
M  V30 27 2 27 28
M  V30 28 1 28 4
M  V30 29 1 27 7
M  V30 30 1 25 10
M  V30 31 1 23 18
M  V30 32 1 1 29
M  V30 33 1 1 30
M  V30 34 1 5 31
M  V30 35 1 6 32
M  V30 36 1 8 33
M  V30 37 1 11 34
M  V30 38 1 12 35
M  V30 39 1 15 36
M  V30 40 1 15 37
M  V30 41 1 16 38
M  V30 42 1 16 39
M  V30 43 1 17 40
M  V30 44 1 17 41
M  V30 45 1 19 42
M  V30 46 1 19 43
M  V30 47 1 20 44
M  V30 48 1 20 45
M  V30 49 1 21 46
M  V30 50 1 21 47
M  V30 51 1 22 48
M  V30 52 1 22 49
M  V30 53 1 23 50
M  V30 54 1 23 51
M  V30 55 1 24 52
M  V30 56 1 25 53
M  V30 57 1 28 54
M  V30 END BOND
M  V30 END CTAB
M  END
>  <Dataset>  (402) 
ChEMBL_Kinases

>  <Ligand_Instance>  (402) 
nan

>  <PDB_ID>  (402) 
nan

>  <Standardized_SMILES>  (402) 
NC(=O)c1ccc2[nH]c(-c3ccc(OCCCN4CCCCC4)cc3)nc2c1

>  <Name>  (402) 
nan

>  <Pocket>  (402) 
nan

>  <ATP_Site>  (402) 
nan

>  <Peripheral>  (402) 
nan

>  <Num_H_Atoms_ProtBoundConf>  (402) 
nan

>  <Num_Resolved_Atoms>  (402) 
nan

>  <Num_Not_Resolved_Atoms>  (402) 
nan

$$$$
CHEMBL259212
     RDKit          3D

  0  0  0  0  0  0  0  0  0  0999 V3000
M  V30 BEGIN CTAB
M  V30 COUNTS 45 48 0 0 0
M  V30 BEGIN ATOM
M  V30 1 C 0.591325 -3.299534 3.950690 0
M  V30 2 N 1.251656 -2.206092 3.305535 0
M  V30 3 C 2.642897 -1.930853 3.176238 0
M  V30 4 O 3.529503 -2.681234 3.655863 0
M  V30 5 C 3.091273 -0.738543 2.464175 0
M  V30 6 C 4.437907 -0.437930 2.415833 0
M  V30 7 C 4.905383 0.688556 1.746107 0
M  V30 8 C 4.036429 1.543108 1.107942 0
M  V30 9 C 4.479231 2.770790 0.384822 0
M  V30 10 C 2.655899 1.283363 1.125902 0
M  V30 11 N 1.709782 2.128354 0.479689 0
M  V30 12 C 0.333276 1.755613 0.594016 0
M  V30 13 N -0.500471 2.356956 1.452872 0
M  V30 14 C -1.810477 1.977193 1.559246 0
M  V30 15 N -2.336154 0.971546 0.802826 0
M  V30 16 C -1.487784 0.356826 -0.071203 0
M  V30 17 C -0.154685 0.720912 -0.201851 0
M  V30 18 C 0.362450 -0.112739 -1.158748 0
M  V30 19 N -0.620880 -0.932005 -1.574234 0
M  V30 20 N -1.756446 -0.655293 -0.917199 0
M  V30 21 C -2.940437 -1.399775 -1.187685 0
M  V30 22 C -2.788872 -2.756086 -0.856112 0
M  V30 23 C -3.844664 -3.619598 -1.061707 0
M  V30 24 C -5.046545 -3.184666 -1.585529 0
M  V30 25 F -6.071131 -4.051845 -1.779985 0
M  V30 26 C -5.137688 -1.837021 -1.893134 0
M  V30 27 C -4.111361 -0.930768 -1.706667 0
M  V30 28 C 2.291887 0.150857 1.810824 0
M  V30 29 H 0.228321 -3.023232 4.969493 0
M  V30 30 H 1.278225 -4.172314 4.100957 0
M  V30 31 H -0.291658 -3.702898 3.425596 0
M  V30 32 H 0.500159 -1.574726 2.903778 0
M  V30 33 H 5.189500 -1.055296 2.890096 0
M  V30 34 H 5.983149 0.902980 1.723577 0
M  V30 35 H 4.101826 3.684378 0.889218 0
M  V30 36 H 4.124946 2.695054 -0.657792 0
M  V30 37 H 5.588110 2.766409 0.369577 0
M  V30 38 H 2.018187 2.962627 -0.043458 0
M  V30 39 H -2.351704 2.553960 2.289478 0
M  V30 40 H 1.400237 -0.080423 -1.490155 0
M  V30 41 H -1.883467 -3.191204 -0.440856 0
M  V30 42 H -3.771053 -4.670251 -0.823083 0
M  V30 43 H -6.065944 -1.476320 -2.303528 0
M  V30 44 H -4.153901 0.112369 -1.934271 0
M  V30 45 H 1.222598 -0.034211 1.812990 0
M  V30 END ATOM
M  V30 BEGIN BOND
M  V30 1 1 1 2
M  V30 2 1 2 3
M  V30 3 2 3 4
M  V30 4 1 3 5
M  V30 5 2 5 6
M  V30 6 1 6 7
M  V30 7 2 7 8
M  V30 8 1 8 9
M  V30 9 1 8 10
M  V30 10 1 10 11
M  V30 11 1 11 12
M  V30 12 2 12 13
M  V30 13 1 13 14
M  V30 14 2 14 15
M  V30 15 1 15 16
M  V30 16 2 16 17
M  V30 17 1 17 18
M  V30 18 2 18 19
M  V30 19 1 19 20
M  V30 20 1 20 21
M  V30 21 2 21 22
M  V30 22 1 22 23
M  V30 23 2 23 24
M  V30 24 1 24 25
M  V30 25 1 24 26
M  V30 26 2 26 27
M  V30 27 2 10 28
M  V30 28 1 28 5
M  V30 29 1 17 12
M  V30 30 1 27 21
M  V30 31 1 20 16
M  V30 32 1 1 29
M  V30 33 1 1 30
M  V30 34 1 1 31
M  V30 35 1 2 32
M  V30 36 1 6 33
M  V30 37 1 7 34
M  V30 38 1 9 35
M  V30 39 1 9 36
M  V30 40 1 9 37
M  V30 41 1 11 38
M  V30 42 1 14 39
M  V30 43 1 18 40
M  V30 44 1 22 41
M  V30 45 1 23 42
M  V30 46 1 26 43
M  V30 47 1 27 44
M  V30 48 1 28 45
M  V30 END BOND
M  V30 END CTAB
M  END
>  <Dataset>  (403) 
ChEMBL_Kinases

>  <Ligand_Instance>  (403) 
nan

>  <PDB_ID>  (403) 
nan

>  <Standardized_SMILES>  (403) 
CNC(=O)c1ccc(C)c(Nc2ncnc3c2cnn3-c2ccc(F)cc2)c1

>  <Name>  (403) 
nan

>  <Pocket>  (403) 
nan

>  <ATP_Site>  (403) 
nan

>  <Peripheral>  (403) 
nan

>  <Num_H_Atoms_ProtBoundConf>  (403) 
nan

>  <Num_Resolved_Atoms>  (403) 
nan

>  <Num_Not_Resolved_Atoms>  (403) 
nan

$$$$
CHEMBL249527
     RDKit          3D

  0  0  0  0  0  0  0  0  0  0999 V3000
M  V30 BEGIN CTAB
M  V30 COUNTS 59 63 0 0 0
M  V30 BEGIN ATOM
M  V30 1 C 4.348999 -2.809870 5.346761 0
M  V30 2 N 4.649833 -1.423452 5.549492 0
M  V30 3 C 5.591278 -0.950789 4.570478 0
M  V30 4 C 3.494094 -0.583503 5.703736 0
M  V30 5 C 2.579517 -0.601564 4.534742 0
M  V30 6 C 2.765216 0.309520 3.503235 0
M  V30 7 C 1.897147 0.283224 2.409763 0
M  V30 8 N 0.884069 -0.610600 2.339989 0
M  V30 9 C -0.048983 -0.785996 1.369544 0
M  V30 10 C -0.176576 -0.029611 0.145460 0
M  V30 11 C -0.889891 1.166454 0.215293 0
M  V30 12 C -1.097499 2.004886 -0.881104 0
M  V30 13 N -0.564714 1.597366 -2.039605 0
M  V30 14 C 0.129348 0.449853 -2.144257 0
M  V30 15 N 0.654768 0.102088 -3.411572 0
M  V30 16 C -0.298228 -0.696563 -4.163064 0
M  V30 17 C -1.548848 0.117750 -4.331296 0
M  V30 18 C -2.448292 -0.071946 -3.295851 0
M  V30 19 C -3.667853 0.574239 -3.239846 0
M  V30 20 C -3.952073 1.435691 -4.287166 0
M  V30 21 F -5.139781 2.089689 -4.268515 0
M  V30 22 C -3.061988 1.636820 -5.331542 0
M  V30 23 C -1.852621 0.975105 -5.356052 0
M  V30 24 N 0.307747 -0.325522 -1.077036 0
M  V30 25 C -0.866013 -1.834158 1.770641 0
M  V30 26 C -1.996054 -2.330901 0.991606 0
M  V30 27 C -1.591031 -2.870105 -0.222494 0
M  V30 28 C -2.524872 -3.398064 -1.112842 0
M  V30 29 C -3.846007 -3.375045 -0.767986 0
M  V30 30 F -4.783546 -3.878405 -1.606247 0
M  V30 31 C -4.235090 -2.841121 0.431628 0
M  V30 32 C -3.333831 -2.311972 1.331423 0
M  V30 33 N -0.391883 -2.255810 2.977903 0
M  V30 34 C 0.675968 -1.519027 3.338860 0
M  V30 35 C 1.529186 -1.501991 4.425731 0
M  V30 36 H 3.471476 -3.056441 6.011602 0
M  V30 37 H 5.174401 -3.483162 5.607127 0
M  V30 38 H 3.971168 -2.982347 4.308479 0
M  V30 39 H 6.628700 -1.288135 4.795110 0
M  V30 40 H 5.565399 0.158289 4.471746 0
M  V30 41 H 5.261757 -1.356903 3.586306 0
M  V30 42 H 2.947310 -0.928756 6.615360 0
M  V30 43 H 3.855994 0.450737 5.875399 0
M  V30 44 H 3.550749 1.043077 3.501215 0
M  V30 45 H 2.022439 0.983833 1.594355 0
M  V30 46 H -1.321536 1.494092 1.160579 0
M  V30 47 H -1.653192 2.920560 -0.790923 0
M  V30 48 H 1.610477 0.424367 -3.679244 0
M  V30 49 H -0.512213 -1.677538 -3.711335 0
M  V30 50 H 0.158687 -0.859264 -5.176851 0
M  V30 51 H -2.277727 -0.740740 -2.441151 0
M  V30 52 H -4.386057 0.436023 -2.433689 0
M  V30 53 H -3.272729 2.311616 -6.162846 0
M  V30 54 H -1.084746 1.058396 -6.123379 0
M  V30 55 H -0.563665 -2.934017 -0.586925 0
M  V30 56 H -2.219964 -3.828742 -2.077882 0
M  V30 57 H -5.277393 -2.810767 0.729068 0
M  V30 58 H -3.544074 -1.870134 2.298460 0
M  V30 59 H 1.372111 -2.215650 5.219156 0
M  V30 END ATOM
M  V30 BEGIN BOND
M  V30 1 1 1 2
M  V30 2 1 2 3
M  V30 3 1 2 4
M  V30 4 1 4 5
M  V30 5 1 5 6
M  V30 6 2 6 7
M  V30 7 1 7 8
M  V30 8 1 8 9
M  V30 9 1 9 10
M  V30 10 2 10 11
M  V30 11 1 11 12
M  V30 12 2 12 13
M  V30 13 1 13 14
M  V30 14 1 14 15
M  V30 15 1 15 16
M  V30 16 1 16 17
M  V30 17 2 17 18
M  V30 18 1 18 19
M  V30 19 2 19 20
M  V30 20 1 20 21
M  V30 21 1 20 22
M  V30 22 2 22 23
M  V30 23 2 14 24
M  V30 24 2 9 25
M  V30 25 1 25 26
M  V30 26 2 26 27
M  V30 27 1 27 28
M  V30 28 2 28 29
M  V30 29 1 29 30
M  V30 30 1 29 31
M  V30 31 2 31 32
M  V30 32 1 25 33
M  V30 33 2 33 34
M  V30 34 1 34 35
M  V30 35 2 35 5
M  V30 36 1 34 8
M  V30 37 1 24 10
M  V30 38 1 32 26
M  V30 39 1 23 17
M  V30 40 1 1 36
M  V30 41 1 1 37
M  V30 42 1 1 38
M  V30 43 1 3 39
M  V30 44 1 3 40
M  V30 45 1 3 41
M  V30 46 1 4 42
M  V30 47 1 4 43
M  V30 48 1 6 44
M  V30 49 1 7 45
M  V30 50 1 11 46
M  V30 51 1 12 47
M  V30 52 1 15 48
M  V30 53 1 16 49
M  V30 54 1 16 50
M  V30 55 1 18 51
M  V30 56 1 19 52
M  V30 57 1 22 53
M  V30 58 1 23 54
M  V30 59 1 27 55
M  V30 60 1 28 56
M  V30 61 1 31 57
M  V30 62 1 32 58
M  V30 63 1 35 59
M  V30 END BOND
M  V30 END CTAB
M  END
>  <Dataset>  (404) 
ChEMBL_Kinases

>  <Ligand_Instance>  (404) 
nan

>  <PDB_ID>  (404) 
nan

>  <Standardized_SMILES>  (404) 
CN(C)Cc1ccn2c(-c3ccnc(NCc4ccc(F)cc4)n3)c(-c3ccc(F)cc3)nc2c1

>  <Name>  (404) 
nan

>  <Pocket>  (404) 
nan

>  <ATP_Site>  (404) 
nan

>  <Peripheral>  (404) 
nan

>  <Num_H_Atoms_ProtBoundConf>  (404) 
nan

>  <Num_Resolved_Atoms>  (404) 
nan

>  <Num_Not_Resolved_Atoms>  (404) 
nan

$$$$
CHEMBL249530
     RDKit          3D

  0  0  0  0  0  0  0  0  0  0999 V3000
M  V30 BEGIN CTAB
M  V30 COUNTS 38 41 0 0 0
M  V30 BEGIN ATOM
M  V30 1 Br 0.043323 -4.434168 5.251405 0
M  V30 2 C 1.044110 -3.682055 3.843331 0
M  V30 3 C 2.326996 -4.125325 3.563436 0
M  V30 4 N 2.744409 -3.383810 2.512457 0
M  V30 5 N 1.773957 -2.530852 2.161524 0
M  V30 6 C 1.689200 -1.585755 1.185906 0
M  V30 7 N 2.783364 -1.384321 0.269152 0
M  V30 8 C 3.230620 -0.560358 -0.792367 0
M  V30 9 C 2.191842 0.246753 -1.458629 0
M  V30 10 C 1.289920 -0.062381 -2.438207 0
M  V30 11 C 0.416829 0.891317 -2.919712 0
M  V30 12 C 0.412403 2.201285 -2.436376 0
M  V30 13 N 1.295314 2.546569 -1.461486 0
M  V30 14 C 2.147735 1.577874 -1.006881 0
M  V30 15 C 0.516285 -0.870041 1.107129 0
M  V30 16 C -0.577152 -1.008137 1.906419 0
M  V30 17 C -1.798971 -0.230813 1.782052 0
M  V30 18 C -1.860067 0.720739 0.789732 0
M  V30 19 C -3.033910 1.466558 0.658490 0
M  V30 20 C -4.044573 1.196245 1.529074 0
M  V30 21 C -4.057054 0.259902 2.547351 0
M  V30 22 C -2.857930 -0.456721 2.633441 0
M  V30 23 N -0.423846 -1.965474 2.853326 0
M  V30 24 C 0.708356 -2.682248 2.958938 0
M  V30 25 H 3.014087 -4.858120 3.948605 0
M  V30 26 H 3.571914 -2.088722 0.423252 0
M  V30 27 H 3.627318 -1.233632 -1.621454 0
M  V30 28 H 4.117572 0.065151 -0.547428 0
M  V30 29 H 1.355213 -1.086974 -2.766720 0
M  V30 30 H -0.274995 0.592005 -3.694280 0
M  V30 31 H -0.272690 2.946317 -2.811530 0
M  V30 32 H 2.799830 1.966952 -0.239025 0
M  V30 33 H 0.478291 -0.148796 0.335994 0
M  V30 34 H -1.105122 0.981748 0.078240 0
M  V30 35 H -3.142560 2.226907 -0.099227 0
M  V30 36 H -4.955187 1.782987 1.422924 0
M  V30 37 H -4.903074 0.102953 3.198845 0
M  V30 38 H -2.797036 -1.214691 3.414477 0
M  V30 END ATOM
M  V30 BEGIN BOND
M  V30 1 1 1 2
M  V30 2 1 2 3
M  V30 3 2 3 4
M  V30 4 1 4 5
M  V30 5 1 5 6
M  V30 6 1 6 7
M  V30 7 1 7 8
M  V30 8 1 8 9
M  V30 9 2 9 10
M  V30 10 1 10 11
M  V30 11 2 11 12
M  V30 12 1 12 13
M  V30 13 2 13 14
M  V30 14 2 6 15
M  V30 15 1 15 16
M  V30 16 1 16 17
M  V30 17 2 17 18
M  V30 18 1 18 19
M  V30 19 2 19 20
M  V30 20 1 20 21
M  V30 21 2 21 22
M  V30 22 2 16 23
M  V30 23 1 23 24
M  V30 24 2 24 2
M  V30 25 1 24 5
M  V30 26 1 14 9
M  V30 27 1 22 17
M  V30 28 1 3 25
M  V30 29 1 7 26
M  V30 30 1 8 27
M  V30 31 1 8 28
M  V30 32 1 10 29
M  V30 33 1 11 30
M  V30 34 1 12 31
M  V30 35 1 14 32
M  V30 36 1 15 33
M  V30 37 1 18 34
M  V30 38 1 19 35
M  V30 39 1 20 36
M  V30 40 1 21 37
M  V30 41 1 22 38
M  V30 END BOND
M  V30 END CTAB
M  END
>  <Dataset>  (405) 
ChEMBL_Kinases

>  <Ligand_Instance>  (405) 
nan

>  <PDB_ID>  (405) 
nan

>  <Standardized_SMILES>  (405) 
Brc1cnn2c(NCc3cccnc3)cc(-c3ccccc3)nc12

>  <Name>  (405) 
nan

>  <Pocket>  (405) 
nan

>  <ATP_Site>  (405) 
nan

>  <Peripheral>  (405) 
nan

>  <Num_H_Atoms_ProtBoundConf>  (405) 
nan

>  <Num_Resolved_Atoms>  (405) 
nan

>  <Num_Not_Resolved_Atoms>  (405) 
nan

$$$$
CHEMBL249531
     RDKit          3D

  0  0  0  0  0  0  0  0  0  0999 V3000
M  V30 BEGIN CTAB
M  V30 COUNTS 44 47 0 0 0
M  V30 BEGIN ATOM
M  V30 1 C 0.704985 -5.327249 1.719231 0
M  V30 2 C 1.251915 -4.157283 2.505497 0
M  V30 3 C 1.669069 -3.038214 1.659300 0
M  V30 4 C 2.989069 -2.729033 1.354319 0
M  V30 5 N 2.966257 -1.633717 0.550985 0
M  V30 6 N 1.703505 -1.281242 0.366524 0
M  V30 7 C 1.176276 -0.267704 -0.340263 0
M  V30 8 N 2.055873 0.573542 -1.039328 0
M  V30 9 C 2.016269 2.030961 -1.124674 0
M  V30 10 C 2.336067 2.622097 0.201100 0
M  V30 11 C 3.717365 2.830352 0.329168 0
M  V30 12 C 4.292463 3.369169 1.486681 0
M  V30 13 C 3.397601 3.684391 2.501621 0
M  V30 14 N 2.075487 3.485791 2.380384 0
M  V30 15 C 1.540321 2.967257 1.262519 0
M  V30 16 C -0.204373 -0.138725 -0.348422 0
M  V30 17 C -1.092104 -0.959939 0.306372 0
M  V30 18 C -2.527621 -0.753761 0.244867 0
M  V30 19 C -3.387545 -1.584672 0.914408 0
M  V30 20 C -4.752076 -1.554412 0.976307 0
M  V30 21 C -5.339193 -0.510079 0.237571 0
M  V30 22 C -4.501254 0.338092 -0.443492 0
M  V30 23 C -3.119793 0.263972 -0.473623 0
M  V30 24 N -0.467615 -1.936224 0.981117 0
M  V30 25 C 0.863823 -2.102688 1.019667 0
M  V30 26 H -0.066317 -5.022354 1.000724 0
M  V30 27 H 1.489704 -5.969047 1.278639 0
M  V30 28 H 0.160546 -5.972425 2.465156 0
M  V30 29 H 0.492662 -3.843150 3.234527 0
M  V30 30 H 2.123144 -4.567925 3.073951 0
M  V30 31 H 3.916808 -3.209429 1.651870 0
M  V30 32 H 2.848160 0.110813 -1.573884 0
M  V30 33 H 2.661532 2.414475 -1.932573 0
M  V30 34 H 0.969070 2.350416 -1.364885 0
M  V30 35 H 4.462881 2.597475 -0.433298 0
M  V30 36 H 5.358612 3.525828 1.581395 0
M  V30 37 H 3.853661 4.107801 3.407238 0
M  V30 38 H 0.506585 2.772773 1.068578 0
M  V30 39 H -0.540010 0.707493 -0.942986 0
M  V30 40 H -2.954001 -2.411620 1.501586 0
M  V30 41 H -5.383726 -2.234026 1.517744 0
M  V30 42 H -6.414886 -0.347304 0.181212 0
M  V30 43 H -4.920926 1.161962 -1.032486 0
M  V30 44 H -2.530384 0.966741 -1.032756 0
M  V30 END ATOM
M  V30 BEGIN BOND
M  V30 1 1 1 2
M  V30 2 1 2 3
M  V30 3 1 3 4
M  V30 4 2 4 5
M  V30 5 1 5 6
M  V30 6 1 6 7
M  V30 7 1 7 8
M  V30 8 1 8 9
M  V30 9 1 9 10
M  V30 10 2 10 11
M  V30 11 1 11 12
M  V30 12 2 12 13
M  V30 13 1 13 14
M  V30 14 2 14 15
M  V30 15 2 7 16
M  V30 16 1 16 17
M  V30 17 1 17 18
M  V30 18 2 18 19
M  V30 19 1 19 20
M  V30 20 2 20 21
M  V30 21 1 21 22
M  V30 22 2 22 23
M  V30 23 2 17 24
M  V30 24 1 24 25
M  V30 25 2 25 3
M  V30 26 1 25 6
M  V30 27 1 15 10
M  V30 28 1 23 18
M  V30 29 1 1 26
M  V30 30 1 1 27
M  V30 31 1 1 28
M  V30 32 1 2 29
M  V30 33 1 2 30
M  V30 34 1 4 31
M  V30 35 1 8 32
M  V30 36 1 9 33
M  V30 37 1 9 34
M  V30 38 1 11 35
M  V30 39 1 12 36
M  V30 40 1 13 37
M  V30 41 1 15 38
M  V30 42 1 16 39
M  V30 43 1 19 40
M  V30 44 1 20 41
M  V30 45 1 21 42
M  V30 46 1 22 43
M  V30 47 1 23 44
M  V30 END BOND
M  V30 END CTAB
M  END
>  <Dataset>  (406) 
ChEMBL_Kinases

>  <Ligand_Instance>  (406) 
nan

>  <PDB_ID>  (406) 
nan

>  <Standardized_SMILES>  (406) 
CCc1cnn2c(NCc3cccnc3)cc(-c3ccccc3)nc12

>  <Name>  (406) 
nan

>  <Pocket>  (406) 
nan

>  <ATP_Site>  (406) 
nan

>  <Peripheral>  (406) 
nan

>  <Num_H_Atoms_ProtBoundConf>  (406) 
nan

>  <Num_Resolved_Atoms>  (406) 
nan

>  <Num_Not_Resolved_Atoms>  (406) 
nan

$$$$
CHEMBL249541
     RDKit          3D

  0  0  0  0  0  0  0  0  0  0999 V3000
M  V30 BEGIN CTAB
M  V30 COUNTS 64 68 0 0 0
M  V30 BEGIN ATOM
M  V30 1 N 8.972111 -1.765180 2.819831 0
M  V30 2 C 8.272113 -1.290064 1.674299 0
M  V30 3 O 8.893935 -1.219954 0.605694 0
M  V30 4 C 6.875687 -0.921458 1.845649 0
M  V30 5 C 6.224053 -1.024522 3.063243 0
M  V30 6 C 4.885685 -0.653501 3.171014 0
M  V30 7 C 4.210892 -0.181940 2.056476 0
M  V30 8 N 2.946870 0.243231 1.856923 0
M  V30 9 C 2.809035 0.598585 0.569434 0
M  V30 10 C 1.554140 1.113263 0.018250 0
M  V30 11 C 0.479536 1.253861 0.873851 0
M  V30 12 C -0.732478 1.731525 0.426644 0
M  V30 13 C -0.931292 2.089693 -0.887471 0
M  V30 14 O -1.979218 2.582986 -1.634369 0
M  V30 15 C -3.265411 2.891430 -1.247952 0
M  V30 16 C -4.137830 1.821904 -0.718579 0
M  V30 17 C -4.480722 0.693290 -1.620547 0
M  V30 18 C -3.351413 -0.114739 -2.159552 0
M  V30 19 C -2.752951 -1.040239 -1.123111 0
M  V30 20 N -3.257576 -0.799563 0.188072 0
M  V30 21 C -2.491237 -1.352507 1.253409 0
M  V30 22 C -2.437181 -2.828096 1.097073 0
M  V30 23 C -1.418955 -3.375146 0.345210 0
M  V30 24 C -1.314084 -4.737780 0.162954 0
M  V30 25 C -2.227272 -5.601633 0.728422 0
M  V30 26 Cl -2.180975 -7.345551 0.556278 0
M  V30 27 C -3.251527 -5.064774 1.483902 0
M  V30 28 Cl -4.452563 -6.073496 2.239978 0
M  V30 29 C -3.362897 -3.698215 1.671181 0
M  V30 30 C -4.669985 -0.811032 0.346323 0
M  V30 31 C -5.383220 -0.326013 -0.882837 0
M  V30 32 C 0.157851 1.948609 -1.760556 0
M  V30 33 C 1.391193 1.462592 -1.304176 0
M  V30 34 N 3.995211 0.390574 -0.026831 0
M  V30 35 C 4.886355 -0.090710 0.858640 0
M  V30 36 C 6.214906 -0.451929 0.722829 0
M  V30 37 H 9.577796 -1.280535 3.507139 0
M  V30 38 H 9.045782 -2.732261 3.250660 0
M  V30 39 H 6.740429 -1.389131 3.931371 0
M  V30 40 H 4.391423 -0.740850 4.130605 0
M  V30 41 H 2.243350 0.260632 2.645891 0
M  V30 42 H 0.482855 1.017625 1.916669 0
M  V30 43 H -1.621134 1.884877 0.991229 0
M  V30 44 H -3.756299 3.403078 -2.114577 0
M  V30 45 H -3.222802 3.708394 -0.458579 0
M  V30 46 H -3.826319 1.483151 0.301388 0
M  V30 47 H -5.138244 2.331867 -0.492104 0
M  V30 48 H -5.132227 1.090408 -2.443891 0
M  V30 49 H -3.797717 -0.777292 -2.956484 0
M  V30 50 H -2.570674 0.524780 -2.557679 0
M  V30 51 H -1.661967 -0.844302 -1.092026 0
M  V30 52 H -2.841215 -2.106356 -1.428517 0
M  V30 53 H -1.453949 -0.952499 1.278210 0
M  V30 54 H -2.933111 -1.122784 2.243340 0
M  V30 55 H -0.643374 -2.824516 -0.148315 0
M  V30 56 H -0.536286 -5.220417 -0.417714 0
M  V30 57 H -4.146459 -3.254969 2.256010 0
M  V30 58 H -5.018965 -0.269454 1.257177 0
M  V30 59 H -5.003872 -1.875157 0.502722 0
M  V30 60 H -6.373123 0.084120 -0.684887 0
M  V30 61 H -5.465842 -1.173229 -1.582622 0
M  V30 62 H 0.247011 2.163625 -2.832895 0
M  V30 63 H 2.280683 1.320180 -1.898773 0
M  V30 64 H 6.653932 -0.347867 -0.239231 0
M  V30 END ATOM
M  V30 BEGIN BOND
M  V30 1 1 1 2
M  V30 2 2 2 3
M  V30 3 1 2 4
M  V30 4 2 4 5
M  V30 5 1 5 6
M  V30 6 2 6 7
M  V30 7 1 7 8
M  V30 8 1 8 9
M  V30 9 1 9 10
M  V30 10 2 10 11
M  V30 11 1 11 12
M  V30 12 2 12 13
M  V30 13 1 13 14
M  V30 14 1 14 15
M  V30 15 1 15 16
M  V30 16 1 16 17
M  V30 17 1 17 18
M  V30 18 1 18 19
M  V30 19 1 19 20
M  V30 20 1 20 21
M  V30 21 1 21 22
M  V30 22 2 22 23
M  V30 23 1 23 24
M  V30 24 2 24 25
M  V30 25 1 25 26
M  V30 26 1 25 27
M  V30 27 1 27 28
M  V30 28 2 27 29
M  V30 29 1 20 30
M  V30 30 1 30 31
M  V30 31 1 13 32
M  V30 32 2 32 33
M  V30 33 2 9 34
M  V30 34 1 34 35
M  V30 35 2 35 36
M  V30 36 1 36 4
M  V30 37 1 35 7
M  V30 38 1 33 10
M  V30 39 1 31 17
M  V30 40 1 29 22
M  V30 41 1 1 37
M  V30 42 1 1 38
M  V30 43 1 5 39
M  V30 44 1 6 40
M  V30 45 1 8 41
M  V30 46 1 11 42
M  V30 47 1 12 43
M  V30 48 1 15 44
M  V30 49 1 15 45
M  V30 50 1 16 46
M  V30 51 1 16 47
M  V30 52 1 17 48
M  V30 53 1 18 49
M  V30 54 1 18 50
M  V30 55 1 19 51
M  V30 56 1 19 52
M  V30 57 1 21 53
M  V30 58 1 21 54
M  V30 59 1 23 55
M  V30 60 1 24 56
M  V30 61 1 29 57
M  V30 62 1 30 58
M  V30 63 1 30 59
M  V30 64 1 31 60
M  V30 65 1 31 61
M  V30 66 1 32 62
M  V30 67 1 33 63
M  V30 68 1 36 64
M  V30 END BOND
M  V30 END CTAB
M  END
>  <Dataset>  (407) 
ChEMBL_Kinases

>  <Ligand_Instance>  (407) 
nan

>  <PDB_ID>  (407) 
nan

>  <Standardized_SMILES>  (407) 
NC(=O)c1ccc2[nH]c(-c3ccc(OCCC4CCN(Cc5ccc(Cl)c(Cl)c5)CC4)cc3)nc2c1

>  <Name>  (407) 
nan

>  <Pocket>  (407) 
nan

>  <ATP_Site>  (407) 
nan

>  <Peripheral>  (407) 
nan

>  <Num_H_Atoms_ProtBoundConf>  (407) 
nan

>  <Num_Resolved_Atoms>  (407) 
nan

>  <Num_Not_Resolved_Atoms>  (407) 
nan

$$$$
CHEMBL249546
     RDKit          3D

  0  0  0  0  0  0  0  0  0  0999 V3000
M  V30 BEGIN CTAB
M  V30 COUNTS 47 49 0 0 0
M  V30 BEGIN ATOM
M  V30 1 C 1.401230 -7.289904 -0.654636 0
M  V30 2 N 0.821296 -5.935676 -0.659687 0
M  V30 3 C 0.119025 -5.864553 -1.956697 0
M  V30 4 C 1.871868 -4.938388 -0.753125 0
M  V30 5 C 2.737493 -4.866195 0.461154 0
M  V30 6 C 1.968389 -4.523377 1.732576 0
M  V30 7 O 1.336191 -3.380281 1.733834 0
M  V30 8 C 0.901504 -2.170737 1.704449 0
M  V30 9 C 1.759428 -1.104118 1.516060 0
M  V30 10 C 1.240009 0.198762 1.491069 0
M  V30 11 C -0.126598 0.368977 1.657090 0
M  V30 12 C -0.707237 1.706657 1.639577 0
M  V30 13 N -0.006547 2.865883 1.469971 0
M  V30 14 C -0.860863 3.908504 1.509034 0
M  V30 15 C -0.611118 5.261077 1.385360 0
M  V30 16 C -1.738051 6.049443 1.478164 0
M  V30 17 C -1.562953 7.486965 1.358177 0
M  V30 18 N -0.296768 8.112639 1.148108 0
M  V30 19 O -2.292257 8.511891 1.386525 0
M  V30 20 C -3.028750 5.617648 1.674299 0
M  V30 21 C -3.217561 4.236439 1.791971 0
M  V30 22 C -2.126224 3.395694 1.707343 0
M  V30 23 N -2.017376 2.058564 1.784479 0
M  V30 24 C -1.018093 -0.693697 1.848890 0
M  V30 25 C -0.476053 -1.985344 1.870585 0
M  V30 26 H 0.512481 -7.969823 -0.673937 0
M  V30 27 H 2.003636 -7.403304 -1.563933 0
M  V30 28 H 2.001100 -7.448108 0.259674 0
M  V30 29 H -0.341423 -4.890099 -2.123347 0
M  V30 30 H 0.849770 -6.143830 -2.769091 0
M  V30 31 H -0.680866 -6.632155 -1.940700 0
M  V30 32 H 1.399595 -3.974634 -1.002995 0
M  V30 33 H 2.519618 -5.234681 -1.611887 0
M  V30 34 H 3.453478 -4.026230 0.300401 0
M  V30 35 H 3.296478 -5.790809 0.641757 0
M  V30 36 H 1.247352 -5.386557 1.858142 0
M  V30 37 H 2.699006 -4.718052 2.587038 0
M  V30 38 H 2.828293 -1.209337 1.383602 0
M  V30 39 H 1.836402 1.107393 1.349600 0
M  V30 40 H 0.357665 5.717867 1.229775 0
M  V30 41 H 0.337153 8.390343 0.349714 0
M  V30 42 H 0.330211 8.465665 1.910134 0
M  V30 43 H -3.873421 6.293193 1.738649 0
M  V30 44 H -4.215260 3.855734 1.947929 0
M  V30 45 H -2.808108 1.398653 1.930583 0
M  V30 46 H -2.081628 -0.531498 1.976993 0
M  V30 47 H -1.151433 -2.840872 2.018927 0
M  V30 END ATOM
M  V30 BEGIN BOND
M  V30 1 1 1 2
M  V30 2 1 2 3
M  V30 3 1 2 4
M  V30 4 1 4 5
M  V30 5 1 5 6
M  V30 6 1 6 7
M  V30 7 1 7 8
M  V30 8 2 8 9
M  V30 9 1 9 10
M  V30 10 2 10 11
M  V30 11 1 11 12
M  V30 12 2 12 13
M  V30 13 1 13 14
M  V30 14 2 14 15
M  V30 15 1 15 16
M  V30 16 1 16 17
M  V30 17 1 17 18
M  V30 18 2 17 19
M  V30 19 2 16 20
M  V30 20 1 20 21
M  V30 21 2 21 22
M  V30 22 1 22 23
M  V30 23 1 11 24
M  V30 24 2 24 25
M  V30 25 1 25 8
M  V30 26 1 23 12
M  V30 27 1 22 14
M  V30 28 1 1 26
M  V30 29 1 1 27
M  V30 30 1 1 28
M  V30 31 1 3 29
M  V30 32 1 3 30
M  V30 33 1 3 31
M  V30 34 1 4 32
M  V30 35 1 4 33
M  V30 36 1 5 34
M  V30 37 1 5 35
M  V30 38 1 6 36
M  V30 39 1 6 37
M  V30 40 1 9 38
M  V30 41 1 10 39
M  V30 42 1 15 40
M  V30 43 1 18 41
M  V30 44 1 18 42
M  V30 45 1 20 43
M  V30 46 1 21 44
M  V30 47 1 23 45
M  V30 48 1 24 46
M  V30 49 1 25 47
M  V30 END BOND
M  V30 END CTAB
M  END
>  <Dataset>  (408) 
ChEMBL_Kinases

>  <Ligand_Instance>  (408) 
nan

>  <PDB_ID>  (408) 
nan

>  <Standardized_SMILES>  (408) 
CN(C)CCCOc1ccc(-c2nc3cc(C(N)=O)ccc3[nH]2)cc1

>  <Name>  (408) 
nan

>  <Pocket>  (408) 
nan

>  <ATP_Site>  (408) 
nan

>  <Peripheral>  (408) 
nan

>  <Num_H_Atoms_ProtBoundConf>  (408) 
nan

>  <Num_Resolved_Atoms>  (408) 
nan

>  <Num_Not_Resolved_Atoms>  (408) 
nan

$$$$
CHEMBL249566
     RDKit          3D

  0  0  0  0  0  0  0  0  0  0999 V3000
M  V30 BEGIN CTAB
M  V30 COUNTS 56 59 0 0 0
M  V30 BEGIN ATOM
M  V30 1 C 1.956696 -4.916550 0.732399 0
M  V30 2 C 2.877641 -3.988996 1.404466 0
M  V30 3 O 2.637587 -3.882267 2.651531 0
M  V30 4 N 3.980349 -3.152725 1.092900 0
M  V30 5 C 4.386836 -2.527018 2.311538 0
M  V30 6 C 5.631703 -1.725574 2.029190 0
M  V30 7 C 5.376544 -0.905621 0.783962 0
M  V30 8 C 4.029798 -0.193068 0.865791 0
M  V30 9 C 3.733858 0.634155 -0.341104 0
M  V30 10 O 2.534168 1.304702 -0.322683 0
M  V30 11 C 1.248477 0.908210 -0.260778 0
M  V30 12 C 0.574944 -0.289951 -0.200157 0
M  V30 13 C -0.793222 -0.418741 -0.140696 0
M  V30 14 C -1.561370 0.726334 -0.141301 0
M  V30 15 C -3.010092 0.581152 -0.079935 0
M  V30 16 N -3.943979 1.557374 -0.066700 0
M  V30 17 C -5.175747 0.991134 -0.003680 0
M  V30 18 C -6.419573 1.604163 0.030763 0
M  V30 19 C -7.531598 0.776824 0.095227 0
M  V30 20 C -8.909305 1.252704 0.138143 0
M  V30 21 N -9.245362 2.639718 0.118067 0
M  V30 22 O -9.908263 0.491417 0.195932 0
M  V30 23 C -7.335586 -0.589694 0.120995 0
M  V30 24 C -6.096156 -1.196323 0.086575 0
M  V30 25 C -4.986249 -0.368768 0.022220 0
M  V30 26 N -3.661746 -0.593594 -0.025011 0
M  V30 27 C -0.961322 1.964586 -0.200295 0
M  V30 28 C 0.436622 2.053831 -0.259732 0
M  V30 29 C 5.440795 -1.857314 -0.390919 0
M  V30 30 C 4.520142 -3.016567 -0.225989 0
M  V30 31 H 2.042030 -4.833276 -0.361079 0
M  V30 32 H 2.038803 -5.971441 1.109480 0
M  V30 33 H 0.890835 -4.633171 0.967545 0
M  V30 34 H 4.670501 -3.312284 3.062776 0
M  V30 35 H 3.567911 -1.903647 2.772589 0
M  V30 36 H 6.422744 -2.489640 1.778799 0
M  V30 37 H 5.963695 -1.117663 2.892393 0
M  V30 38 H 6.185795 -0.151627 0.677508 0
M  V30 39 H 4.078122 0.525361 1.732252 0
M  V30 40 H 3.222911 -0.915264 1.026039 0
M  V30 41 H 4.549598 1.410236 -0.465208 0
M  V30 42 H 3.782430 0.035425 -1.287668 0
M  V30 43 H 1.254721 -1.124796 -0.212533 0
M  V30 44 H -1.164988 -1.420292 -0.097672 0
M  V30 45 H -6.600064 2.656241 0.012171 0
M  V30 46 H -9.063166 2.818148 1.144026 0
M  V30 47 H -9.279685 3.418840 0.812655 0
M  V30 48 H -8.183572 -1.265509 0.171036 0
M  V30 49 H -5.986364 -2.275932 0.108330 0
M  V30 50 H -3.231126 -1.524386 -0.019443 0
M  V30 51 H -1.645992 2.799313 -0.195813 0
M  V30 52 H 0.723992 3.112132 -0.301185 0
M  V30 53 H 6.507790 -2.238227 -0.394920 0
M  V30 54 H 5.254321 -1.354647 -1.368649 0
M  V30 55 H 3.723141 -2.961618 -1.010899 0
M  V30 56 H 5.072531 -3.951671 -0.450401 0
M  V30 END ATOM
M  V30 BEGIN BOND
M  V30 1 1 1 2
M  V30 2 2 2 3
M  V30 3 1 2 4
M  V30 4 1 4 5
M  V30 5 1 5 6
M  V30 6 1 6 7
M  V30 7 1 7 8
M  V30 8 1 8 9
M  V30 9 1 9 10
M  V30 10 1 10 11
M  V30 11 2 11 12
M  V30 12 1 12 13
M  V30 13 2 13 14
M  V30 14 1 14 15
M  V30 15 2 15 16
M  V30 16 1 16 17
M  V30 17 2 17 18
M  V30 18 1 18 19
M  V30 19 1 19 20
M  V30 20 1 20 21
M  V30 21 2 20 22
M  V30 22 2 19 23
M  V30 23 1 23 24
M  V30 24 2 24 25
M  V30 25 1 25 26
M  V30 26 1 14 27
M  V30 27 2 27 28
M  V30 28 1 7 29
M  V30 29 1 29 30
M  V30 30 1 30 4
M  V30 31 1 28 11
M  V30 32 1 26 15
M  V30 33 1 25 17
M  V30 34 1 1 31
M  V30 35 1 1 32
M  V30 36 1 1 33
M  V30 37 1 5 34
M  V30 38 1 5 35
M  V30 39 1 6 36
M  V30 40 1 6 37
M  V30 41 1 7 38
M  V30 42 1 8 39
M  V30 43 1 8 40
M  V30 44 1 9 41
M  V30 45 1 9 42
M  V30 46 1 12 43
M  V30 47 1 13 44
M  V30 48 1 18 45
M  V30 49 1 21 46
M  V30 50 1 21 47
M  V30 51 1 23 48
M  V30 52 1 24 49
M  V30 53 1 26 50
M  V30 54 1 27 51
M  V30 55 1 28 52
M  V30 56 1 29 53
M  V30 57 1 29 54
M  V30 58 1 30 55
M  V30 59 1 30 56
M  V30 END BOND
M  V30 END CTAB
M  END
>  <Dataset>  (409) 
ChEMBL_Kinases

>  <Ligand_Instance>  (409) 
nan

>  <PDB_ID>  (409) 
nan

>  <Standardized_SMILES>  (409) 
CC(=O)N1CCC(CCOc2ccc(-c3nc4cc(C(N)=O)ccc4[nH]3)cc2)CC1

>  <Name>  (409) 
nan

>  <Pocket>  (409) 
nan

>  <ATP_Site>  (409) 
nan

>  <Peripheral>  (409) 
nan

>  <Num_H_Atoms_ProtBoundConf>  (409) 
nan

>  <Num_Resolved_Atoms>  (409) 
nan

>  <Num_Not_Resolved_Atoms>  (409) 
nan

$$$$
CHEMBL249569
     RDKit          3D

  0  0  0  0  0  0  0  0  0  0999 V3000
M  V30 BEGIN CTAB
M  V30 COUNTS 47 50 0 0 0
M  V30 BEGIN ATOM
M  V30 1 N -3.728406 -8.451438 -2.514012 0
M  V30 2 C -3.616697 -7.167184 -1.980981 0
M  V30 3 O -4.833063 -6.937734 -1.893876 0
M  V30 4 C -2.505116 -6.300319 -1.614338 0
M  V30 5 C -1.170302 -6.646968 -1.749760 0
M  V30 6 C -0.187838 -5.753650 -1.372824 0
M  V30 7 C -0.544726 -4.522157 -0.863993 0
M  V30 8 N 0.258508 -3.521964 -0.443751 0
M  V30 9 C -0.585270 -2.549001 -0.045253 0
M  V30 10 C -0.164429 -1.256816 0.493991 0
M  V30 11 C 1.184958 -0.988816 0.613270 0
M  V30 12 C 1.622547 0.241029 1.127056 0
M  V30 13 C 0.663540 1.189577 1.515788 0
M  V30 14 O 1.230216 2.337218 1.996241 0
M  V30 15 C 0.627915 3.485110 2.470005 0
M  V30 16 C 0.954210 4.724331 1.662597 0
M  V30 17 C 1.966483 5.613659 2.351603 0
M  V30 18 C 3.048573 4.743072 2.945455 0
M  V30 19 O 3.442869 3.847972 1.931033 0
M  V30 20 C 2.463891 3.969592 4.094906 0
M  V30 21 C 0.953023 3.821065 3.903122 0
M  V30 22 C -0.677936 0.885244 1.381450 0
M  V30 23 C -1.112004 -0.324487 0.876046 0
M  V30 24 N -1.867030 -2.950448 -0.220022 0
M  V30 25 C -1.888350 -4.195138 -0.736759 0
M  V30 26 C -2.883071 -5.074931 -1.108175 0
M  V30 27 H -3.383359 -9.275858 -3.026503 0
M  V30 28 H -2.784237 -8.608568 -2.971528 0
M  V30 29 H -1.012901 -7.654747 -2.166927 0
M  V30 30 H 0.833894 -6.077209 -1.500938 0
M  V30 31 H 1.305005 -3.539176 -0.444422 0
M  V30 32 H 1.951609 -1.717924 0.314826 0
M  V30 33 H 2.701484 0.392133 1.195984 0
M  V30 34 H -0.474064 3.361939 2.411841 0
M  V30 35 H 0.053862 5.360114 1.509599 0
M  V30 36 H 1.372952 4.466226 0.669557 0
M  V30 37 H 1.529978 6.310198 3.080100 0
M  V30 38 H 2.407821 6.272196 1.549420 0
M  V30 39 H 3.944520 5.304590 3.220128 0
M  V30 40 H 4.354760 3.559531 2.101726 0
M  V30 41 H 2.896059 2.949835 4.065324 0
M  V30 42 H 2.660000 4.412811 5.069891 0
M  V30 43 H 0.514892 3.132085 4.625886 0
M  V30 44 H 0.536509 4.830768 4.103213 0
M  V30 45 H -1.355072 1.662965 1.700893 0
M  V30 46 H -2.182540 -0.501857 0.796100 0
M  V30 47 H -3.933580 -4.801141 -1.001391 0
M  V30 END ATOM
M  V30 BEGIN BOND
M  V30 1 1 1 2
M  V30 2 2 2 3
M  V30 3 1 2 4
M  V30 4 2 4 5
M  V30 5 1 5 6
M  V30 6 2 6 7
M  V30 7 1 7 8
M  V30 8 1 8 9
M  V30 9 1 9 10
M  V30 10 2 10 11
M  V30 11 1 11 12
M  V30 12 2 12 13
M  V30 13 1 13 14
M  V30 14 1 14 15
M  V30 15 1 15 16
M  V30 16 1 16 17
M  V30 17 1 17 18
M  V30 18 1 18 19
M  V30 19 1 18 20
M  V30 20 1 20 21
M  V30 21 1 13 22
M  V30 22 2 22 23
M  V30 23 2 9 24
M  V30 24 1 24 25
M  V30 25 2 25 26
M  V30 26 1 26 4
M  V30 27 1 25 7
M  V30 28 1 23 10
M  V30 29 1 21 15
M  V30 30 1 1 27
M  V30 31 1 1 28
M  V30 32 1 5 29
M  V30 33 1 6 30
M  V30 34 1 8 31
M  V30 35 1 11 32
M  V30 36 1 12 33
M  V30 37 1 15 34
M  V30 38 1 16 35
M  V30 39 1 16 36
M  V30 40 1 17 37
M  V30 41 1 17 38
M  V30 42 1 18 39
M  V30 43 1 19 40
M  V30 44 1 20 41
M  V30 45 1 20 42
M  V30 46 1 21 43
M  V30 47 1 21 44
M  V30 48 1 22 45
M  V30 49 1 23 46
M  V30 50 1 26 47
M  V30 END BOND
M  V30 END CTAB
M  END
>  <Dataset>  (410) 
ChEMBL_Kinases

>  <Ligand_Instance>  (410) 
nan

>  <PDB_ID>  (410) 
nan

>  <Standardized_SMILES>  (410) 
NC(=O)c1ccc2[nH]c(-c3ccc(OC4CCC(O)CC4)cc3)nc2c1

>  <Name>  (410) 
nan

>  <Pocket>  (410) 
nan

>  <ATP_Site>  (410) 
nan

>  <Peripheral>  (410) 
nan

>  <Num_H_Atoms_ProtBoundConf>  (410) 
nan

>  <Num_Resolved_Atoms>  (410) 
nan

>  <Num_Not_Resolved_Atoms>  (410) 
nan

$$$$
CHEMBL249734
     RDKit          3D

  0  0  0  0  0  0  0  0  0  0999 V3000
M  V30 BEGIN CTAB
M  V30 COUNTS 40 43 0 0 0
M  V30 BEGIN ATOM
M  V30 1 C 0.556409 -5.862324 3.697770 0
M  V30 2 C 1.102025 -4.875136 3.287479 0
M  V30 3 C 1.744735 -3.678174 2.780558 0
M  V30 4 C 3.008181 -3.194305 3.018145 0
M  V30 5 N 3.143233 -2.063218 2.326009 0
M  V30 6 N 2.033926 -1.785314 1.650486 0
M  V30 7 C 1.731442 -0.744487 0.823737 0
M  V30 8 N 2.677636 0.274334 0.569208 0
M  V30 9 C 3.086383 1.590150 0.981710 0
M  V30 10 C 2.055855 2.628562 0.756339 0
M  V30 11 C 2.109389 3.266209 -0.486348 0
M  V30 12 C 1.172601 4.239775 -0.745635 0
M  V30 13 C 0.186450 4.640824 0.113429 0
M  V30 14 N 0.167184 3.994438 1.316352 0
M  V30 15 C 1.060218 3.042855 1.606159 0
M  V30 16 C 0.481421 -0.722082 0.255195 0
M  V30 17 C -0.438677 -1.716661 0.510056 0
M  V30 18 C -1.783833 -1.755609 -0.051273 0
M  V30 19 C -2.588327 -2.818174 0.302819 0
M  V30 20 C -3.887658 -2.873081 -0.216452 0
M  V30 21 C -4.312168 -1.862880 -1.060949 0
M  V30 22 C -3.511849 -0.780928 -1.429722 0
M  V30 23 C -2.241574 -0.767873 -0.895728 0
M  V30 24 N -0.051086 -2.705921 1.339570 0
M  V30 25 C 1.161755 -2.770209 1.919413 0
M  V30 26 H 0.068705 -6.750122 4.047413 0
M  V30 27 H 3.693648 -3.704310 3.660404 0
M  V30 28 H 3.200222 -0.220918 -0.198848 0
M  V30 29 H 4.016816 1.891621 0.478818 0
M  V30 30 H 3.339393 1.620951 2.081206 0
M  V30 31 H 2.874973 2.994924 -1.226124 0
M  V30 32 H 1.227574 4.732968 -1.728988 0
M  V30 33 H -0.497947 5.417485 -0.194862 0
M  V30 34 H 1.045564 2.529553 2.560337 0
M  V30 35 H 0.222402 0.085176 -0.397425 0
M  V30 36 H -2.291876 -3.626690 0.960319 0
M  V30 37 H -4.532190 -3.689868 0.044111 0
M  V30 38 H -5.327852 -1.911415 -1.462025 0
M  V30 39 H -3.862539 0.005309 -2.095851 0
M  V30 40 H -1.637085 0.076120 -1.190986 0
M  V30 END ATOM
M  V30 BEGIN BOND
M  V30 1 3 1 2
M  V30 2 1 2 3
M  V30 3 1 3 4
M  V30 4 2 4 5
M  V30 5 1 5 6
M  V30 6 1 6 7
M  V30 7 1 7 8
M  V30 8 1 8 9
M  V30 9 1 9 10
M  V30 10 2 10 11
M  V30 11 1 11 12
M  V30 12 2 12 13
M  V30 13 1 13 14
M  V30 14 2 14 15
M  V30 15 2 7 16
M  V30 16 1 16 17
M  V30 17 1 17 18
M  V30 18 2 18 19
M  V30 19 1 19 20
M  V30 20 2 20 21
M  V30 21 1 21 22
M  V30 22 2 22 23
M  V30 23 2 17 24
M  V30 24 1 24 25
M  V30 25 2 25 3
M  V30 26 1 25 6
M  V30 27 1 15 10
M  V30 28 1 23 18
M  V30 29 1 1 26
M  V30 30 1 4 27
M  V30 31 1 8 28
M  V30 32 1 9 29
M  V30 33 1 9 30
M  V30 34 1 11 31
M  V30 35 1 12 32
M  V30 36 1 13 33
M  V30 37 1 15 34
M  V30 38 1 16 35
M  V30 39 1 19 36
M  V30 40 1 20 37
M  V30 41 1 21 38
M  V30 42 1 22 39
M  V30 43 1 23 40
M  V30 END BOND
M  V30 END CTAB
M  END
>  <Dataset>  (411) 
ChEMBL_Kinases

>  <Ligand_Instance>  (411) 
nan

>  <PDB_ID>  (411) 
nan

>  <Standardized_SMILES>  (411) 
C#Cc1cnn2c(NCc3cccnc3)cc(-c3ccccc3)nc12

>  <Name>  (411) 
nan

>  <Pocket>  (411) 
nan

>  <ATP_Site>  (411) 
nan

>  <Peripheral>  (411) 
nan

>  <Num_H_Atoms_ProtBoundConf>  (411) 
nan

>  <Num_Resolved_Atoms>  (411) 
nan

>  <Num_Not_Resolved_Atoms>  (411) 
nan

$$$$
CHEMBL249595
     RDKit          3D

  0  0  0  0  0  0  0  0  0  0999 V3000
M  V30 BEGIN CTAB
M  V30 COUNTS 35 37 0 0 0
M  V30 BEGIN ATOM
M  V30 1 N 0.295580 -3.070373 4.553099 0
M  V30 2 C -0.067405 -3.707064 3.313534 0
M  V30 3 C -0.285072 -2.737874 2.187574 0
M  V30 4 C 0.912900 -1.912922 1.858375 0
M  V30 5 C 0.675984 -0.946704 0.749023 0
M  V30 6 C 1.119814 -1.237822 -0.525474 0
M  V30 7 C 0.870492 -0.330285 -1.543297 0
M  V30 8 C 1.336584 -0.675188 -2.792536 0
M  V30 9 C 1.085073 0.228045 -3.793994 0
M  V30 10 N 0.431621 1.392646 -3.633021 0
M  V30 11 C -0.010247 1.698996 -2.401205 0
M  V30 12 O -0.597447 2.796225 -2.381379 0
M  V30 13 C 0.205288 0.843426 -1.352055 0
M  V30 14 C -0.240172 1.149141 -0.101204 0
M  V30 15 C -0.907290 2.317229 0.148948 0
M  V30 16 C -1.358365 2.646286 1.410508 0
M  V30 17 Br -2.302594 4.254509 1.868084 0
M  V30 18 C -1.097028 1.719335 2.426708 0
M  V30 19 C -0.426959 0.525314 2.223063 0
M  V30 20 C -0.001086 0.261019 0.917616 0
M  V30 21 H 1.269655 -2.708576 4.568256 0
M  V30 22 H -0.405611 -2.372326 4.879242 0
M  V30 23 H -1.045740 -4.212057 3.508111 0
M  V30 24 H 0.696236 -4.449009 3.063401 0
M  V30 25 H -0.487482 -3.392286 1.282009 0
M  V30 26 H -1.172660 -2.125992 2.304693 0
M  V30 27 H 1.746152 -2.585431 1.531239 0
M  V30 28 H 1.284074 -1.426578 2.777066 0
M  V30 29 H 1.641405 -2.144735 -0.716522 0
M  V30 30 H 1.870654 -1.596951 -3.008975 0
M  V30 31 H 1.451902 -0.041133 -4.784463 0
M  V30 32 H 0.311078 1.991665 -4.499423 0
M  V30 33 H -1.163120 3.092896 -0.535714 0
M  V30 34 H -1.450162 1.970314 3.435859 0
M  V30 35 H -0.291890 -0.085196 3.092147 0
M  V30 END ATOM
M  V30 BEGIN BOND
M  V30 1 1 1 2
M  V30 2 1 2 3
M  V30 3 1 3 4
M  V30 4 1 4 5
M  V30 5 2 5 6
M  V30 6 1 6 7
M  V30 7 1 7 8
M  V30 8 2 8 9
M  V30 9 1 9 10
M  V30 10 1 10 11
M  V30 11 2 11 12
M  V30 12 1 11 13
M  V30 13 1 13 14
M  V30 14 2 14 15
M  V30 15 1 15 16
M  V30 16 1 16 17
M  V30 17 2 16 18
M  V30 18 1 18 19
M  V30 19 2 19 20
M  V30 20 1 20 5
M  V30 21 2 13 7
M  V30 22 1 20 14
M  V30 23 1 1 21
M  V30 24 1 1 22
M  V30 25 1 2 23
M  V30 26 1 2 24
M  V30 27 1 3 25
M  V30 28 1 3 26
M  V30 29 1 4 27
M  V30 30 1 4 28
M  V30 31 1 6 29
M  V30 32 1 8 30
M  V30 33 1 9 31
M  V30 34 1 10 32
M  V30 35 1 15 33
M  V30 36 1 18 34
M  V30 37 1 19 35
M  V30 END BOND
M  V30 END CTAB
M  END
>  <Dataset>  (412) 
ChEMBL_Kinases

>  <Ligand_Instance>  (412) 
nan

>  <PDB_ID>  (412) 
nan

>  <Standardized_SMILES>  (412) 
NCCCc1cc2cc[nH]c(=O)c2c2cc(Br)ccc12

>  <Name>  (412) 
nan

>  <Pocket>  (412) 
nan

>  <ATP_Site>  (412) 
nan

>  <Peripheral>  (412) 
nan

>  <Num_H_Atoms_ProtBoundConf>  (412) 
nan

>  <Num_Resolved_Atoms>  (412) 
nan

>  <Num_Not_Resolved_Atoms>  (412) 
nan

$$$$
CHEMBL249597
     RDKit          3D

  0  0  0  0  0  0  0  0  0  0999 V3000
M  V30 BEGIN CTAB
M  V30 COUNTS 32 34 0 0 0
M  V30 BEGIN ATOM
M  V30 1 N -3.173706 -2.525140 3.227567 0
M  V30 2 C -2.004311 -1.815345 2.717775 0
M  V30 3 C -1.654625 -2.307253 1.345158 0
M  V30 4 C -0.475669 -1.559856 0.847314 0
M  V30 5 C 0.799934 -2.132107 0.905329 0
M  V30 6 C 1.855794 -1.397243 0.452388 0
M  V30 7 C 3.104792 -2.019907 0.536275 0
M  V30 8 C 4.182311 -1.270681 0.074830 0
M  V30 9 N 4.070973 -0.015075 -0.430331 0
M  V30 10 C 2.853567 0.551195 -0.495294 0
M  V30 11 O 2.926525 1.686247 -0.976429 0
M  V30 12 C 1.744723 -0.125607 -0.059581 0
M  V30 13 C 0.520619 0.440509 -0.122597 0
M  V30 14 C 0.353188 1.700394 -0.630699 0
M  V30 15 C -0.887447 2.295730 -0.714206 0
M  V30 16 Cl -1.200883 3.914364 -1.354436 0
M  V30 17 C -1.974325 1.551751 -0.254306 0
M  V30 18 C -1.836858 0.263032 0.270506 0
M  V30 19 C -0.546896 -0.267181 0.320689 0
M  V30 20 H -3.577804 -2.042086 4.056295 0
M  V30 21 H -3.898510 -2.580970 2.465042 0
M  V30 22 H -1.145948 -1.985872 3.440496 0
M  V30 23 H -2.189503 -0.730681 2.790413 0
M  V30 24 H -1.351301 -3.369552 1.462498 0
M  V30 25 H -2.501507 -2.305766 0.650926 0
M  V30 26 H 0.940167 -3.148216 1.306197 0
M  V30 27 H 3.261217 -3.013870 0.926834 0
M  V30 28 H 5.146917 -1.755989 0.141406 0
M  V30 29 H 4.985452 0.408862 -0.733413 0
M  V30 30 H 1.093394 2.368072 -1.011034 0
M  V30 31 H -2.969247 2.022580 -0.319779 0
M  V30 32 H -2.753147 -0.178640 0.571543 0
M  V30 END ATOM
M  V30 BEGIN BOND
M  V30 1 1 1 2
M  V30 2 1 2 3
M  V30 3 1 3 4
M  V30 4 2 4 5
M  V30 5 1 5 6
M  V30 6 1 6 7
M  V30 7 2 7 8
M  V30 8 1 8 9
M  V30 9 1 9 10
M  V30 10 2 10 11
M  V30 11 1 10 12
M  V30 12 1 12 13
M  V30 13 2 13 14
M  V30 14 1 14 15
M  V30 15 1 15 16
M  V30 16 2 15 17
M  V30 17 1 17 18
M  V30 18 2 18 19
M  V30 19 1 19 4
M  V30 20 2 12 6
M  V30 21 1 19 13
M  V30 22 1 1 20
M  V30 23 1 1 21
M  V30 24 1 2 22
M  V30 25 1 2 23
M  V30 26 1 3 24
M  V30 27 1 3 25
M  V30 28 1 5 26
M  V30 29 1 7 27
M  V30 30 1 8 28
M  V30 31 1 9 29
M  V30 32 1 14 30
M  V30 33 1 17 31
M  V30 34 1 18 32
M  V30 END BOND
M  V30 END CTAB
M  END
>  <Dataset>  (413) 
ChEMBL_Kinases

>  <Ligand_Instance>  (413) 
nan

>  <PDB_ID>  (413) 
nan

>  <Standardized_SMILES>  (413) 
NCCc1cc2cc[nH]c(=O)c2c2cc(Cl)ccc12

>  <Name>  (413) 
nan

>  <Pocket>  (413) 
nan

>  <ATP_Site>  (413) 
nan

>  <Peripheral>  (413) 
nan

>  <Num_H_Atoms_ProtBoundConf>  (413) 
nan

>  <Num_Resolved_Atoms>  (413) 
nan

>  <Num_Not_Resolved_Atoms>  (413) 
nan

$$$$
CHEMBL249632
     RDKit          3D

  0  0  0  0  0  0  0  0  0  0999 V3000
M  V30 BEGIN CTAB
M  V30 COUNTS 52 56 0 0 0
M  V30 BEGIN ATOM
M  V30 1 N 1.180559 -0.638025 5.703249 0
M  V30 2 C 2.164834 -0.308896 4.695817 0
M  V30 3 C 1.682176 -0.594347 3.283543 0
M  V30 4 C 0.450116 0.176706 2.916920 0
M  V30 5 C 0.059931 -0.176442 1.524587 0
M  V30 6 C 0.380193 0.689882 0.494530 0
M  V30 7 C 0.041358 0.362765 -0.800728 0
M  V30 8 C 0.387086 1.263564 -1.788227 0
M  V30 9 C 1.074538 2.502263 -1.482923 0
M  V30 10 C 2.460308 2.374038 -1.501921 0
M  V30 11 C 3.248557 3.480548 -1.225152 0
M  V30 12 C 2.630113 4.689582 -0.935659 0
M  V30 13 C 1.254817 4.803037 -0.920490 0
M  V30 14 C 0.460188 3.710843 -1.193875 0
M  V30 15 F -0.902333 3.677742 -1.215783 0
M  V30 16 C 0.040125 0.916204 -3.076874 0
M  V30 17 N -0.608358 -0.236805 -3.420969 0
M  V30 18 C -0.924330 -1.082515 -2.426579 0
M  V30 19 O -1.501386 -2.076376 -2.868184 0
M  V30 20 C -0.611240 -0.803783 -1.123220 0
M  V30 21 C -0.936486 -1.672334 -0.118268 0
M  V30 22 C -1.590208 -2.845683 -0.386791 0
M  V30 23 C -1.929226 -3.730248 0.616398 0
M  V30 24 C -2.622717 -5.001712 0.423109 0
M  V30 25 C -3.564021 -5.385257 -0.503702 0
M  V30 26 N -3.891173 -6.663359 -0.259636 0
M  V30 27 N -3.212793 -7.132906 0.777198 0
M  V30 28 C -2.425174 -6.118440 1.209652 0
M  V30 29 C -1.562646 -3.349149 1.912362 0
M  V30 30 C -0.906527 -2.181343 2.221974 0
M  V30 31 C -0.594081 -1.335271 1.165631 0
M  V30 32 H 0.823180 0.169057 6.226907 0
M  V30 33 H 0.479090 -1.302003 5.346166 0
M  V30 34 H 3.033376 -1.004590 4.861262 0
M  V30 35 H 2.532771 0.713338 4.825914 0
M  V30 36 H 2.502365 -0.169446 2.626217 0
M  V30 37 H 1.637441 -1.666665 3.101791 0
M  V30 38 H 0.719538 1.251056 2.943292 0
M  V30 39 H -0.384511 0.022116 3.629988 0
M  V30 40 H 0.895972 1.615968 0.734914 0
M  V30 41 H 2.990763 1.461438 -1.718929 0
M  V30 42 H 4.322687 3.443147 -1.225293 0
M  V30 43 H 3.218768 5.559643 -0.717670 0
M  V30 44 H 0.712450 5.723425 -0.700102 0
M  V30 45 H 0.318670 1.632486 -3.840196 0
M  V30 46 H -0.793276 -0.339258 -4.442973 0
M  V30 47 H -1.908138 -3.219123 -1.334223 0
M  V30 48 H -3.935505 -4.707725 -1.280090 0
M  V30 49 H -3.250266 -8.086768 1.204201 0
M  V30 50 H -1.754125 -6.227388 2.061118 0
M  V30 51 H -1.831321 -4.052196 2.718287 0
M  V30 52 H -0.697790 -2.027339 3.267119 0
M  V30 END ATOM
M  V30 BEGIN BOND
M  V30 1 1 1 2
M  V30 2 1 2 3
M  V30 3 1 3 4
M  V30 4 1 4 5
M  V30 5 2 5 6
M  V30 6 1 6 7
M  V30 7 1 7 8
M  V30 8 1 8 9
M  V30 9 2 9 10
M  V30 10 1 10 11
M  V30 11 2 11 12
M  V30 12 1 12 13
M  V30 13 2 13 14
M  V30 14 1 14 15
M  V30 15 2 8 16
M  V30 16 1 16 17
M  V30 17 1 17 18
M  V30 18 2 18 19
M  V30 19 1 18 20
M  V30 20 1 20 21
M  V30 21 2 21 22
M  V30 22 1 22 23
M  V30 23 1 23 24
M  V30 24 1 24 25
M  V30 25 2 25 26
M  V30 26 1 26 27
M  V30 27 1 27 28
M  V30 28 2 23 29
M  V30 29 1 29 30
M  V30 30 2 30 31
M  V30 31 1 31 5
M  V30 32 2 20 7
M  V30 33 1 31 21
M  V30 34 1 14 9
M  V30 35 2 28 24
M  V30 36 1 1 32
M  V30 37 1 1 33
M  V30 38 1 2 34
M  V30 39 1 2 35
M  V30 40 1 3 36
M  V30 41 1 3 37
M  V30 42 1 4 38
M  V30 43 1 4 39
M  V30 44 1 6 40
M  V30 45 1 10 41
M  V30 46 1 11 42
M  V30 47 1 12 43
M  V30 48 1 13 44
M  V30 49 1 16 45
M  V30 50 1 17 46
M  V30 51 1 22 47
M  V30 52 1 25 48
M  V30 53 1 27 49
M  V30 54 1 28 50
M  V30 55 1 29 51
M  V30 56 1 30 52
M  V30 END BOND
M  V30 END CTAB
M  END
>  <Dataset>  (414) 
ChEMBL_Kinases

>  <Ligand_Instance>  (414) 
nan

>  <PDB_ID>  (414) 
nan

>  <Standardized_SMILES>  (414) 
NCCCc1cc2c(-c3ccccc3F)c[nH]c(=O)c2c2cc(-c3cn[nH]c3)ccc12

>  <Name>  (414) 
nan

>  <Pocket>  (414) 
nan

>  <ATP_Site>  (414) 
nan

>  <Peripheral>  (414) 
nan

>  <Num_H_Atoms_ProtBoundConf>  (414) 
nan

>  <Num_Resolved_Atoms>  (414) 
nan

>  <Num_Not_Resolved_Atoms>  (414) 
nan

$$$$
CHEMBL249646
     RDKit          3D

  0  0  0  0  0  0  0  0  0  0999 V3000
M  V30 BEGIN CTAB
M  V30 COUNTS 39 41 0 0 0
M  V30 BEGIN ATOM
M  V30 1 C 1.109505 -5.995301 0.679591 0
M  V30 2 C 2.127034 -4.950819 0.275492 0
M  V30 3 C 2.912138 -4.548773 1.490773 0
M  V30 4 C 1.407205 -3.804720 -0.331467 0
M  V30 5 O 0.148702 -3.909484 -0.393848 0
M  V30 6 N 2.051878 -2.645411 -0.823244 0
M  V30 7 C 1.224593 -1.629419 -1.378135 0
M  V30 8 N 0.833069 -1.501221 -2.666086 0
M  V30 9 C 0.046848 -0.484940 -3.045986 0
M  V30 10 C -0.408548 0.486594 -2.152744 0
M  V30 11 C 0.009056 0.325985 -0.848407 0
M  V30 12 C -0.410579 1.287147 0.166287 0
M  V30 13 C -1.213862 2.393972 -0.022892 0
M  V30 14 C -1.334108 2.991360 1.204025 0
M  V30 15 C -0.630597 2.294150 2.160702 0
M  V30 16 N -0.086937 1.264066 1.471913 0
M  V30 17 C -0.515031 2.624787 3.605177 0
M  V30 18 C -1.759418 3.381773 4.018659 0
M  V30 19 N -1.917520 4.486892 3.091297 0
M  V30 20 C -2.039973 4.190892 1.704042 0
M  V30 21 O -2.721653 4.908201 0.896229 0
M  V30 22 N 0.796722 -0.702497 -0.497861 0
M  V30 23 H 0.169069 -5.851530 0.083757 0
M  V30 24 H 0.786015 -5.845438 1.736631 0
M  V30 25 H 1.485317 -7.023311 0.524076 0
M  V30 26 H 2.834349 -5.422329 -0.451345 0
M  V30 27 H 2.930769 -5.440237 2.175508 0
M  V30 28 H 3.935929 -4.321086 1.180010 0
M  V30 29 H 2.399990 -3.690430 1.972548 0
M  V30 30 H 3.106869 -2.616865 -0.742877 0
M  V30 31 H -0.223711 -0.443163 -4.072126 0
M  V30 32 H -1.035400 1.295902 -2.458430 0
M  V30 33 H -1.663708 2.737079 -0.933455 0
M  V30 34 H 0.523456 0.517222 1.889639 0
M  V30 35 H 0.327726 3.343982 3.731151 0
M  V30 36 H -0.362338 1.713402 4.220048 0
M  V30 37 H -2.605277 2.696186 3.865788 0
M  V30 38 H -1.698823 3.733173 5.069038 0
M  V30 39 H -1.951794 5.513404 3.352636 0
M  V30 END ATOM
M  V30 BEGIN BOND
M  V30 1 1 1 2
M  V30 2 1 2 3
M  V30 3 1 2 4
M  V30 4 2 4 5
M  V30 5 1 4 6
M  V30 6 1 6 7
M  V30 7 2 7 8
M  V30 8 1 8 9
M  V30 9 2 9 10
M  V30 10 1 10 11
M  V30 11 1 11 12
M  V30 12 2 12 13
M  V30 13 1 13 14
M  V30 14 2 14 15
M  V30 15 1 15 16
M  V30 16 1 15 17
M  V30 17 1 17 18
M  V30 18 1 18 19
M  V30 19 1 19 20
M  V30 20 2 20 21
M  V30 21 2 11 22
M  V30 22 1 22 7
M  V30 23 1 16 12
M  V30 24 1 20 14
M  V30 25 1 1 23
M  V30 26 1 1 24
M  V30 27 1 1 25
M  V30 28 1 2 26
M  V30 29 1 3 27
M  V30 30 1 3 28
M  V30 31 1 3 29
M  V30 32 1 6 30
M  V30 33 1 9 31
M  V30 34 1 10 32
M  V30 35 1 13 33
M  V30 36 1 16 34
M  V30 37 1 17 35
M  V30 38 1 17 36
M  V30 39 1 18 37
M  V30 40 1 18 38
M  V30 41 1 19 39
M  V30 END BOND
M  V30 END CTAB
M  END
>  <Dataset>  (415) 
ChEMBL_Kinases

>  <Ligand_Instance>  (415) 
nan

>  <PDB_ID>  (415) 
nan

>  <Standardized_SMILES>  (415) 
CC(C)C(=O)Nc1nccc(-c2cc3c([nH]2)CCNC3=O)n1

>  <Name>  (415) 
nan

>  <Pocket>  (415) 
nan

>  <ATP_Site>  (415) 
nan

>  <Peripheral>  (415) 
nan

>  <Num_H_Atoms_ProtBoundConf>  (415) 
nan

>  <Num_Resolved_Atoms>  (415) 
nan

>  <Num_Not_Resolved_Atoms>  (415) 
nan

$$$$
CHEMBL249681
     RDKit          3D

  0  0  0  0  0  0  0  0  0  0999 V3000
M  V30 BEGIN CTAB
M  V30 COUNTS 53 56 0 0 0
M  V30 BEGIN ATOM
M  V30 1 C 0.754492 -1.857080 6.156171 0
M  V30 2 N 1.342526 -0.718990 5.461670 0
M  V30 3 C 2.672095 -0.376195 5.802245 0
M  V30 4 O 3.215194 -1.111465 6.701023 0
M  V30 5 C 3.696479 0.616403 5.434440 0
M  V30 6 N 3.318437 1.539643 4.410723 0
M  V30 7 C 3.204864 0.963120 3.101286 0
M  V30 8 C 2.774240 2.067841 2.123118 0
M  V30 9 C 2.677756 1.381310 0.786211 0
M  V30 10 C 3.747575 1.284531 -0.080432 0
M  V30 11 C 3.611315 0.638246 -1.309562 0
M  V30 12 C 2.389008 0.073190 -1.693606 0
M  V30 13 C 1.398838 0.225021 -0.764873 0
M  V30 14 C 0.035042 -0.342356 -1.066177 0
M  V30 15 C -1.181095 -0.399402 -0.440746 0
M  V30 16 C -2.151691 -1.041009 -1.133836 0
M  V30 17 N -3.412795 -1.167372 -0.622815 0
M  V30 18 C -4.349170 -1.807477 -1.337287 0
M  V30 19 N -5.673708 -1.923059 -0.767367 0
M  V30 20 C -6.128644 -1.419061 0.514673 0
M  V30 21 C -4.159806 -2.376874 -2.591318 0
M  V30 22 N -4.875063 -3.045504 -3.496457 0
M  V30 23 C -4.061701 -3.324892 -4.548256 0
M  V30 24 C -2.805738 -2.796119 -4.250724 0
M  V30 25 C -1.629668 -2.906740 -5.183635 0
M  V30 26 N -2.906410 -2.222045 -3.040555 0
M  V30 27 C -1.933901 -1.579324 -2.343048 0
M  V30 28 S -0.262265 -1.250046 -2.701101 0
M  V30 29 C 1.435796 0.830535 0.443776 0
M  V30 30 H 0.142404 -1.549195 7.014175 0
M  V30 31 H 0.083710 -2.369476 5.432604 0
M  V30 32 H 1.552097 -2.579844 6.426288 0
M  V30 33 H 1.002074 -0.061887 4.747670 0
M  V30 34 H 4.000493 1.216153 6.340105 0
M  V30 35 H 4.663287 0.109455 5.132439 0
M  V30 36 H 3.956321 2.348805 4.366654 0
M  V30 37 H 4.227360 0.596707 2.762988 0
M  V30 38 H 2.573851 0.072378 3.045952 0
M  V30 39 H 1.785019 2.434215 2.438168 0
M  V30 40 H 3.567349 2.814762 2.075951 0
M  V30 41 H 4.708261 1.722620 0.209425 0
M  V30 42 H 4.454676 0.565397 -1.985764 0
M  V30 43 H 2.240511 -0.434660 -2.633723 0
M  V30 44 H -1.160907 0.086768 0.519794 0
M  V30 45 H -6.429280 -2.413928 -1.290051 0
M  V30 46 H -5.385634 -0.637566 0.824523 0
M  V30 47 H -6.297630 -2.200687 1.265080 0
M  V30 48 H -7.063718 -0.826560 0.304695 0
M  V30 49 H -4.372503 -3.865687 -5.443065 0
M  V30 50 H -1.609028 -2.082140 -5.902177 0
M  V30 51 H -1.706904 -3.903814 -5.682417 0
M  V30 52 H -0.689924 -2.918253 -4.587521 0
M  V30 53 H 0.602182 0.907625 1.122270 0
M  V30 END ATOM
M  V30 BEGIN BOND
M  V30 1 1 1 2
M  V30 2 1 2 3
M  V30 3 2 3 4
M  V30 4 1 3 5
M  V30 5 1 5 6
M  V30 6 1 6 7
M  V30 7 1 7 8
M  V30 8 1 8 9
M  V30 9 2 9 10
M  V30 10 1 10 11
M  V30 11 2 11 12
M  V30 12 1 12 13
M  V30 13 1 13 14
M  V30 14 2 14 15
M  V30 15 1 15 16
M  V30 16 1 16 17
M  V30 17 2 17 18
M  V30 18 1 18 19
M  V30 19 1 19 20
M  V30 20 1 18 21
M  V30 21 2 21 22
M  V30 22 1 22 23
M  V30 23 2 23 24
M  V30 24 1 24 25
M  V30 25 1 24 26
M  V30 26 1 26 27
M  V30 27 1 27 28
M  V30 28 2 13 29
M  V30 29 1 29 9
M  V30 30 1 28 14
M  V30 31 2 27 16
M  V30 32 1 26 21
M  V30 33 1 1 30
M  V30 34 1 1 31
M  V30 35 1 1 32
M  V30 36 1 2 33
M  V30 37 1 5 34
M  V30 38 1 5 35
M  V30 39 1 6 36
M  V30 40 1 7 37
M  V30 41 1 7 38
M  V30 42 1 8 39
M  V30 43 1 8 40
M  V30 44 1 10 41
M  V30 45 1 11 42
M  V30 46 1 12 43
M  V30 47 1 15 44
M  V30 48 1 19 45
M  V30 49 1 20 46
M  V30 50 1 20 47
M  V30 51 1 20 48
M  V30 52 1 23 49
M  V30 53 1 25 50
M  V30 54 1 25 51
M  V30 55 1 25 52
M  V30 56 1 29 53
M  V30 END BOND
M  V30 END CTAB
M  END
>  <Dataset>  (416) 
ChEMBL_Kinases

>  <Ligand_Instance>  (416) 
nan

>  <PDB_ID>  (416) 
nan

>  <Standardized_SMILES>  (416) 
CNC(=O)CNCCc1cccc(-c2cc3nc(NC)c4ncc(C)n4c3s2)c1

>  <Name>  (416) 
nan

>  <Pocket>  (416) 
nan

>  <ATP_Site>  (416) 
nan

>  <Peripheral>  (416) 
nan

>  <Num_H_Atoms_ProtBoundConf>  (416) 
nan

>  <Num_Resolved_Atoms>  (416) 
nan

>  <Num_Not_Resolved_Atoms>  (416) 
nan

$$$$
CHEMBL249729
     RDKit          3D

  0  0  0  0  0  0  0  0  0  0999 V3000
M  V30 BEGIN CTAB
M  V30 COUNTS 59 63 0 0 0
M  V30 BEGIN ATOM
M  V30 1 C 4.422523 -2.933436 5.338661 0
M  V30 2 N 4.797680 -1.550103 5.436029 0
M  V30 3 C 5.862487 -1.170978 4.564406 0
M  V30 4 C 3.723049 -0.614783 5.514606 0
M  V30 5 C 2.804479 -0.626663 4.374258 0
M  V30 6 C 3.064499 0.192645 3.285661 0
M  V30 7 C 2.148743 0.121426 2.256681 0
M  V30 8 N 1.057686 -0.661612 2.237475 0
M  V30 9 C 0.085277 -0.838692 1.320600 0
M  V30 10 C 0.020284 -0.142206 0.033670 0
M  V30 11 C -0.120913 1.237394 0.097525 0
M  V30 12 C -0.185278 1.927434 -1.104581 0
M  V30 13 N -0.113154 1.280714 -2.272997 0
M  V30 14 C 0.022816 -0.046131 -2.327894 0
M  V30 15 N 0.095504 -0.704639 -3.580589 0
M  V30 16 C -1.129875 -1.181959 -4.196259 0
M  V30 17 C -2.046439 -0.028860 -4.413674 0
M  V30 18 C -2.891360 0.203363 -3.332084 0
M  V30 19 C -3.805720 1.255250 -3.393986 0
M  V30 20 C -3.845565 2.045208 -4.542574 0
M  V30 21 Cl -4.987017 3.372162 -4.641997 0
M  V30 22 C -2.991365 1.783696 -5.595027 0
M  V30 23 C -2.079149 0.745599 -5.550604 0
M  V30 24 N 0.084612 -0.710309 -1.179595 0
M  V30 25 C -0.807217 -1.786560 1.836762 0
M  V30 26 C -1.995796 -2.236530 1.119545 0
M  V30 27 C -2.034525 -2.927977 -0.073856 0
M  V30 28 C -3.214730 -3.301211 -0.669801 0
M  V30 29 C -4.422240 -2.982483 -0.068918 0
M  V30 30 F -5.600506 -3.334931 -0.632430 0
M  V30 31 C -4.413930 -2.295219 1.118788 0
M  V30 32 C -3.216838 -1.916485 1.723733 0
M  V30 33 N -0.326541 -2.137803 3.048111 0
M  V30 34 C 0.819493 -1.452862 3.305135 0
M  V30 35 C 1.696903 -1.436624 4.380571 0
M  V30 36 H 3.487433 -3.169316 5.844309 0
M  V30 37 H 5.231354 -3.529587 5.811956 0
M  V30 38 H 4.406467 -3.292498 4.276840 0
M  V30 39 H 5.874151 -1.732366 3.607618 0
M  V30 40 H 5.802259 -0.095093 4.376987 0
M  V30 41 H 6.826808 -1.380136 5.076449 0
M  V30 42 H 3.134445 -0.847998 6.435691 0
M  V30 43 H 4.160721 0.382006 5.618022 0
M  V30 44 H 3.920835 0.849293 3.227374 0
M  V30 45 H 2.328276 0.756341 1.383169 0
M  V30 46 H -0.178084 1.744718 1.043718 0
M  V30 47 H -0.293982 2.986202 -1.042625 0
M  V30 48 H 1.105962 -0.709559 -3.820405 0
M  V30 49 H -0.899165 -1.563869 -5.230009 0
M  V30 50 H -1.567160 -1.990684 -3.602329 0
M  V30 51 H -2.895472 -0.381573 -2.424657 0
M  V30 52 H -4.469231 1.429655 -2.531859 0
M  V30 53 H -2.996940 2.375424 -6.495177 0
M  V30 54 H -1.393852 0.499235 -6.339858 0
M  V30 55 H -1.076494 -3.158683 -0.509765 0
M  V30 56 H -3.185716 -3.849192 -1.619082 0
M  V30 57 H -5.326680 -2.015126 1.641720 0
M  V30 58 H -3.242410 -1.369608 2.669620 0
M  V30 59 H 1.437467 -2.098357 5.196492 0
M  V30 END ATOM
M  V30 BEGIN BOND
M  V30 1 1 1 2
M  V30 2 1 2 3
M  V30 3 1 2 4
M  V30 4 1 4 5
M  V30 5 1 5 6
M  V30 6 2 6 7
M  V30 7 1 7 8
M  V30 8 1 8 9
M  V30 9 1 9 10
M  V30 10 2 10 11
M  V30 11 1 11 12
M  V30 12 2 12 13
M  V30 13 1 13 14
M  V30 14 1 14 15
M  V30 15 1 15 16
M  V30 16 1 16 17
M  V30 17 2 17 18
M  V30 18 1 18 19
M  V30 19 2 19 20
M  V30 20 1 20 21
M  V30 21 1 20 22
M  V30 22 2 22 23
M  V30 23 2 14 24
M  V30 24 2 9 25
M  V30 25 1 25 26
M  V30 26 2 26 27
M  V30 27 1 27 28
M  V30 28 2 28 29
M  V30 29 1 29 30
M  V30 30 1 29 31
M  V30 31 2 31 32
M  V30 32 1 25 33
M  V30 33 2 33 34
M  V30 34 1 34 35
M  V30 35 2 35 5
M  V30 36 1 34 8
M  V30 37 1 24 10
M  V30 38 1 32 26
M  V30 39 1 23 17
M  V30 40 1 1 36
M  V30 41 1 1 37
M  V30 42 1 1 38
M  V30 43 1 3 39
M  V30 44 1 3 40
M  V30 45 1 3 41
M  V30 46 1 4 42
M  V30 47 1 4 43
M  V30 48 1 6 44
M  V30 49 1 7 45
M  V30 50 1 11 46
M  V30 51 1 12 47
M  V30 52 1 15 48
M  V30 53 1 16 49
M  V30 54 1 16 50
M  V30 55 1 18 51
M  V30 56 1 19 52
M  V30 57 1 22 53
M  V30 58 1 23 54
M  V30 59 1 27 55
M  V30 60 1 28 56
M  V30 61 1 31 57
M  V30 62 1 32 58
M  V30 63 1 35 59
M  V30 END BOND
M  V30 END CTAB
M  END
>  <Dataset>  (417) 
ChEMBL_Kinases

>  <Ligand_Instance>  (417) 
nan

>  <PDB_ID>  (417) 
nan

>  <Standardized_SMILES>  (417) 
CN(C)Cc1ccn2c(-c3ccnc(NCc4ccc(Cl)cc4)n3)c(-c3ccc(F)cc3)nc2c1

>  <Name>  (417) 
nan

>  <Pocket>  (417) 
nan

>  <ATP_Site>  (417) 
nan

>  <Peripheral>  (417) 
nan

>  <Num_H_Atoms_ProtBoundConf>  (417) 
nan

>  <Num_Resolved_Atoms>  (417) 
nan

>  <Num_Not_Resolved_Atoms>  (417) 
nan

$$$$
CHEMBL249730
     RDKit          3D

  0  0  0  0  0  0  0  0  0  0999 V3000
M  V30 BEGIN CTAB
M  V30 COUNTS 55 59 0 0 0
M  V30 BEGIN ATOM
M  V30 1 C 6.266981 0.219373 2.890617 0
M  V30 2 N 5.456520 -0.079896 4.001747 0
M  V30 3 C 5.666733 -1.318377 4.666063 0
M  V30 4 C 4.187657 0.528646 4.121982 0
M  V30 5 C 3.228594 0.296191 3.041492 0
M  V30 6 C 3.115130 1.164328 1.967984 0
M  V30 7 C 2.198585 0.907436 0.970962 0
M  V30 8 N 1.441994 -0.196820 1.090106 0
M  V30 9 C 0.485320 -0.663893 0.269793 0
M  V30 10 C -0.034131 -0.113588 -0.995264 0
M  V30 11 C 0.541733 -0.041963 -2.243514 0
M  V30 12 C -0.150732 0.522832 -3.289730 0
M  V30 13 N -1.410177 1.015180 -3.101131 0
M  V30 14 C -1.969502 0.944353 -1.882682 0
M  V30 15 N -3.290410 1.430736 -1.585734 0
M  V30 16 C -4.569996 0.826185 -1.472297 0
M  V30 17 C -5.643537 1.651044 -1.176194 0
M  V30 18 C -6.848924 0.970094 -1.070585 0
M  V30 19 C -6.985223 -0.391882 -1.240398 0
M  V30 20 C -5.869592 -1.152838 -1.535352 0
M  V30 21 N -4.703189 -0.495063 -1.637380 0
M  V30 22 N -1.295843 0.388664 -0.840196 0
M  V30 23 C -0.029446 -1.849706 0.813988 0
M  V30 24 C -1.101825 -2.649595 0.180230 0
M  V30 25 C -2.370222 -2.903656 0.670145 0
M  V30 26 C -3.219187 -3.677468 -0.092615 0
M  V30 27 C -2.836110 -4.196409 -1.315747 0
M  V30 28 F -3.696610 -4.947387 -2.028640 0
M  V30 29 C -1.570337 -3.956364 -1.828257 0
M  V30 30 C -0.709560 -3.172697 -1.056949 0
M  V30 31 N 0.632814 -2.076388 1.962663 0
M  V30 32 C 1.514006 -1.074919 2.116476 0
M  V30 33 C 2.425524 -0.837521 3.127025 0
M  V30 34 H 5.776693 0.965052 2.234032 0
M  V30 35 H 7.228695 0.666041 3.286818 0
M  V30 36 H 6.616818 -0.662822 2.311736 0
M  V30 37 H 6.755281 -1.442745 4.899311 0
M  V30 38 H 5.397246 -2.181834 4.004055 0
M  V30 39 H 5.107650 -1.388297 5.635050 0
M  V30 40 H 4.324045 1.652027 4.172568 0
M  V30 41 H 3.767687 0.254418 5.126249 0
M  V30 42 H 3.711570 2.057430 1.860806 0
M  V30 43 H 2.097016 1.574398 0.124700 0
M  V30 44 H 1.531575 -0.465563 -2.252461 0
M  V30 45 H 0.354676 0.550412 -4.242796 0
M  V30 46 H -3.129645 2.451077 -1.445413 0
M  V30 47 H -5.528840 2.713102 -1.044722 0
M  V30 48 H -7.742725 1.545046 -0.840063 0
M  V30 49 H -7.956017 -0.855009 -1.142389 0
M  V30 50 H -5.924239 -2.216248 -1.676326 0
M  V30 51 H -2.552832 -2.449200 1.627481 0
M  V30 52 H -4.199160 -3.843156 0.338535 0
M  V30 53 H -1.293395 -4.369679 -2.777850 0
M  V30 54 H 0.256257 -3.038006 -1.533197 0
M  V30 55 H 2.489688 -1.526012 3.942511 0
M  V30 END ATOM
M  V30 BEGIN BOND
M  V30 1 1 1 2
M  V30 2 1 2 3
M  V30 3 1 2 4
M  V30 4 1 4 5
M  V30 5 1 5 6
M  V30 6 2 6 7
M  V30 7 1 7 8
M  V30 8 1 8 9
M  V30 9 1 9 10
M  V30 10 2 10 11
M  V30 11 1 11 12
M  V30 12 2 12 13
M  V30 13 1 13 14
M  V30 14 1 14 15
M  V30 15 1 15 16
M  V30 16 2 16 17
M  V30 17 1 17 18
M  V30 18 2 18 19
M  V30 19 1 19 20
M  V30 20 2 20 21
M  V30 21 2 14 22
M  V30 22 2 9 23
M  V30 23 1 23 24
M  V30 24 2 24 25
M  V30 25 1 25 26
M  V30 26 2 26 27
M  V30 27 1 27 28
M  V30 28 1 27 29
M  V30 29 2 29 30
M  V30 30 1 23 31
M  V30 31 2 31 32
M  V30 32 1 32 33
M  V30 33 2 33 5
M  V30 34 1 32 8
M  V30 35 1 22 10
M  V30 36 1 30 24
M  V30 37 1 21 16
M  V30 38 1 1 34
M  V30 39 1 1 35
M  V30 40 1 1 36
M  V30 41 1 3 37
M  V30 42 1 3 38
M  V30 43 1 3 39
M  V30 44 1 4 40
M  V30 45 1 4 41
M  V30 46 1 6 42
M  V30 47 1 7 43
M  V30 48 1 11 44
M  V30 49 1 12 45
M  V30 50 1 15 46
M  V30 51 1 17 47
M  V30 52 1 18 48
M  V30 53 1 19 49
M  V30 54 1 20 50
M  V30 55 1 25 51
M  V30 56 1 26 52
M  V30 57 1 29 53
M  V30 58 1 30 54
M  V30 59 1 33 55
M  V30 END BOND
M  V30 END CTAB
M  END
>  <Dataset>  (418) 
ChEMBL_Kinases

>  <Ligand_Instance>  (418) 
nan

>  <PDB_ID>  (418) 
nan

>  <Standardized_SMILES>  (418) 
CN(C)Cc1ccn2c(-c3ccnc(Nc4ccccn4)n3)c(-c3ccc(F)cc3)nc2c1

>  <Name>  (418) 
nan

>  <Pocket>  (418) 
nan

>  <ATP_Site>  (418) 
nan

>  <Peripheral>  (418) 
nan

>  <Num_H_Atoms_ProtBoundConf>  (418) 
nan

>  <Num_Resolved_Atoms>  (418) 
nan

>  <Num_Not_Resolved_Atoms>  (418) 
nan

$$$$
CHEMBL249594
     RDKit          3D

  0  0  0  0  0  0  0  0  0  0999 V3000
M  V30 BEGIN CTAB
M  V30 COUNTS 35 37 0 0 0
M  V30 BEGIN ATOM
M  V30 1 N 0.439476 -2.641410 4.485135 0
M  V30 2 C 0.098225 -3.515495 3.361587 0
M  V30 3 C -0.214637 -2.591727 2.201964 0
M  V30 4 C 1.044412 -1.766188 1.910931 0
M  V30 5 C 0.719556 -0.856507 0.783994 0
M  V30 6 C 1.103430 -1.236526 -0.480370 0
M  V30 7 C 0.784027 -0.431903 -1.550266 0
M  V30 8 C 1.181613 -0.851336 -2.799019 0
M  V30 9 C 0.845823 -0.036734 -3.838174 0
M  V30 10 N 0.159755 1.135890 -3.726398 0
M  V30 11 C -0.208612 1.506094 -2.481997 0
M  V30 12 O -0.824504 2.588507 -2.530499 0
M  V30 13 C 0.092193 0.740266 -1.385787 0
M  V30 14 C -0.295676 1.139057 -0.157189 0
M  V30 15 C -0.973322 2.306788 0.054725 0
M  V30 16 C -1.357515 2.722650 1.311159 0
M  V30 17 Cl -2.213196 4.174454 1.701940 0
M  V30 18 C -1.009343 1.875124 2.350356 0
M  V30 19 C -0.328707 0.688836 2.200594 0
M  V30 20 C 0.028120 0.329662 0.901071 0
M  V30 21 H 1.318623 -2.922176 4.939677 0
M  V30 22 H -0.383747 -2.618737 5.154708 0
M  V30 23 H -0.747514 -4.152927 3.641543 0
M  V30 24 H 0.993516 -4.153116 3.102128 0
M  V30 25 H -0.404040 -3.196153 1.279856 0
M  V30 26 H -1.064908 -1.944705 2.404148 0
M  V30 27 H 1.821876 -2.492661 1.604539 0
M  V30 28 H 1.421367 -1.260303 2.810663 0
M  V30 29 H 1.657445 -2.169746 -0.621040 0
M  V30 30 H 1.729581 -1.777056 -2.937747 0
M  V30 31 H 1.162822 -0.370781 -4.836928 0
M  V30 32 H -0.018538 1.642636 -4.623953 0
M  V30 33 H -1.283932 3.018706 -0.674912 0
M  V30 34 H -1.282019 2.148948 3.374894 0
M  V30 35 H -0.097491 0.097114 3.097955 0
M  V30 END ATOM
M  V30 BEGIN BOND
M  V30 1 1 1 2
M  V30 2 1 2 3
M  V30 3 1 3 4
M  V30 4 1 4 5
M  V30 5 2 5 6
M  V30 6 1 6 7
M  V30 7 1 7 8
M  V30 8 2 8 9
M  V30 9 1 9 10
M  V30 10 1 10 11
M  V30 11 2 11 12
M  V30 12 1 11 13
M  V30 13 1 13 14
M  V30 14 2 14 15
M  V30 15 1 15 16
M  V30 16 1 16 17
M  V30 17 2 16 18
M  V30 18 1 18 19
M  V30 19 2 19 20
M  V30 20 1 20 5
M  V30 21 2 13 7
M  V30 22 1 20 14
M  V30 23 1 1 21
M  V30 24 1 1 22
M  V30 25 1 2 23
M  V30 26 1 2 24
M  V30 27 1 3 25
M  V30 28 1 3 26
M  V30 29 1 4 27
M  V30 30 1 4 28
M  V30 31 1 6 29
M  V30 32 1 8 30
M  V30 33 1 9 31
M  V30 34 1 10 32
M  V30 35 1 15 33
M  V30 36 1 18 34
M  V30 37 1 19 35
M  V30 END BOND
M  V30 END CTAB
M  END
>  <Dataset>  (419) 
ChEMBL_Kinases

>  <Ligand_Instance>  (419) 
nan

>  <PDB_ID>  (419) 
nan

>  <Standardized_SMILES>  (419) 
NCCCc1cc2cc[nH]c(=O)c2c2cc(Cl)ccc12

>  <Name>  (419) 
nan

>  <Pocket>  (419) 
nan

>  <ATP_Site>  (419) 
nan

>  <Peripheral>  (419) 
nan

>  <Num_H_Atoms_ProtBoundConf>  (419) 
nan

>  <Num_Resolved_Atoms>  (419) 
nan

>  <Num_Not_Resolved_Atoms>  (419) 
nan

$$$$
CHEMBL250566
     RDKit          3D

  0  0  0  0  0  0  0  0  0  0999 V3000
M  V30 BEGIN CTAB
M  V30 COUNTS 53 56 0 0 0
M  V30 BEGIN ATOM
M  V30 1 C 2.954915 -2.520840 6.537508 0
M  V30 2 C 2.684562 -2.318218 5.090705 0
M  V30 3 O 2.222312 -3.328158 4.459503 0
M  V30 4 N 2.951508 -1.043237 4.515443 0
M  V30 5 C 3.471999 0.144889 5.157642 0
M  V30 6 C 4.860503 0.487683 4.663514 0
M  V30 7 C 4.963354 -0.053979 3.252182 0
M  V30 8 C 3.595196 0.238056 2.601963 0
M  V30 9 C 3.770917 0.388808 1.133272 0
M  V30 10 O 2.710035 0.656543 0.340985 0
M  V30 11 C 1.546464 0.106323 -0.038192 0
M  V30 12 C 0.956838 1.045636 -0.908637 0
M  V30 13 C -0.290762 0.801383 -1.508981 0
M  V30 14 C -0.935424 -0.386251 -1.228742 0
M  V30 15 C -2.234773 -0.733471 -1.802316 0
M  V30 16 N -2.925158 0.073885 -2.659140 0
M  V30 17 C -4.084122 -0.504430 -3.021512 0
M  V30 18 C -5.163692 -0.204425 -3.825935 0
M  V30 19 C -6.216830 -1.078617 -3.961331 0
M  V30 20 C -7.350411 -0.754625 -4.810972 0
M  V30 21 N -7.397689 0.460968 -5.514671 0
M  V30 22 O -8.324521 -1.516770 -4.962623 0
M  V30 23 C -6.245018 -2.304972 -3.295520 0
M  V30 24 C -5.160789 -2.617735 -2.481246 0
M  V30 25 C -4.134175 -1.720387 -2.374416 0
M  V30 26 N -3.011892 -1.843888 -1.643148 0
M  V30 27 C -0.403734 -1.337792 -0.386090 0
M  V30 28 C 0.817378 -1.039313 0.168046 0
M  V30 29 C 2.689516 -0.827397 3.086081 0
M  V30 30 H 3.179251 -3.607726 6.742785 0
M  V30 31 H 2.091559 -2.257901 7.174528 0
M  V30 32 H 3.861760 -1.988204 6.879864 0
M  V30 33 H 2.763764 1.005762 5.074538 0
M  V30 34 H 3.553330 -0.076347 6.241523 0
M  V30 35 H 5.664415 0.090980 5.309316 0
M  V30 36 H 4.896128 1.597843 4.587490 0
M  V30 37 H 5.789939 0.409671 2.675792 0
M  V30 38 H 5.070567 -1.154870 3.333683 0
M  V30 39 H 3.225077 1.213366 3.035924 0
M  V30 40 H 4.500016 1.264765 1.018196 0
M  V30 41 H 4.421311 -0.468391 0.754239 0
M  V30 42 H 1.287371 2.026435 -1.259181 0
M  V30 43 H -0.840955 1.435279 -2.186324 0
M  V30 44 H -5.160473 0.740141 -4.349695 0
M  V30 45 H -8.131563 1.068844 -5.069724 0
M  V30 46 H -6.964900 0.973430 -6.319286 0
M  V30 47 H -7.085484 -2.959322 -3.427705 0
M  V30 48 H -5.167720 -3.567153 -1.956977 0
M  V30 49 H -2.695257 -2.620036 -1.024346 0
M  V30 50 H -0.818600 -2.285248 -0.103945 0
M  V30 51 H 1.319195 -1.710058 0.818129 0
M  V30 52 H 2.892720 -1.811302 2.616228 0
M  V30 53 H 1.618109 -0.603612 2.919181 0
M  V30 END ATOM
M  V30 BEGIN BOND
M  V30 1 1 1 2
M  V30 2 2 2 3
M  V30 3 1 2 4
M  V30 4 1 4 5
M  V30 5 1 5 6
M  V30 6 1 6 7
M  V30 7 1 7 8
M  V30 8 1 8 9
M  V30 9 1 9 10
M  V30 10 1 10 11
M  V30 11 2 11 12
M  V30 12 1 12 13
M  V30 13 2 13 14
M  V30 14 1 14 15
M  V30 15 2 15 16
M  V30 16 1 16 17
M  V30 17 2 17 18
M  V30 18 1 18 19
M  V30 19 1 19 20
M  V30 20 1 20 21
M  V30 21 2 20 22
M  V30 22 2 19 23
M  V30 23 1 23 24
M  V30 24 2 24 25
M  V30 25 1 25 26
M  V30 26 1 14 27
M  V30 27 2 27 28
M  V30 28 1 8 29
M  V30 29 1 29 4
M  V30 30 1 28 11
M  V30 31 1 26 15
M  V30 32 1 25 17
M  V30 33 1 1 30
M  V30 34 1 1 31
M  V30 35 1 1 32
M  V30 36 1 5 33
M  V30 37 1 5 34
M  V30 38 1 6 35
M  V30 39 1 6 36
M  V30 40 1 7 37
M  V30 41 1 7 38
M  V30 42 1 8 39
M  V30 43 1 9 40
M  V30 44 1 9 41
M  V30 45 1 12 42
M  V30 46 1 13 43
M  V30 47 1 18 44
M  V30 48 1 21 45
M  V30 49 1 21 46
M  V30 50 1 23 47
M  V30 51 1 24 48
M  V30 52 1 26 49
M  V30 53 1 27 50
M  V30 54 1 28 51
M  V30 55 1 29 52
M  V30 56 1 29 53
M  V30 END BOND
M  V30 END CTAB
M  END
>  <Dataset>  (420) 
ChEMBL_Kinases

>  <Ligand_Instance>  (420) 
nan

>  <PDB_ID>  (420) 
nan

>  <Standardized_SMILES>  (420) 
CC(=O)N1CCCC(COc2ccc(-c3nc4cc(C(N)=O)ccc4[nH]3)cc2)C1

>  <Name>  (420) 
nan

>  <Pocket>  (420) 
nan

>  <ATP_Site>  (420) 
nan

>  <Peripheral>  (420) 
nan

>  <Num_H_Atoms_ProtBoundConf>  (420) 
nan

>  <Num_Resolved_Atoms>  (420) 
nan

>  <Num_Not_Resolved_Atoms>  (420) 
nan

$$$$
CHEMBL250555
     RDKit          3D

  0  0  0  0  0  0  0  0  0  0999 V3000
M  V30 BEGIN CTAB
M  V30 COUNTS 64 68 0 0 0
M  V30 BEGIN ATOM
M  V30 1 N 10.874496 0.936616 2.655685 0
M  V30 2 C 9.955201 1.690757 1.885259 0
M  V30 3 O 10.418369 2.631188 1.193323 0
M  V30 4 C 8.570281 1.244864 2.018969 0
M  V30 5 C 8.125579 0.197236 2.806557 0
M  V30 6 C 6.788644 -0.109823 2.834054 0
M  V30 7 C 5.876281 0.595449 2.099699 0
M  V30 8 N 4.523187 0.447008 1.994065 0
M  V30 9 C 4.074584 1.387970 1.143494 0
M  V30 10 C 2.672927 1.554993 0.770462 0
M  V30 11 C 1.752514 0.692343 1.325736 0
M  V30 12 C 0.418097 0.803593 1.011189 0
M  V30 13 C -0.070850 1.755168 0.146444 0
M  V30 14 O -1.272682 2.140792 -0.374916 0
M  V30 15 C -2.510892 1.549358 -0.122906 0
M  V30 16 C -2.673553 0.135425 -0.547492 0
M  V30 17 C -4.054472 -0.419150 -0.220591 0
M  V30 18 C -5.073491 0.432412 -0.947424 0
M  V30 19 C -6.426279 -0.288087 -1.053324 0
M  V30 20 C -6.267611 -1.568340 -1.850515 0
M  V30 21 C -4.775554 -1.934453 -1.945255 0
M  V30 22 N -4.212827 -1.768638 -0.673990 0
M  V30 23 C -3.323305 -2.714030 -0.148958 0
M  V30 24 C -3.988593 -4.033848 -0.040433 0
M  V30 25 C -4.021100 -5.095964 -0.919384 0
M  V30 26 C -4.732932 -6.235824 -0.589229 0
M  V30 27 C -5.420910 -6.383837 0.574682 0
M  V30 28 C -5.396414 -5.316439 1.474007 0
M  V30 29 C -4.694510 -4.188672 1.151415 0
M  V30 30 C 0.880537 2.629364 -0.412823 0
M  V30 31 C 2.247221 2.532962 -0.104640 0
M  V30 32 N 5.143247 2.102325 0.735275 0
M  V30 33 C 6.258319 1.637799 1.305688 0
M  V30 34 C 7.621074 1.928203 1.296209 0
M  V30 35 H 11.444501 0.209112 3.124635 0
M  V30 36 H 11.025551 -0.106479 2.754787 0
M  V30 37 H 8.903566 -0.330663 3.372438 0
M  V30 38 H 6.507106 -0.946914 3.475577 0
M  V30 39 H 3.963120 -0.290714 2.506873 0
M  V30 40 H 1.963979 -0.108993 2.019317 0
M  V30 41 H -0.390779 0.200464 1.388365 0
M  V30 42 H -2.754144 1.633577 0.983644 0
M  V30 43 H -3.322703 2.151110 -0.613152 0
M  V30 44 H -2.551952 0.135088 -1.674438 0
M  V30 45 H -1.910682 -0.544234 -0.173397 0
M  V30 46 H -4.248105 -0.394331 0.867554 0
M  V30 47 H -5.289099 1.383961 -0.421869 0
M  V30 48 H -4.728073 0.692352 -1.968638 0
M  V30 49 H -7.110762 0.384067 -1.564354 0
M  V30 50 H -6.731464 -0.562969 -0.031110 0
M  V30 51 H -6.662774 -1.373043 -2.880131 0
M  V30 52 H -6.794539 -2.375945 -1.346800 0
M  V30 53 H -4.345532 -1.257468 -2.726601 0
M  V30 54 H -4.649671 -2.956070 -2.311007 0
M  V30 55 H -2.905332 -2.405932 0.821255 0
M  V30 56 H -2.468127 -2.889561 -0.869913 0
M  V30 57 H -3.460201 -4.931080 -1.813931 0
M  V30 58 H -4.678237 -6.989627 -1.359771 0
M  V30 59 H -5.935168 -7.332086 0.701228 0
M  V30 60 H -5.951318 -5.464317 2.388242 0
M  V30 61 H -4.755908 -3.439041 1.929245 0
M  V30 62 H 0.768036 3.467710 -1.121123 0
M  V30 63 H 3.044451 3.145694 -0.474574 0
M  V30 64 H 7.950144 2.742236 0.681035 0
M  V30 END ATOM
M  V30 BEGIN BOND
M  V30 1 1 1 2
M  V30 2 2 2 3
M  V30 3 1 2 4
M  V30 4 2 4 5
M  V30 5 1 5 6
M  V30 6 2 6 7
M  V30 7 1 7 8
M  V30 8 1 8 9
M  V30 9 1 9 10
M  V30 10 2 10 11
M  V30 11 1 11 12
M  V30 12 2 12 13
M  V30 13 1 13 14
M  V30 14 1 14 15
M  V30 15 1 15 16
M  V30 16 1 16 17
M  V30 17 1 17 18
M  V30 18 1 18 19
M  V30 19 1 19 20
M  V30 20 1 20 21
M  V30 21 1 21 22
M  V30 22 1 22 23
M  V30 23 1 23 24
M  V30 24 2 24 25
M  V30 25 1 25 26
M  V30 26 2 26 27
M  V30 27 1 27 28
M  V30 28 2 28 29
M  V30 29 1 13 30
M  V30 30 2 30 31
M  V30 31 2 9 32
M  V30 32 1 32 33
M  V30 33 2 33 34
M  V30 34 1 34 4
M  V30 35 1 33 7
M  V30 36 1 31 10
M  V30 37 1 22 17
M  V30 38 1 29 24
M  V30 39 1 1 35
M  V30 40 1 1 36
M  V30 41 1 5 37
M  V30 42 1 6 38
M  V30 43 1 8 39
M  V30 44 1 11 40
M  V30 45 1 12 41
M  V30 46 1 15 42
M  V30 47 1 15 43
M  V30 48 1 16 44
M  V30 49 1 16 45
M  V30 50 1 17 46
M  V30 51 1 18 47
M  V30 52 1 18 48
M  V30 53 1 19 49
M  V30 54 1 19 50
M  V30 55 1 20 51
M  V30 56 1 20 52
M  V30 57 1 21 53
M  V30 58 1 21 54
M  V30 59 1 23 55
M  V30 60 1 23 56
M  V30 61 1 25 57
M  V30 62 1 26 58
M  V30 63 1 27 59
M  V30 64 1 28 60
M  V30 65 1 29 61
M  V30 66 1 30 62
M  V30 67 1 31 63
M  V30 68 1 34 64
M  V30 END BOND
M  V30 END CTAB
M  END
>  <Dataset>  (421) 
ChEMBL_Kinases

>  <Ligand_Instance>  (421) 
nan

>  <PDB_ID>  (421) 
nan

>  <Standardized_SMILES>  (421) 
NC(=O)c1ccc2[nH]c(-c3ccc(OCCC4CCCCN4Cc4ccccc4)cc3)nc2c1

>  <Name>  (421) 
nan

>  <Pocket>  (421) 
nan

>  <ATP_Site>  (421) 
nan

>  <Peripheral>  (421) 
nan

>  <Num_H_Atoms_ProtBoundConf>  (421) 
nan

>  <Num_Resolved_Atoms>  (421) 
nan

>  <Num_Not_Resolved_Atoms>  (421) 
nan

$$$$
CHEMBL250550
     RDKit          3D

  0  0  0  0  0  0  0  0  0  0999 V3000
M  V30 BEGIN CTAB
M  V30 COUNTS 49 52 0 0 0
M  V30 BEGIN ATOM
M  V30 1 C 0.406181 -0.447539 3.420818 0
M  V30 2 C 1.767968 -0.735285 2.901814 0
M  V30 3 C 2.819409 -1.123090 3.723021 0
M  V30 4 N 4.012464 -1.358068 3.148041 0
M  V30 5 C 4.226150 -1.234549 1.829777 0
M  V30 6 N 5.520213 -1.503298 1.303485 0
M  V30 7 N 3.230252 -0.857194 0.978822 0
M  V30 8 C 2.012709 -0.614951 1.545513 0
M  V30 9 C 0.988149 -0.218012 0.574308 0
M  V30 10 C 0.871495 0.898254 -0.254498 0
M  V30 11 C 1.914694 1.925021 -0.220635 0
M  V30 12 C 2.629698 2.212942 -1.373265 0
M  V30 13 C 3.592741 3.194782 -1.242810 0
M  V30 14 C 3.815884 3.835501 -0.041695 0
M  V30 15 F 4.757267 4.799739 0.101059 0
M  V30 16 C 3.071626 3.511841 1.090461 0
M  V30 17 C 2.100138 2.536473 1.001448 0
M  V30 18 N -0.267789 0.775816 -0.961383 0
M  V30 19 C -0.897807 -0.373002 -0.627524 0
M  V30 20 C -2.073127 -0.965736 -1.044518 0
M  V30 21 C -2.503313 -2.171738 -0.534762 0
M  V30 22 C -3.772405 -2.793786 -0.997377 0
M  V30 23 N -4.899182 -2.378087 -0.216661 0
M  V30 24 C -4.766119 -2.715202 1.183531 0
M  V30 25 C -6.077182 -3.040362 -0.743431 0
M  V30 26 C -1.704533 -2.759748 0.412431 0
M  V30 27 C -0.524434 -2.162572 0.829937 0
M  V30 28 N -0.112773 -0.969764 0.315999 0
M  V30 29 H 0.461584 0.064079 4.421901 0
M  V30 30 H -0.148438 -1.372933 3.591335 0
M  V30 31 H -0.083731 0.281804 2.747910 0
M  V30 32 H 2.566128 -1.198201 4.762625 0
M  V30 33 H 5.641322 -2.065179 0.427681 0
M  V30 34 H 6.364250 -1.122320 1.817422 0
M  V30 35 H 2.405086 1.674993 -2.278766 0
M  V30 36 H 4.178819 3.456958 -2.112716 0
M  V30 37 H 3.265000 4.025704 2.013886 0
M  V30 38 H 1.509404 2.268915 1.869727 0
M  V30 39 H -2.649264 -0.452659 -1.786157 0
M  V30 40 H -3.684853 -3.907327 -0.834423 0
M  V30 41 H -3.947658 -2.668223 -2.062919 0
M  V30 42 H -5.772471 -2.755214 1.685939 0
M  V30 43 H -4.302425 -3.683639 1.381117 0
M  V30 44 H -4.245079 -1.859155 1.703348 0
M  V30 45 H -5.967787 -4.146602 -0.750662 0
M  V30 46 H -6.275268 -2.740160 -1.797690 0
M  V30 47 H -6.978981 -2.816232 -0.103574 0
M  V30 48 H -1.962427 -3.694502 0.860481 0
M  V30 49 H 0.081315 -2.665943 1.587228 0
M  V30 END ATOM
M  V30 BEGIN BOND
M  V30 1 1 1 2
M  V30 2 2 2 3
M  V30 3 1 3 4
M  V30 4 2 4 5
M  V30 5 1 5 6
M  V30 6 1 5 7
M  V30 7 2 7 8
M  V30 8 1 8 9
M  V30 9 2 9 10
M  V30 10 1 10 11
M  V30 11 2 11 12
M  V30 12 1 12 13
M  V30 13 2 13 14
M  V30 14 1 14 15
M  V30 15 1 14 16
M  V30 16 2 16 17
M  V30 17 1 10 18
M  V30 18 2 18 19
M  V30 19 1 19 20
M  V30 20 2 20 21
M  V30 21 1 21 22
M  V30 22 1 22 23
M  V30 23 1 23 24
M  V30 24 1 23 25
M  V30 25 1 21 26
M  V30 26 2 26 27
M  V30 27 1 27 28
M  V30 28 1 8 2
M  V30 29 1 28 9
M  V30 30 1 17 11
M  V30 31 1 28 19
M  V30 32 1 1 29
M  V30 33 1 1 30
M  V30 34 1 1 31
M  V30 35 1 3 32
M  V30 36 1 6 33
M  V30 37 1 6 34
M  V30 38 1 12 35
M  V30 39 1 13 36
M  V30 40 1 16 37
M  V30 41 1 17 38
M  V30 42 1 20 39
M  V30 43 1 22 40
M  V30 44 1 22 41
M  V30 45 1 24 42
M  V30 46 1 24 43
M  V30 47 1 24 44
M  V30 48 1 25 45
M  V30 49 1 25 46
M  V30 50 1 25 47
M  V30 51 1 26 48
M  V30 52 1 27 49
M  V30 END BOND
M  V30 END CTAB
M  END
>  <Dataset>  (422) 
ChEMBL_Kinases

>  <Ligand_Instance>  (422) 
nan

>  <PDB_ID>  (422) 
nan

>  <Standardized_SMILES>  (422) 
Cc1cnc(N)nc1-c1c(-c2ccc(F)cc2)nc2cc(CN(C)C)ccn12

>  <Name>  (422) 
nan

>  <Pocket>  (422) 
nan

>  <ATP_Site>  (422) 
nan

>  <Peripheral>  (422) 
nan

>  <Num_H_Atoms_ProtBoundConf>  (422) 
nan

>  <Num_Resolved_Atoms>  (422) 
nan

>  <Num_Not_Resolved_Atoms>  (422) 
nan

$$$$
CHEMBL250549
     RDKit          3D

  0  0  0  0  0  0  0  0  0  0999 V3000
M  V30 BEGIN CTAB
M  V30 COUNTS 52 55 0 0 0
M  V30 BEGIN ATOM
M  V30 1 C 2.375853 -3.231465 5.937642 0
M  V30 2 O 3.350869 -2.892777 4.979156 0
M  V30 3 C 2.995213 -2.188346 3.823033 0
M  V30 4 O 1.785934 -1.839291 3.611302 0
M  V30 5 N 3.987368 -1.850796 2.861963 0
M  V30 6 C 3.657040 -1.134790 1.672600 0
M  V30 7 N 4.640437 -0.837790 0.788914 0
M  V30 8 C 4.374910 -0.166585 -0.339878 0
M  V30 9 C 3.071936 0.214543 -0.578852 0
M  V30 10 C 2.052855 -0.074717 0.303509 0
M  V30 11 C 0.639399 0.261262 0.195344 0
M  V30 12 C -0.031228 1.461996 0.220707 0
M  V30 13 C 0.611247 2.759579 0.383794 0
M  V30 14 C 0.181766 3.330953 1.585891 0
M  V30 15 C 0.634586 4.581744 2.002981 0
M  V30 16 C 1.532928 5.257282 1.188775 0
M  V30 17 F 2.035675 6.485991 1.507050 0
M  V30 18 C 1.958075 4.682607 -0.009367 0
M  V30 19 C 1.490598 3.437201 -0.398165 0
M  V30 20 N -1.349205 1.196935 0.073149 0
M  V30 21 C -1.535443 -0.131959 -0.045623 0
M  V30 22 C -2.673856 -0.910565 -0.214866 0
M  V30 23 C -2.584011 -2.284181 -0.309707 0
M  V30 24 C -3.739635 -3.202155 -0.492700 0
M  V30 25 N -4.042140 -3.451793 -1.862820 0
M  V30 26 C -4.388151 -2.317545 -2.652243 0
M  V30 27 C -4.756499 -4.653699 -2.132565 0
M  V30 28 C -1.335421 -2.869149 -0.232506 0
M  V30 29 C -0.245167 -2.041495 -0.064227 0
M  V30 30 N -0.305086 -0.686645 0.032079 0
M  V30 31 N 2.396876 -0.758340 1.427458 0
M  V30 32 H 1.391510 -3.380876 5.458244 0
M  V30 33 H 2.735142 -4.111379 6.517416 0
M  V30 34 H 2.246779 -2.363026 6.646424 0
M  V30 35 H 4.969939 -2.141501 3.048103 0
M  V30 36 H 5.054796 0.130984 -1.117728 0
M  V30 37 H 2.762469 0.755218 -1.461227 0
M  V30 38 H -0.520369 2.923936 2.332811 0
M  V30 39 H 0.362110 5.091100 2.899460 0
M  V30 40 H 2.654781 5.129725 -0.706996 0
M  V30 41 H 1.743980 2.899416 -1.292685 0
M  V30 42 H -3.658399 -0.465204 -0.276286 0
M  V30 43 H -4.673335 -2.786027 -0.015208 0
M  V30 44 H -3.581296 -4.175079 0.006738 0
M  V30 45 H -5.150462 -2.649168 -3.403000 0
M  V30 46 H -4.942504 -1.617435 -1.979747 0
M  V30 47 H -3.511676 -1.819945 -3.124781 0
M  V30 48 H -4.428084 -5.421855 -1.404198 0
M  V30 49 H -5.837549 -4.471760 -1.965698 0
M  V30 50 H -4.548513 -5.089184 -3.130234 0
M  V30 51 H -1.210156 -3.940224 -0.301352 0
M  V30 52 H 0.717458 -2.540269 -0.008192 0
M  V30 END ATOM
M  V30 BEGIN BOND
M  V30 1 1 1 2
M  V30 2 1 2 3
M  V30 3 2 3 4
M  V30 4 1 3 5
M  V30 5 1 5 6
M  V30 6 2 6 7
M  V30 7 1 7 8
M  V30 8 2 8 9
M  V30 9 1 9 10
M  V30 10 1 10 11
M  V30 11 2 11 12
M  V30 12 1 12 13
M  V30 13 2 13 14
M  V30 14 1 14 15
M  V30 15 2 15 16
M  V30 16 1 16 17
M  V30 17 1 16 18
M  V30 18 2 18 19
M  V30 19 1 12 20
M  V30 20 2 20 21
M  V30 21 1 21 22
M  V30 22 2 22 23
M  V30 23 1 23 24
M  V30 24 1 24 25
M  V30 25 1 25 26
M  V30 26 1 25 27
M  V30 27 1 23 28
M  V30 28 2 28 29
M  V30 29 1 29 30
M  V30 30 2 10 31
M  V30 31 1 31 6
M  V30 32 1 30 11
M  V30 33 1 19 13
M  V30 34 1 30 21
M  V30 35 1 1 32
M  V30 36 1 1 33
M  V30 37 1 1 34
M  V30 38 1 5 35
M  V30 39 1 8 36
M  V30 40 1 9 37
M  V30 41 1 14 38
M  V30 42 1 15 39
M  V30 43 1 18 40
M  V30 44 1 19 41
M  V30 45 1 22 42
M  V30 46 1 24 43
M  V30 47 1 24 44
M  V30 48 1 26 45
M  V30 49 1 26 46
M  V30 50 1 26 47
M  V30 51 1 27 48
M  V30 52 1 27 49
M  V30 53 1 27 50
M  V30 54 1 28 51
M  V30 55 1 29 52
M  V30 END BOND
M  V30 END CTAB
M  END
>  <Dataset>  (423) 
ChEMBL_Kinases

>  <Ligand_Instance>  (423) 
nan

>  <PDB_ID>  (423) 
nan

>  <Standardized_SMILES>  (423) 
COC(=O)Nc1nccc(-c2c(-c3ccc(F)cc3)nc3cc(CN(C)C)ccn23)n1

>  <Name>  (423) 
nan

>  <Pocket>  (423) 
nan

>  <ATP_Site>  (423) 
nan

>  <Peripheral>  (423) 
nan

>  <Num_H_Atoms_ProtBoundConf>  (423) 
nan

>  <Num_Resolved_Atoms>  (423) 
nan

>  <Num_Not_Resolved_Atoms>  (423) 
nan

$$$$
CHEMBL250548
     RDKit          3D

  0  0  0  0  0  0  0  0  0  0999 V3000
M  V30 BEGIN CTAB
M  V30 COUNTS 48 51 0 0 0
M  V30 BEGIN ATOM
M  V30 1 C 1.727631 -3.746025 4.475619 0
M  V30 2 N 3.097117 -3.433972 4.078446 0
M  V30 3 C 3.308077 -2.029115 4.362433 0
M  V30 4 C 3.199781 -3.721269 2.662012 0
M  V30 5 C 2.224393 -2.877180 1.884196 0
M  V30 6 C 2.725726 -1.658495 1.468585 0
M  V30 7 C 1.940304 -0.788371 0.748698 0
M  V30 8 N 0.657611 -1.130049 0.442555 0
M  V30 9 C -0.334800 -0.486944 -0.241731 0
M  V30 10 C -0.107204 0.844003 -0.813531 0
M  V30 11 C -0.162860 1.137770 -2.168221 0
M  V30 12 C 0.079263 2.450724 -2.530825 0
M  V30 13 N 0.356561 3.409016 -1.629635 0
M  V30 14 C 0.404137 3.095694 -0.321956 0
M  V30 15 N 0.694266 4.080531 0.660260 0
M  V30 16 C -0.299782 4.867115 1.304598 0
M  V30 17 O -1.500449 4.703750 1.009961 0
M  V30 18 N 0.176901 1.839780 0.075860 0
M  V30 19 C -1.454067 -1.306569 -0.251453 0
M  V30 20 C -2.708138 -0.936052 -0.898130 0
M  V30 21 C -3.361343 0.189798 -0.386728 0
M  V30 22 C -4.543082 0.550835 -0.985197 0
M  V30 23 C -5.095786 -0.138089 -2.044858 0
M  V30 24 F -6.274672 0.219327 -2.643834 0
M  V30 25 C -4.399878 -1.239022 -2.500062 0
M  V30 26 C -3.204960 -1.671371 -1.956261 0
M  V30 27 N -1.119834 -2.426725 0.424694 0
M  V30 28 C 0.155081 -2.325705 0.846408 0
M  V30 29 C 0.924295 -3.218493 1.571477 0
M  V30 30 H 1.656904 -3.720480 5.596572 0
M  V30 31 H 0.986772 -3.018900 4.114216 0
M  V30 32 H 1.522212 -4.772191 4.091808 0
M  V30 33 H 2.491190 -1.386812 3.923106 0
M  V30 34 H 4.288801 -1.647864 4.051239 0
M  V30 35 H 3.233311 -1.909741 5.463403 0
M  V30 36 H 4.213113 -3.609711 2.268771 0
M  V30 37 H 2.872017 -4.770790 2.514707 0
M  V30 38 H 3.733846 -1.335645 1.682622 0
M  V30 39 H 2.337813 0.177343 0.419248 0
M  V30 40 H -0.388716 0.327128 -2.832769 0
M  V30 41 H 0.029694 2.656385 -3.600658 0
M  V30 42 H 1.660517 4.310754 0.992510 0
M  V30 43 H -0.105437 5.620616 2.052844 0
M  V30 44 H -2.947965 0.741622 0.438912 0
M  V30 45 H -5.077760 1.422736 -0.612019 0
M  V30 46 H -4.808753 -1.799898 -3.330782 0
M  V30 47 H -2.652967 -2.530592 -2.304543 0
M  V30 48 H 0.595145 -4.176070 1.922159 0
M  V30 END ATOM
M  V30 BEGIN BOND
M  V30 1 1 1 2
M  V30 2 1 2 3
M  V30 3 1 2 4
M  V30 4 1 4 5
M  V30 5 1 5 6
M  V30 6 2 6 7
M  V30 7 1 7 8
M  V30 8 1 8 9
M  V30 9 1 9 10
M  V30 10 2 10 11
M  V30 11 1 11 12
M  V30 12 2 12 13
M  V30 13 1 13 14
M  V30 14 1 14 15
M  V30 15 1 15 16
M  V30 16 2 16 17
M  V30 17 2 14 18
M  V30 18 2 9 19
M  V30 19 1 19 20
M  V30 20 2 20 21
M  V30 21 1 21 22
M  V30 22 2 22 23
M  V30 23 1 23 24
M  V30 24 1 23 25
M  V30 25 2 25 26
M  V30 26 1 19 27
M  V30 27 2 27 28
M  V30 28 1 28 29
M  V30 29 2 29 5
M  V30 30 1 28 8
M  V30 31 1 18 10
M  V30 32 1 26 20
M  V30 33 1 1 30
M  V30 34 1 1 31
M  V30 35 1 1 32
M  V30 36 1 3 33
M  V30 37 1 3 34
M  V30 38 1 3 35
M  V30 39 1 4 36
M  V30 40 1 4 37
M  V30 41 1 6 38
M  V30 42 1 7 39
M  V30 43 1 11 40
M  V30 44 1 12 41
M  V30 45 1 15 42
M  V30 46 1 16 43
M  V30 47 1 21 44
M  V30 48 1 22 45
M  V30 49 1 25 46
M  V30 50 1 26 47
M  V30 51 1 29 48
M  V30 END BOND
M  V30 END CTAB
M  END
>  <Dataset>  (424) 
ChEMBL_Kinases

>  <Ligand_Instance>  (424) 
nan

>  <PDB_ID>  (424) 
nan

>  <Standardized_SMILES>  (424) 
CN(C)Cc1ccn2c(-c3ccnc(NC=O)n3)c(-c3ccc(F)cc3)nc2c1

>  <Name>  (424) 
nan

>  <Pocket>  (424) 
nan

>  <ATP_Site>  (424) 
nan

>  <Peripheral>  (424) 
nan

>  <Num_H_Atoms_ProtBoundConf>  (424) 
nan

>  <Num_Resolved_Atoms>  (424) 
nan

>  <Num_Not_Resolved_Atoms>  (424) 
nan

$$$$
CHEMBL250459
     RDKit          3D

  0  0  0  0  0  0  0  0  0  0999 V3000
M  V30 BEGIN CTAB
M  V30 COUNTS 52 56 0 0 0
M  V30 BEGIN ATOM
M  V30 1 N 4.560390 -0.173599 3.121014 0
M  V30 2 C 3.829068 -1.387110 3.362175 0
M  V30 3 C 2.382438 -1.250889 2.909330 0
M  V30 4 C 2.381291 -0.952905 1.441517 0
M  V30 5 C 1.012420 -0.802543 0.872801 0
M  V30 6 C 0.526068 0.472245 0.627741 0
M  V30 7 C -0.730098 0.602157 0.122512 0
M  V30 8 C -1.218480 1.879113 -0.122192 0
M  V30 9 C -0.406890 3.061527 0.153445 0
M  V30 10 C 0.351306 3.407987 -0.971225 0
M  V30 11 C 1.204287 4.494133 -0.966908 0
M  V30 12 C 1.267391 5.226162 0.221204 0
M  V30 13 Cl 2.334137 6.619576 0.290470 0
M  V30 14 C 0.528168 4.900271 1.339486 0
M  V30 15 C -0.315370 3.807407 1.301146 0
M  V30 16 Cl -1.327792 3.232306 2.595942 0
M  V30 17 C -2.491417 2.024608 -0.633651 0
M  V30 18 N -3.314101 0.968995 -0.919038 0
M  V30 19 C -2.817988 -0.256925 -0.673264 0
M  V30 20 O -3.662436 -1.120044 -0.974448 0
M  V30 21 C -1.561432 -0.455640 -0.166064 0
M  V30 22 C -1.094245 -1.719171 0.070404 0
M  V30 23 C -1.862995 -2.821255 -0.193335 0
M  V30 24 C -1.402694 -4.099821 0.039060 0
M  V30 25 C -2.157250 -5.336306 -0.211792 0
M  V30 26 C -2.206993 -6.578894 0.349071 0
M  V30 27 N -3.102064 -7.300317 -0.320011 0
M  V30 28 N -3.657290 -6.591383 -1.309963 0
M  V30 29 C -3.082674 -5.368051 -1.258652 0
M  V30 30 C -0.112494 -4.204268 0.556412 0
M  V30 31 C 0.699716 -3.127490 0.838597 0
M  V30 32 C 0.174959 -1.857210 0.581393 0
M  V30 33 H 5.414641 -0.154552 3.753081 0
M  V30 34 H 4.845584 -0.092528 2.133382 0
M  V30 35 H 4.340469 -2.220123 2.847717 0
M  V30 36 H 3.863160 -1.643637 4.443246 0
M  V30 37 H 1.997690 -0.357744 3.470783 0
M  V30 38 H 1.762016 -2.084861 3.234843 0
M  V30 39 H 2.940252 -1.707817 0.866500 0
M  V30 40 H 2.931005 -0.000300 1.308036 0
M  V30 41 H 1.112432 1.378944 0.824256 0
M  V30 42 H 0.356711 2.885839 -1.935374 0
M  V30 43 H 1.805842 4.792222 -1.816284 0
M  V30 44 H 0.549245 5.432774 2.261678 0
M  V30 45 H -2.827789 3.037826 -0.807238 0
M  V30 46 H -4.244116 1.232694 -1.299381 0
M  V30 47 H -2.853416 -2.852200 -0.587015 0
M  V30 48 H -1.573951 -6.808327 1.191013 0
M  V30 49 H -4.383810 -6.883330 -1.998997 0
M  V30 50 H -3.348151 -4.571573 -1.959610 0
M  V30 51 H 0.268578 -5.219597 0.747181 0
M  V30 52 H 1.681014 -3.352914 1.232696 0
M  V30 END ATOM
M  V30 BEGIN BOND
M  V30 1 1 1 2
M  V30 2 1 2 3
M  V30 3 1 3 4
M  V30 4 1 4 5
M  V30 5 2 5 6
M  V30 6 1 6 7
M  V30 7 1 7 8
M  V30 8 1 8 9
M  V30 9 2 9 10
M  V30 10 1 10 11
M  V30 11 2 11 12
M  V30 12 1 12 13
M  V30 13 1 12 14
M  V30 14 2 14 15
M  V30 15 1 15 16
M  V30 16 2 8 17
M  V30 17 1 17 18
M  V30 18 1 18 19
M  V30 19 2 19 20
M  V30 20 1 19 21
M  V30 21 1 21 22
M  V30 22 2 22 23
M  V30 23 1 23 24
M  V30 24 1 24 25
M  V30 25 1 25 26
M  V30 26 2 26 27
M  V30 27 1 27 28
M  V30 28 1 28 29
M  V30 29 2 24 30
M  V30 30 1 30 31
M  V30 31 2 31 32
M  V30 32 1 32 5
M  V30 33 2 21 7
M  V30 34 1 32 22
M  V30 35 1 15 9
M  V30 36 2 29 25
M  V30 37 1 1 33
M  V30 38 1 1 34
M  V30 39 1 2 35
M  V30 40 1 2 36
M  V30 41 1 3 37
M  V30 42 1 3 38
M  V30 43 1 4 39
M  V30 44 1 4 40
M  V30 45 1 6 41
M  V30 46 1 10 42
M  V30 47 1 11 43
M  V30 48 1 14 44
M  V30 49 1 17 45
M  V30 50 1 18 46
M  V30 51 1 23 47
M  V30 52 1 26 48
M  V30 53 1 28 49
M  V30 54 1 29 50
M  V30 55 1 30 51
M  V30 56 1 31 52
M  V30 END BOND
M  V30 END CTAB
M  END
>  <Dataset>  (425) 
ChEMBL_Kinases

>  <Ligand_Instance>  (425) 
nan

>  <PDB_ID>  (425) 
nan

>  <Standardized_SMILES>  (425) 
NCCCc1cc2c(-c3ccc(Cl)cc3Cl)c[nH]c(=O)c2c2cc(-c3cn[nH]c3)ccc12

>  <Name>  (425) 
nan

>  <Pocket>  (425) 
nan

>  <ATP_Site>  (425) 
nan

>  <Peripheral>  (425) 
nan

>  <Num_H_Atoms_ProtBoundConf>  (425) 
nan

>  <Num_Resolved_Atoms>  (425) 
nan

>  <Num_Not_Resolved_Atoms>  (425) 
nan

$$$$
CHEMBL250453
     RDKit          3D

  0  0  0  0  0  0  0  0  0  0999 V3000
M  V30 BEGIN CTAB
M  V30 COUNTS 33 35 0 0 0
M  V30 BEGIN ATOM
M  V30 1 C 1.833728 -3.008505 5.526311 0
M  V30 2 C 1.331506 -3.111675 4.132644 0
M  V30 3 O 0.107570 -3.436124 4.014115 0
M  V30 4 N 2.215005 -2.850996 3.029715 0
M  V30 5 C 1.617722 -2.981933 1.742034 0
M  V30 6 N 1.589124 -4.128599 1.035649 0
M  V30 7 C 0.999126 -4.160244 -0.181115 0
M  V30 8 C 0.407210 -3.037235 -0.748983 0
M  V30 9 C 0.455421 -1.881476 0.002400 0
M  V30 10 C -0.138082 -0.643006 -0.503399 0
M  V30 11 C -0.775331 -0.504023 -1.719750 0
M  V30 12 C -1.197476 0.821272 -1.828278 0
M  V30 13 C -0.794150 1.410557 -0.675522 0
M  V30 14 N -0.152835 0.534140 0.132156 0
M  V30 15 C -1.022544 2.836585 -0.333377 0
M  V30 16 C -1.959231 3.524164 -1.250805 0
M  V30 17 N -2.140813 2.951036 -2.541052 0
M  V30 18 C -1.908500 1.588895 -2.839118 0
M  V30 19 O -2.270283 1.016554 -3.897884 0
M  V30 20 N 1.052757 -1.896014 1.207962 0
M  V30 21 H 2.921519 -2.961098 5.588070 0
M  V30 22 H 1.376053 -3.761403 6.198965 0
M  V30 23 H 1.458566 -2.017824 5.913414 0
M  V30 24 H 3.201251 -2.591948 3.232496 0
M  V30 25 H 0.976917 -5.073983 -0.742844 0
M  V30 26 H -0.061479 -3.077036 -1.723851 0
M  V30 27 H -0.924595 -1.281647 -2.462714 0
M  V30 28 H 0.281303 0.666210 1.089026 0
M  V30 29 H -0.037974 3.388871 -0.322933 0
M  V30 30 H -1.376023 2.943262 0.729526 0
M  V30 31 H -1.682266 4.615804 -1.295354 0
M  V30 32 H -2.973481 3.541000 -0.752873 0
M  V30 33 H -2.468735 3.584348 -3.319525 0
M  V30 END ATOM
M  V30 BEGIN BOND
M  V30 1 1 1 2
M  V30 2 2 2 3
M  V30 3 1 2 4
M  V30 4 1 4 5
M  V30 5 2 5 6
M  V30 6 1 6 7
M  V30 7 2 7 8
M  V30 8 1 8 9
M  V30 9 1 9 10
M  V30 10 2 10 11
M  V30 11 1 11 12
M  V30 12 2 12 13
M  V30 13 1 13 14
M  V30 14 1 13 15
M  V30 15 1 15 16
M  V30 16 1 16 17
M  V30 17 1 17 18
M  V30 18 2 18 19
M  V30 19 2 9 20
M  V30 20 1 20 5
M  V30 21 1 14 10
M  V30 22 1 18 12
M  V30 23 1 1 21
M  V30 24 1 1 22
M  V30 25 1 1 23
M  V30 26 1 4 24
M  V30 27 1 7 25
M  V30 28 1 8 26
M  V30 29 1 11 27
M  V30 30 1 14 28
M  V30 31 1 15 29
M  V30 32 1 15 30
M  V30 33 1 16 31
M  V30 34 1 16 32
M  V30 35 1 17 33
M  V30 END BOND
M  V30 END CTAB
M  END
>  <Dataset>  (426) 
ChEMBL_Kinases

>  <Ligand_Instance>  (426) 
nan

>  <PDB_ID>  (426) 
nan

>  <Standardized_SMILES>  (426) 
CC(=O)Nc1nccc(-c2cc3c([nH]2)CCNC3=O)n1

>  <Name>  (426) 
nan

>  <Pocket>  (426) 
nan

>  <ATP_Site>  (426) 
nan

>  <Peripheral>  (426) 
nan

>  <Num_H_Atoms_ProtBoundConf>  (426) 
nan

>  <Num_Resolved_Atoms>  (426) 
nan

>  <Num_Not_Resolved_Atoms>  (426) 
nan

$$$$
CHEMBL250391
     RDKit          3D

  0  0  0  0  0  0  0  0  0  0999 V3000
M  V30 BEGIN CTAB
M  V30 COUNTS 59 63 0 0 0
M  V30 BEGIN ATOM
M  V30 1 C 3.054071 -1.453979 5.297400 0
M  V30 2 N 4.214152 -1.530053 4.469436 0
M  V30 3 C 4.463849 -2.825071 3.913419 0
M  V30 4 C 4.436016 -0.445768 3.577571 0
M  V30 5 C 3.398413 -0.181097 2.588172 0
M  V30 6 C 2.326175 0.650170 2.745316 0
M  V30 7 C 1.379046 0.860106 1.775842 0
M  V30 8 N 1.457754 0.239849 0.582327 0
M  V30 9 C 0.734607 0.207504 -0.564883 0
M  V30 10 C -0.479767 0.996247 -0.711146 0
M  V30 11 C -0.507604 1.974769 -1.682385 0
M  V30 12 C -1.666016 2.709623 -1.803700 0
M  V30 13 N -2.719401 2.492091 -1.021361 0
M  V30 14 C -2.707333 1.533538 -0.061796 0
M  V30 15 N -3.836691 1.312335 0.766128 0
M  V30 16 C -3.950079 0.331744 1.810881 0
M  V30 17 C -3.791741 -1.060856 1.348528 0
M  V30 18 C -4.920664 -1.523953 0.672918 0
M  V30 19 F -6.044772 -0.798081 0.450800 0
M  V30 20 C -4.977716 -2.805309 0.161219 0
M  V30 21 C -3.914910 -3.672166 0.302684 0
M  V30 22 C -2.819086 -3.203350 0.965912 0
M  V30 23 C -2.728035 -1.945409 1.483839 0
M  V30 24 F -1.685483 -1.400472 2.156313 0
M  V30 25 N -1.585149 0.840460 0.036819 0
M  V30 26 C 1.317861 -0.636369 -1.478005 0
M  V30 27 C 0.828752 -0.927633 -2.822923 0
M  V30 28 C -0.426920 -1.541245 -2.752771 0
M  V30 29 C -1.088027 -1.910549 -3.928721 0
M  V30 30 C -0.468691 -1.652670 -5.138210 0
M  V30 31 F -1.093842 -2.003722 -6.298036 0
M  V30 32 C 0.773522 -1.045368 -5.200895 0
M  V30 33 C 1.426595 -0.680672 -4.041726 0
M  V30 34 N 2.419258 -1.119788 -0.856506 0
M  V30 35 C 2.507747 -0.591190 0.392515 0
M  V30 36 C 3.475160 -0.821482 1.349171 0
M  V30 37 H 2.615447 -0.462238 5.388976 0
M  V30 38 H 2.314120 -2.217488 4.916540 0
M  V30 39 H 3.315025 -1.803294 6.317799 0
M  V30 40 H 3.582568 -3.370088 3.580964 0
M  V30 41 H 5.236544 -2.694926 3.113487 0
M  V30 42 H 4.962442 -3.442100 4.689009 0
M  V30 43 H 4.547005 0.491236 4.196563 0
M  V30 44 H 5.428810 -0.602755 3.109153 0
M  V30 45 H 2.215593 1.167522 3.673593 0
M  V30 46 H 0.559112 1.514270 1.935094 0
M  V30 47 H 0.353207 2.145853 -2.314798 0
M  V30 48 H -1.722043 3.498265 -2.568538 0
M  V30 49 H -4.688456 1.927857 0.605561 0
M  V30 50 H -4.915110 0.392503 2.351237 0
M  V30 51 H -3.177039 0.495738 2.612618 0
M  V30 52 H -5.845217 -3.200935 -0.373010 0
M  V30 53 H -3.910778 -4.692896 -0.083010 0
M  V30 54 H -1.935614 -3.839805 1.115353 0
M  V30 55 H -0.990773 -1.784273 -1.873525 0
M  V30 56 H -2.058092 -2.387523 -3.949753 0
M  V30 57 H 1.293965 -0.825174 -6.124353 0
M  V30 58 H 2.391871 -0.203195 -3.945421 0
M  V30 59 H 4.295233 -1.493672 1.151861 0
M  V30 END ATOM
M  V30 BEGIN BOND
M  V30 1 1 1 2
M  V30 2 1 2 3
M  V30 3 1 2 4
M  V30 4 1 4 5
M  V30 5 1 5 6
M  V30 6 2 6 7
M  V30 7 1 7 8
M  V30 8 1 8 9
M  V30 9 1 9 10
M  V30 10 2 10 11
M  V30 11 1 11 12
M  V30 12 2 12 13
M  V30 13 1 13 14
M  V30 14 1 14 15
M  V30 15 1 15 16
M  V30 16 1 16 17
M  V30 17 2 17 18
M  V30 18 1 18 19
M  V30 19 1 18 20
M  V30 20 2 20 21
M  V30 21 1 21 22
M  V30 22 2 22 23
M  V30 23 1 23 24
M  V30 24 2 14 25
M  V30 25 2 9 26
M  V30 26 1 26 27
M  V30 27 2 27 28
M  V30 28 1 28 29
M  V30 29 2 29 30
M  V30 30 1 30 31
M  V30 31 1 30 32
M  V30 32 2 32 33
M  V30 33 1 26 34
M  V30 34 2 34 35
M  V30 35 1 35 36
M  V30 36 2 36 5
M  V30 37 1 35 8
M  V30 38 1 25 10
M  V30 39 1 33 27
M  V30 40 1 23 17
M  V30 41 1 1 37
M  V30 42 1 1 38
M  V30 43 1 1 39
M  V30 44 1 3 40
M  V30 45 1 3 41
M  V30 46 1 3 42
M  V30 47 1 4 43
M  V30 48 1 4 44
M  V30 49 1 6 45
M  V30 50 1 7 46
M  V30 51 1 11 47
M  V30 52 1 12 48
M  V30 53 1 15 49
M  V30 54 1 16 50
M  V30 55 1 16 51
M  V30 56 1 20 52
M  V30 57 1 21 53
M  V30 58 1 22 54
M  V30 59 1 28 55
M  V30 60 1 29 56
M  V30 61 1 32 57
M  V30 62 1 33 58
M  V30 63 1 36 59
M  V30 END BOND
M  V30 END CTAB
M  END
>  <Dataset>  (427) 
ChEMBL_Kinases

>  <Ligand_Instance>  (427) 
nan

>  <PDB_ID>  (427) 
nan

>  <Standardized_SMILES>  (427) 
CN(C)Cc1ccn2c(-c3ccnc(NCc4c(F)cccc4F)n3)c(-c3ccc(F)cc3)nc2c1

>  <Name>  (427) 
nan

>  <Pocket>  (427) 
nan

>  <ATP_Site>  (427) 
nan

>  <Peripheral>  (427) 
nan

>  <Num_H_Atoms_ProtBoundConf>  (427) 
nan

>  <Num_Resolved_Atoms>  (427) 
nan

>  <Num_Not_Resolved_Atoms>  (427) 
nan

$$$$
CHEMBL250386
     RDKit          3D

  0  0  0  0  0  0  0  0  0  0999 V3000
M  V30 BEGIN CTAB
M  V30 COUNTS 32 34 0 0 0
M  V30 BEGIN ATOM
M  V30 1 C -1.628495 -2.393265 5.539817 0
M  V30 2 O -0.816561 -2.831592 4.469633 0
M  V30 3 C -0.538337 -2.021072 3.379231 0
M  V30 4 C 0.257216 -2.421660 2.323198 0
M  V30 5 C 0.470949 -1.537427 1.295174 0
M  V30 6 N 1.283102 -1.838507 0.191221 0
M  V30 7 C 1.398908 -2.055005 -1.234587 0
M  V30 8 C 0.991979 -0.824942 -1.987160 0
M  V30 9 C 2.062407 0.058909 -2.054229 0
M  V30 10 C 1.918804 1.284492 -2.719207 0
M  V30 11 C 0.678898 1.504551 -3.265079 0
M  V30 12 N -0.337951 0.625238 -3.183755 0
M  V30 13 C -0.227416 -0.541485 -2.558708 0
M  V30 14 N -0.094092 -0.291765 1.317361 0
M  V30 15 N -0.062595 0.739489 0.473835 0
M  V30 16 C -0.807715 1.743444 0.987170 0
M  V30 17 C -1.349203 1.375013 2.195994 0
M  V30 18 Br -2.474883 2.387573 3.359954 0
M  V30 19 C -0.871831 0.090213 2.356874 0
M  V30 20 N -1.059976 -0.792376 3.343530 0
M  V30 21 H -2.694493 -2.581473 5.307399 0
M  V30 22 H -1.508585 -1.274674 5.598616 0
M  V30 23 H -1.281748 -2.876890 6.475292 0
M  V30 24 H 0.691312 -3.409781 2.324570 0
M  V30 25 H 2.232259 -1.965018 0.663360 0
M  V30 26 H 0.650666 -2.839866 -1.505810 0
M  V30 27 H 2.372616 -2.415177 -1.550516 0
M  V30 28 H 3.061952 -0.082704 -1.630248 0
M  V30 29 H 2.737114 2.006193 -2.791755 0
M  V30 30 H 0.535949 2.450381 -3.787445 0
M  V30 31 H -0.941171 -1.329242 -2.418721 0
M  V30 32 H -0.951192 2.714129 0.492363 0
M  V30 END ATOM
M  V30 BEGIN BOND
M  V30 1 1 1 2
M  V30 2 1 2 3
M  V30 3 1 3 4
M  V30 4 2 4 5
M  V30 5 1 5 6
M  V30 6 1 6 7
M  V30 7 1 7 8
M  V30 8 2 8 9
M  V30 9 1 9 10
M  V30 10 2 10 11
M  V30 11 1 11 12
M  V30 12 2 12 13
M  V30 13 1 5 14
M  V30 14 1 14 15
M  V30 15 2 15 16
M  V30 16 1 16 17
M  V30 17 1 17 18
M  V30 18 2 17 19
M  V30 19 1 19 20
M  V30 20 2 20 3
M  V30 21 1 13 8
M  V30 22 1 19 14
M  V30 23 1 1 21
M  V30 24 1 1 22
M  V30 25 1 1 23
M  V30 26 1 4 24
M  V30 27 1 6 25
M  V30 28 1 7 26
M  V30 29 1 7 27
M  V30 30 1 9 28
M  V30 31 1 10 29
M  V30 32 1 11 30
M  V30 33 1 13 31
M  V30 34 1 16 32
M  V30 END BOND
M  V30 END CTAB
M  END
>  <Dataset>  (428) 
ChEMBL_Kinases

>  <Ligand_Instance>  (428) 
nan

>  <PDB_ID>  (428) 
nan

>  <Standardized_SMILES>  (428) 
COc1cc(NCc2cccnc2)n2ncc(Br)c2n1

>  <Name>  (428) 
nan

>  <Pocket>  (428) 
nan

>  <ATP_Site>  (428) 
nan

>  <Peripheral>  (428) 
nan

>  <Num_H_Atoms_ProtBoundConf>  (428) 
nan

>  <Num_Resolved_Atoms>  (428) 
nan

>  <Num_Not_Resolved_Atoms>  (428) 
nan

$$$$
CHEMBL250369
     RDKit          3D

  0  0  0  0  0  0  0  0  0  0999 V3000
M  V30 BEGIN CTAB
M  V30 COUNTS 37 39 0 0 0
M  V30 BEGIN ATOM
M  V30 1 C 0.696661 -3.806026 4.163101 0
M  V30 2 C -0.434022 -2.910927 3.637865 0
M  V30 3 C -1.679928 -3.774922 3.627825 0
M  V30 4 C -0.140093 -2.460163 2.255042 0
M  V30 5 C -0.020487 -1.124817 1.929204 0
M  V30 6 C 0.253817 -0.733360 0.632490 0
M  V30 7 N 0.385054 0.616262 0.250951 0
M  V30 8 C 0.672875 1.037039 -1.106851 0
M  V30 9 C 0.760857 2.512167 -1.246013 0
M  V30 10 C -0.318002 3.349022 -1.545170 0
M  V30 11 C -0.066187 4.711624 -1.640462 0
M  V30 12 C 1.175448 5.270727 -1.457504 0
M  V30 13 N 2.225206 4.448880 -1.165613 0
M  V30 14 C 2.008205 3.119887 -1.067087 0
M  V30 15 N 0.389979 -1.750406 -0.260319 0
M  V30 16 N 0.655686 -1.616058 -1.566801 0
M  V30 17 C 0.705799 -2.866367 -2.075616 0
M  V30 18 C 0.473634 -3.809562 -1.103945 0
M  V30 19 Br 0.436343 -5.690704 -1.303623 0
M  V30 20 C 0.279955 -3.064674 0.021763 0
M  V30 21 N 0.008323 -3.410920 1.314318 0
M  V30 22 H 0.273148 -4.572508 4.814027 0
M  V30 23 H 1.149717 -4.272601 3.250405 0
M  V30 24 H 1.491037 -3.185790 4.623823 0
M  V30 25 H -0.537988 -2.047162 4.335091 0
M  V30 26 H -2.528026 -3.319688 3.082695 0
M  V30 27 H -1.404410 -4.690198 3.033692 0
M  V30 28 H -1.937342 -4.139703 4.621068 0
M  V30 29 H -0.145485 -0.387275 2.708492 0
M  V30 30 H 0.266201 1.337703 0.995120 0
M  V30 31 H -0.075763 0.635256 -1.826890 0
M  V30 32 H 1.648945 0.620466 -1.429553 0
M  V30 33 H -1.274642 2.883488 -1.682458 0
M  V30 34 H -0.897029 5.344398 -1.869601 0
M  V30 35 H 1.328401 6.343872 -1.541399 0
M  V30 36 H 2.862114 2.476597 -0.832321 0
M  V30 37 H 0.909644 -3.029981 -3.132776 0
M  V30 END ATOM
M  V30 BEGIN BOND
M  V30 1 1 1 2
M  V30 2 1 2 3
M  V30 3 1 2 4
M  V30 4 1 4 5
M  V30 5 2 5 6
M  V30 6 1 6 7
M  V30 7 1 7 8
M  V30 8 1 8 9
M  V30 9 2 9 10
M  V30 10 1 10 11
M  V30 11 2 11 12
M  V30 12 1 12 13
M  V30 13 2 13 14
M  V30 14 1 6 15
M  V30 15 1 15 16
M  V30 16 2 16 17
M  V30 17 1 17 18
M  V30 18 1 18 19
M  V30 19 2 18 20
M  V30 20 1 20 21
M  V30 21 2 21 4
M  V30 22 1 14 9
M  V30 23 1 20 15
M  V30 24 1 1 22
M  V30 25 1 1 23
M  V30 26 1 1 24
M  V30 27 1 2 25
M  V30 28 1 3 26
M  V30 29 1 3 27
M  V30 30 1 3 28
M  V30 31 1 5 29
M  V30 32 1 7 30
M  V30 33 1 8 31
M  V30 34 1 8 32
M  V30 35 1 10 33
M  V30 36 1 11 34
M  V30 37 1 12 35
M  V30 38 1 14 36
M  V30 39 1 17 37
M  V30 END BOND
M  V30 END CTAB
M  END
>  <Dataset>  (429) 
ChEMBL_Kinases

>  <Ligand_Instance>  (429) 
nan

>  <PDB_ID>  (429) 
nan

>  <Standardized_SMILES>  (429) 
CC(C)c1cc(NCc2cccnc2)n2ncc(Br)c2n1

>  <Name>  (429) 
nan

>  <Pocket>  (429) 
nan

>  <ATP_Site>  (429) 
nan

>  <Peripheral>  (429) 
nan

>  <Num_H_Atoms_ProtBoundConf>  (429) 
nan

>  <Num_Resolved_Atoms>  (429) 
nan

>  <Num_Not_Resolved_Atoms>  (429) 
nan

$$$$
CHEMBL250364
     RDKit          3D

  0  0  0  0  0  0  0  0  0  0999 V3000
M  V30 BEGIN CTAB
M  V30 COUNTS 49 52 0 0 0
M  V30 BEGIN ATOM
M  V30 1 C 1.050470 -8.457868 -0.033539 0
M  V30 2 S 2.249248 -7.355535 -0.796441 0
M  V30 3 O 3.497930 -7.458818 0.070392 0
M  V30 4 O 2.509729 -7.760988 -2.202469 0
M  V30 5 C 1.678469 -5.692979 -0.669452 0
M  V30 6 C 2.018882 -4.894605 0.424168 0
M  V30 7 C 1.569752 -3.574808 0.534494 0
M  V30 8 C 0.758199 -3.042554 -0.479297 0
M  V30 9 C 0.319240 -1.657890 -0.315482 0
M  V30 10 C 1.207349 -0.830406 0.340169 0
M  V30 11 C 0.841583 0.493849 0.532477 0
M  V30 12 C -0.369236 0.977788 0.086356 0
M  V30 13 C -0.734575 2.301237 0.284863 0
M  V30 14 N 0.196855 3.137965 0.956656 0
M  V30 15 C 0.173650 3.136784 2.386017 0
M  V30 16 C 0.980840 3.946747 3.163349 0
M  V30 17 C 0.959664 3.936831 4.543878 0
M  V30 18 C 0.095753 3.081470 5.201995 0
M  V30 19 C -0.741138 2.242303 4.478110 0
M  V30 20 C -0.673545 2.298937 3.103587 0
M  V30 21 C -1.945004 2.744694 -0.166927 0
M  V30 22 C -2.336993 4.114711 0.032757 0
M  V30 23 N -3.604342 4.613364 -0.436576 0
M  V30 24 O -1.676840 5.017433 0.606575 0
M  V30 25 C -2.817570 1.904861 -0.819468 0
M  V30 26 N -2.462573 0.610824 -1.014511 0
M  V30 27 C -1.272479 0.154660 -0.575555 0
M  V30 28 C -0.903265 -1.165074 -0.765206 0
M  V30 29 C 0.413770 -3.821647 -1.566935 0
M  V30 30 C 0.874258 -5.131119 -1.651118 0
M  V30 31 H 1.582561 -9.328111 0.344193 0
M  V30 32 H 0.491324 -7.867840 0.720342 0
M  V30 33 H 0.301183 -8.688630 -0.845846 0
M  V30 34 H 2.643510 -5.387918 1.148876 0
M  V30 35 H 1.876485 -3.001847 1.425057 0
M  V30 36 H 2.178963 -1.111904 0.726993 0
M  V30 37 H 1.499246 1.181614 1.037523 0
M  V30 38 H 0.905417 3.761647 0.513710 0
M  V30 39 H 1.666914 4.626074 2.659042 0
M  V30 40 H 1.600145 4.579128 5.133854 0
M  V30 41 H 0.004376 2.999007 6.272319 0
M  V30 42 H -1.443845 1.545489 4.943873 0
M  V30 43 H -1.314512 1.655827 2.523887 0
M  V30 44 H -3.759946 5.587734 -0.786242 0
M  V30 45 H -4.536614 4.193346 -0.530817 0
M  V30 46 H -3.775446 2.243862 -1.180359 0
M  V30 47 H -1.566370 -1.865007 -1.278288 0
M  V30 48 H -0.214959 -3.361215 -2.319953 0
M  V30 49 H 0.596388 -5.738873 -2.515428 0
M  V30 END ATOM
M  V30 BEGIN BOND
M  V30 1 1 1 2
M  V30 2 2 2 3
M  V30 3 2 2 4
M  V30 4 1 2 5
M  V30 5 2 5 6
M  V30 6 1 6 7
M  V30 7 2 7 8
M  V30 8 1 8 9
M  V30 9 2 9 10
M  V30 10 1 10 11
M  V30 11 2 11 12
M  V30 12 1 12 13
M  V30 13 1 13 14
M  V30 14 1 14 15
M  V30 15 2 15 16
M  V30 16 1 16 17
M  V30 17 2 17 18
M  V30 18 1 18 19
M  V30 19 2 19 20
M  V30 20 2 13 21
M  V30 21 1 21 22
M  V30 22 1 22 23
M  V30 23 2 22 24
M  V30 24 1 21 25
M  V30 25 2 25 26
M  V30 26 1 26 27
M  V30 27 2 27 28
M  V30 28 1 8 29
M  V30 29 2 29 30
M  V30 30 1 30 5
M  V30 31 1 28 9
M  V30 32 1 27 12
M  V30 33 1 20 15
M  V30 34 1 1 31
M  V30 35 1 1 32
M  V30 36 1 1 33
M  V30 37 1 6 34
M  V30 38 1 7 35
M  V30 39 1 10 36
M  V30 40 1 11 37
M  V30 41 1 14 38
M  V30 42 1 16 39
M  V30 43 1 17 40
M  V30 44 1 18 41
M  V30 45 1 19 42
M  V30 46 1 20 43
M  V30 47 1 23 44
M  V30 48 1 23 45
M  V30 49 1 25 46
M  V30 50 1 28 47
M  V30 51 1 29 48
M  V30 52 1 30 49
M  V30 END BOND
M  V30 END CTAB
M  END
>  <Dataset>  (430) 
ChEMBL_Kinases

>  <Ligand_Instance>  (430) 
nan

>  <PDB_ID>  (430) 
nan

>  <Standardized_SMILES>  (430) 
CS(=O)(=O)c1ccc(-c2ccc3c(Nc4ccccc4)c(C(N)=O)cnc3c2)cc1

>  <Name>  (430) 
nan

>  <Pocket>  (430) 
nan

>  <ATP_Site>  (430) 
nan

>  <Peripheral>  (430) 
nan

>  <Num_H_Atoms_ProtBoundConf>  (430) 
nan

>  <Num_Resolved_Atoms>  (430) 
nan

>  <Num_Not_Resolved_Atoms>  (430) 
nan

$$$$
CHEMBL250361
     RDKit          3D

  0  0  0  0  0  0  0  0  0  0999 V3000
M  V30 BEGIN CTAB
M  V30 COUNTS 50 53 0 0 0
M  V30 BEGIN ATOM
M  V30 1 C 6.001432 -3.514489 -0.493629 0
M  V30 2 C 6.268734 -2.292797 0.311715 0
M  V30 3 O 7.064822 -2.290823 1.286704 0
M  V30 4 N 5.684856 -1.035200 0.089502 0
M  V30 5 C 6.111472 0.010775 1.021215 0
M  V30 6 C 6.005131 1.392572 0.380114 0
M  V30 7 C 4.555546 1.751205 0.163566 0
M  V30 8 C 3.833430 0.438273 -0.128678 0
M  V30 9 O 2.611823 0.643480 -0.758420 0
M  V30 10 C 1.368047 0.316415 -0.245193 0
M  V30 11 C 0.970079 -0.262909 0.941176 0
M  V30 12 C -0.369787 -0.476312 1.194917 0
M  V30 13 C -1.342253 -0.121814 0.282168 0
M  V30 14 C -2.752282 -0.360828 0.580273 0
M  V30 15 N -3.229214 -0.919348 1.708979 0
M  V30 16 C -4.572947 -0.993981 1.663252 0
M  V30 17 C -5.531090 -1.468415 2.537040 0
M  V30 18 C -6.868655 -1.404404 2.193842 0
M  V30 19 C -7.839824 -1.919086 3.152062 0
M  V30 20 N -9.235591 -1.898026 2.892585 0
M  V30 21 O -7.444460 -2.398691 4.244517 0
M  V30 22 C -7.231640 -0.873546 0.995745 0
M  V30 23 C -6.251866 -0.401141 0.129636 0
M  V30 24 C -4.892658 -0.447999 0.439206 0
M  V30 25 N -3.783625 -0.057967 -0.229840 0
M  V30 26 C -0.972143 0.460026 -0.913904 0
M  V30 27 C 0.384829 0.677925 -1.174696 0
M  V30 28 C 4.737598 -0.523691 -0.869549 0
M  V30 29 H 5.179939 -4.119574 -0.041212 0
M  V30 30 H 6.897193 -4.185870 -0.521932 0
M  V30 31 H 5.659963 -3.251028 -1.513395 0
M  V30 32 H 5.487047 -0.012521 1.935146 0
M  V30 33 H 7.158240 -0.126883 1.299244 0
M  V30 34 H 6.452733 2.086086 1.128060 0
M  V30 35 H 6.548462 1.447690 -0.563149 0
M  V30 36 H 4.079801 2.170014 1.074055 0
M  V30 37 H 4.402874 2.431408 -0.697292 0
M  V30 38 H 3.656305 -0.032597 0.858512 0
M  V30 39 H 1.817384 -0.492984 1.566730 0
M  V30 40 H -0.595957 -0.934124 2.145975 0
M  V30 41 H -5.133511 -1.874234 3.471400 0
M  V30 42 H -9.573999 -1.869451 1.905662 0
M  V30 43 H -9.916199 -1.910959 3.678590 0
M  V30 44 H -8.255769 -0.819409 0.721966 0
M  V30 45 H -6.561977 0.016407 -0.816489 0
M  V30 46 H -3.746575 0.380046 -1.166711 0
M  V30 47 H -1.768787 0.717967 -1.591754 0
M  V30 48 H 0.522233 1.143860 -2.156992 0
M  V30 49 H 4.096051 -1.374689 -1.190457 0
M  V30 50 H 5.216308 -0.059798 -1.750997 0
M  V30 END ATOM
M  V30 BEGIN BOND
M  V30 1 1 1 2
M  V30 2 2 2 3
M  V30 3 1 2 4
M  V30 4 1 4 5
M  V30 5 1 5 6
M  V30 6 1 6 7
M  V30 7 1 7 8
M  V30 8 1 8 9
M  V30 9 1 9 10
M  V30 10 2 10 11
M  V30 11 1 11 12
M  V30 12 2 12 13
M  V30 13 1 13 14
M  V30 14 2 14 15
M  V30 15 1 15 16
M  V30 16 2 16 17
M  V30 17 1 17 18
M  V30 18 1 18 19
M  V30 19 1 19 20
M  V30 20 2 19 21
M  V30 21 2 18 22
M  V30 22 1 22 23
M  V30 23 2 23 24
M  V30 24 1 24 25
M  V30 25 1 13 26
M  V30 26 2 26 27
M  V30 27 1 8 28
M  V30 28 1 28 4
M  V30 29 1 27 10
M  V30 30 1 25 14
M  V30 31 1 24 16
M  V30 32 1 1 29
M  V30 33 1 1 30
M  V30 34 1 1 31
M  V30 35 1 5 32
M  V30 36 1 5 33
M  V30 37 1 6 34
M  V30 38 1 6 35
M  V30 39 1 7 36
M  V30 40 1 7 37
M  V30 41 1 8 38
M  V30 42 1 11 39
M  V30 43 1 12 40
M  V30 44 1 17 41
M  V30 45 1 20 42
M  V30 46 1 20 43
M  V30 47 1 22 44
M  V30 48 1 23 45
M  V30 49 1 25 46
M  V30 50 1 26 47
M  V30 51 1 27 48
M  V30 52 1 28 49
M  V30 53 1 28 50
M  V30 END BOND
M  V30 END CTAB
M  END
>  <Dataset>  (431) 
ChEMBL_Kinases

>  <Ligand_Instance>  (431) 
nan

>  <PDB_ID>  (431) 
nan

>  <Standardized_SMILES>  (431) 
CC(=O)N1CCCC(Oc2ccc(-c3nc4cc(C(N)=O)ccc4[nH]3)cc2)C1

>  <Name>  (431) 
nan

>  <Pocket>  (431) 
nan

>  <ATP_Site>  (431) 
nan

>  <Peripheral>  (431) 
nan

>  <Num_H_Atoms_ProtBoundConf>  (431) 
nan

>  <Num_Resolved_Atoms>  (431) 
nan

>  <Num_Not_Resolved_Atoms>  (431) 
nan

$$$$
CHEMBL250360
     RDKit          3D

  0  0  0  0  0  0  0  0  0  0999 V3000
M  V30 BEGIN CTAB
M  V30 COUNTS 63 67 0 0 0
M  V30 BEGIN ATOM
M  V30 1 N 9.273482 -2.367854 0.505866 0
M  V30 2 C 8.529527 -1.294913 -0.041304 0
M  V30 3 O 9.202149 -0.501953 -0.747040 0
M  V30 4 C 7.109556 -1.281366 0.300554 0
M  V30 5 C 6.491849 -2.235083 1.114301 0
M  V30 6 C 5.142185 -2.085099 1.342050 0
M  V30 7 C 4.409376 -1.035826 0.793851 0
M  V30 8 N 3.109934 -0.693796 0.879363 0
M  V30 9 C 2.868563 0.430691 0.159602 0
M  V30 10 C 1.560904 1.070340 0.052233 0
M  V30 11 C 0.517428 0.478678 0.752173 0
M  V30 12 C -0.724828 1.064588 0.677220 0
M  V30 13 C -1.015848 2.206791 -0.049109 0
M  V30 14 O -2.156361 2.924281 -0.248069 0
M  V30 15 C -3.420830 2.627475 0.269062 0
M  V30 16 C -3.990414 1.332319 -0.255483 0
M  V30 17 C -5.341644 1.019176 0.341947 0
M  V30 18 C -5.821794 -0.293418 -0.244368 0
M  V30 19 C -4.826769 -1.355695 0.075066 0
M  V30 20 N -4.129696 -1.134685 1.347568 0
M  V30 21 C -2.971402 -1.922687 1.619772 0
M  V30 22 O -2.285541 -1.827988 2.681475 0
M  V30 23 C -2.406878 -2.930634 0.751037 0
M  V30 24 C -2.412148 -4.318293 0.949043 0
M  V30 25 C -1.825999 -5.161195 0.012363 0
M  V30 26 C -1.225184 -4.650186 -1.132934 0
M  V30 27 C -1.184111 -3.280873 -1.390862 0
M  V30 28 C -1.793495 -2.498152 -0.406139 0
M  V30 29 C -4.495371 -0.174354 2.376043 0
M  V30 30 C -5.300017 0.960277 1.842692 0
M  V30 31 C 0.081071 2.721339 -0.709827 0
M  V30 32 C 1.362883 2.210674 -0.697514 0
M  V30 33 N 4.056771 0.760257 -0.363644 0
M  V30 34 C 5.021989 -0.089263 -0.013906 0
M  V30 35 C 6.377108 -0.245487 -0.238000 0
M  V30 36 H 9.206602 -3.355328 0.836483 0
M  V30 37 H 10.148499 -2.804117 0.859342 0
M  V30 38 H 7.113959 -3.028105 1.508537 0
M  V30 39 H 4.674549 -2.836867 1.978400 0
M  V30 40 H 2.443400 -1.283184 1.452372 0
M  V30 41 H 0.616335 -0.405813 1.349497 0
M  V30 42 H -1.527700 0.631486 1.229504 0
M  V30 43 H -3.355874 2.543932 1.396644 0
M  V30 44 H -4.134892 3.476599 0.079615 0
M  V30 45 H -3.329890 0.494966 -0.111901 0
M  V30 46 H -4.186916 1.469910 -1.362347 0
M  V30 47 H -6.048398 1.800103 0.006858 0
M  V30 48 H -6.799810 -0.592412 0.178528 0
M  V30 49 H -5.924325 -0.183067 -1.324613 0
M  V30 50 H -4.118118 -1.403593 -0.778877 0
M  V30 51 H -5.365714 -2.343782 0.075668 0
M  V30 52 H -2.893074 -4.647179 1.852444 0
M  V30 53 H -1.848562 -6.228266 0.194773 0
M  V30 54 H -0.764962 -5.322105 -1.870147 0
M  V30 55 H -0.737159 -2.840361 -2.254075 0
M  V30 56 H -1.750197 -1.419131 -0.622935 0
M  V30 57 H -3.547489 0.228060 2.807540 0
M  V30 58 H -5.001240 -0.747921 3.182787 0
M  V30 59 H -5.043118 1.933804 2.282909 0
M  V30 60 H -6.368161 0.774693 2.176448 0
M  V30 61 H 0.034406 3.626244 -1.332646 0
M  V30 62 H 2.205644 2.619749 -1.216653 0
M  V30 63 H 6.860291 0.481031 -0.858939 0
M  V30 END ATOM
M  V30 BEGIN BOND
M  V30 1 1 1 2
M  V30 2 2 2 3
M  V30 3 1 2 4
M  V30 4 2 4 5
M  V30 5 1 5 6
M  V30 6 2 6 7
M  V30 7 1 7 8
M  V30 8 1 8 9
M  V30 9 1 9 10
M  V30 10 2 10 11
M  V30 11 1 11 12
M  V30 12 2 12 13
M  V30 13 1 13 14
M  V30 14 1 14 15
M  V30 15 1 15 16
M  V30 16 1 16 17
M  V30 17 1 17 18
M  V30 18 1 18 19
M  V30 19 1 19 20
M  V30 20 1 20 21
M  V30 21 2 21 22
M  V30 22 1 21 23
M  V30 23 2 23 24
M  V30 24 1 24 25
M  V30 25 2 25 26
M  V30 26 1 26 27
M  V30 27 2 27 28
M  V30 28 1 20 29
M  V30 29 1 29 30
M  V30 30 1 13 31
M  V30 31 2 31 32
M  V30 32 2 9 33
M  V30 33 1 33 34
M  V30 34 2 34 35
M  V30 35 1 35 4
M  V30 36 1 34 7
M  V30 37 1 32 10
M  V30 38 1 30 17
M  V30 39 1 28 23
M  V30 40 1 1 36
M  V30 41 1 1 37
M  V30 42 1 5 38
M  V30 43 1 6 39
M  V30 44 1 8 40
M  V30 45 1 11 41
M  V30 46 1 12 42
M  V30 47 1 15 43
M  V30 48 1 15 44
M  V30 49 1 16 45
M  V30 50 1 16 46
M  V30 51 1 17 47
M  V30 52 1 18 48
M  V30 53 1 18 49
M  V30 54 1 19 50
M  V30 55 1 19 51
M  V30 56 1 24 52
M  V30 57 1 25 53
M  V30 58 1 26 54
M  V30 59 1 27 55
M  V30 60 1 28 56
M  V30 61 1 29 57
M  V30 62 1 29 58
M  V30 63 1 30 59
M  V30 64 1 30 60
M  V30 65 1 31 61
M  V30 66 1 32 62
M  V30 67 1 35 63
M  V30 END BOND
M  V30 END CTAB
M  END
>  <Dataset>  (432) 
ChEMBL_Kinases

>  <Ligand_Instance>  (432) 
nan

>  <PDB_ID>  (432) 
nan

>  <Standardized_SMILES>  (432) 
NC(=O)c1ccc2[nH]c(-c3ccc(OCCC4CCN(C(=O)c5ccccc5)CC4)cc3)nc2c1

>  <Name>  (432) 
nan

>  <Pocket>  (432) 
nan

>  <ATP_Site>  (432) 
nan

>  <Peripheral>  (432) 
nan

>  <Num_H_Atoms_ProtBoundConf>  (432) 
nan

>  <Num_Resolved_Atoms>  (432) 
nan

>  <Num_Not_Resolved_Atoms>  (432) 
nan

$$$$
CHEMBL250359
     RDKit          3D

  0  0  0  0  0  0  0  0  0  0999 V3000
M  V30 BEGIN CTAB
M  V30 COUNTS 63 67 0 0 0
M  V30 BEGIN ATOM
M  V30 1 N 10.376247 0.223827 -0.925919 0
M  V30 2 C 9.776583 -0.097007 0.318111 0
M  V30 3 O 10.661866 -0.443772 1.131876 0
M  V30 4 C 8.383768 -0.063362 0.693120 0
M  V30 5 C 8.090123 -0.405329 2.008125 0
M  V30 6 C 6.768545 -0.383961 2.401673 0
M  V30 7 C 5.757515 -0.033868 1.521092 0
M  V30 8 N 4.420104 0.065606 1.632766 0
M  V30 9 C 3.840048 0.445458 0.487729 0
M  V30 10 C 2.401859 0.632167 0.308413 0
M  V30 11 C 1.599902 0.402995 1.408402 0
M  V30 12 C 0.237853 0.562576 1.281436 0
M  V30 13 C -0.389851 0.939183 0.115029 0
M  V30 14 O -1.684478 1.159258 -0.266816 0
M  V30 15 C -2.865000 1.058686 0.445090 0
M  V30 16 C -3.282739 -0.241627 0.993138 0
M  V30 17 C -3.563915 -1.362831 0.032204 0
M  V30 18 C -2.443891 -1.790885 -0.835433 0
M  V30 19 C -2.475164 -1.327240 -2.258101 0
M  V30 20 C -3.860587 -1.678558 -2.808495 0
M  V30 21 C -4.784854 -0.719100 -2.036379 0
M  V30 22 N -4.836244 -1.185162 -0.651920 0
M  V30 23 C -6.124788 -1.438416 -0.062147 0
M  V30 24 O -7.065520 -1.201032 -0.878853 0
M  V30 25 C -6.264566 -1.909145 1.310284 0
M  V30 26 C -5.858250 -3.243347 1.422620 0
M  V30 27 C -5.889745 -3.938164 2.641314 0
M  V30 28 C -6.343572 -3.239855 3.734932 0
M  V30 29 C -6.754614 -1.910392 3.647646 0
M  V30 30 C -6.709720 -1.265260 2.440916 0
M  V30 31 C 0.453365 1.164840 -0.984138 0
M  V30 32 C 1.848608 1.014133 -0.895253 0
M  V30 33 N 4.854512 0.597580 -0.404823 0
M  V30 34 C 6.022960 0.313240 0.197028 0
M  V30 35 C 7.364043 0.281743 -0.167327 0
M  V30 36 H 10.134831 0.530735 -1.900279 0
M  V30 37 H 10.033760 0.527762 -1.865696 0
M  V30 38 H 8.876638 -0.676310 2.691451 0
M  V30 39 H 6.511343 -0.639389 3.401350 0
M  V30 40 H 3.957683 -0.147448 2.553457 0
M  V30 41 H 1.918211 0.100698 2.397078 0
M  V30 42 H -0.464645 0.414240 2.083511 0
M  V30 43 H -2.734778 1.760400 1.336233 0
M  V30 44 H -3.669314 1.579102 -0.137227 0
M  V30 45 H -2.542466 -0.589749 1.751995 0
M  V30 46 H -4.209745 -0.058358 1.634433 0
M  V30 47 H -3.729049 -2.256559 0.733397 0
M  V30 48 H -2.462197 -2.938407 -0.933395 0
M  V30 49 H -1.491821 -1.622738 -0.305681 0
M  V30 50 H -1.724103 -1.934873 -2.807305 0
M  V30 51 H -2.340581 -0.272335 -2.442841 0
M  V30 52 H -3.966017 -1.498600 -3.877379 0
M  V30 53 H -4.118354 -2.717136 -2.484750 0
M  V30 54 H -4.305303 0.256827 -2.123104 0
M  V30 55 H -5.743396 -0.721418 -2.545240 0
M  V30 56 H -5.481303 -3.878501 0.607838 0
M  V30 57 H -5.586202 -4.955985 2.747231 0
M  V30 58 H -6.372669 -3.772822 4.690127 0
M  V30 59 H -7.106430 -1.361663 4.491574 0
M  V30 60 H -6.993460 -0.241572 2.236448 0
M  V30 61 H 0.163038 1.472492 -1.998958 0
M  V30 62 H 2.523063 1.180230 -1.719681 0
M  V30 63 H 7.607396 0.545830 -1.191631 0
M  V30 END ATOM
M  V30 BEGIN BOND
M  V30 1 1 1 2
M  V30 2 2 2 3
M  V30 3 1 2 4
M  V30 4 2 4 5
M  V30 5 1 5 6
M  V30 6 2 6 7
M  V30 7 1 7 8
M  V30 8 1 8 9
M  V30 9 1 9 10
M  V30 10 2 10 11
M  V30 11 1 11 12
M  V30 12 2 12 13
M  V30 13 1 13 14
M  V30 14 1 14 15
M  V30 15 1 15 16
M  V30 16 1 16 17
M  V30 17 1 17 18
M  V30 18 1 18 19
M  V30 19 1 19 20
M  V30 20 1 20 21
M  V30 21 1 21 22
M  V30 22 1 22 23
M  V30 23 2 23 24
M  V30 24 1 23 25
M  V30 25 2 25 26
M  V30 26 1 26 27
M  V30 27 2 27 28
M  V30 28 1 28 29
M  V30 29 2 29 30
M  V30 30 1 13 31
M  V30 31 2 31 32
M  V30 32 2 9 33
M  V30 33 1 33 34
M  V30 34 2 34 35
M  V30 35 1 35 4
M  V30 36 1 34 7
M  V30 37 1 32 10
M  V30 38 1 22 17
M  V30 39 1 30 25
M  V30 40 1 1 36
M  V30 41 1 1 37
M  V30 42 1 5 38
M  V30 43 1 6 39
M  V30 44 1 8 40
M  V30 45 1 11 41
M  V30 46 1 12 42
M  V30 47 1 15 43
M  V30 48 1 15 44
M  V30 49 1 16 45
M  V30 50 1 16 46
M  V30 51 1 17 47
M  V30 52 1 18 48
M  V30 53 1 18 49
M  V30 54 1 19 50
M  V30 55 1 19 51
M  V30 56 1 20 52
M  V30 57 1 20 53
M  V30 58 1 21 54
M  V30 59 1 21 55
M  V30 60 1 26 56
M  V30 61 1 27 57
M  V30 62 1 28 58
M  V30 63 1 29 59
M  V30 64 1 30 60
M  V30 65 1 31 61
M  V30 66 1 32 62
M  V30 67 1 35 63
M  V30 END BOND
M  V30 END CTAB
M  END
>  <Dataset>  (433) 
ChEMBL_Kinases

>  <Ligand_Instance>  (433) 
nan

>  <PDB_ID>  (433) 
nan

>  <Standardized_SMILES>  (433) 
NC(=O)c1ccc2[nH]c(-c3ccc(OCCC4CCCCN4C(=O)c4ccccc4)cc3)nc2c1

>  <Name>  (433) 
nan

>  <Pocket>  (433) 
nan

>  <ATP_Site>  (433) 
nan

>  <Peripheral>  (433) 
nan

>  <Num_H_Atoms_ProtBoundConf>  (433) 
nan

>  <Num_Resolved_Atoms>  (433) 
nan

>  <Num_Not_Resolved_Atoms>  (433) 
nan

$$$$
CHEMBL250344
     RDKit          3D

  0  0  0  0  0  0  0  0  0  0999 V3000
M  V30 BEGIN CTAB
M  V30 COUNTS 61 65 0 0 0
M  V30 BEGIN ATOM
M  V30 1 C 6.475700 1.248171 3.245579 0
M  V30 2 N 5.855864 0.676822 4.405079 0
M  V30 3 C 6.126204 -0.728182 4.551832 0
M  V30 4 C 4.466351 1.001859 4.538926 0
M  V30 5 C 3.615848 0.562963 3.424489 0
M  V30 6 C 3.348872 1.328531 2.307950 0
M  V30 7 C 2.546993 0.919738 1.252408 0
M  V30 8 N 2.007056 -0.314323 1.355208 0
M  V30 9 C 1.199645 -0.935800 0.470069 0
M  V30 10 C 0.654122 -0.518477 -0.838649 0
M  V30 11 C 1.357960 -0.184201 -1.974510 0
M  V30 12 C 0.624705 0.176732 -3.087989 0
M  V30 13 N -0.719203 0.193896 -3.041871 0
M  V30 14 C -1.400604 -0.134943 -1.925412 0
M  V30 15 N -2.822768 -0.107473 -1.907556 0
M  V30 16 C -3.615494 -0.436408 -0.789994 0
M  V30 17 O -2.916584 -0.768009 0.225053 0
M  V30 18 C -5.099289 -0.404194 -0.783410 0
M  V30 19 C -5.672833 -1.342527 -1.813022 0
M  V30 20 C -6.450533 -0.495512 -2.788251 0
M  V30 21 C -6.681416 0.834304 -2.116045 0
M  V30 22 C -5.679778 0.952885 -0.994882 0
M  V30 23 N -0.702960 -0.483089 -0.850695 0
M  V30 24 C 0.880517 -2.194249 0.979458 0
M  V30 25 C 0.026284 -3.233096 0.366925 0
M  V30 26 C 0.328068 -3.845806 -0.835919 0
M  V30 27 C -0.525789 -4.811369 -1.342358 0
M  V30 28 C -1.675847 -5.171591 -0.662510 0
M  V30 29 F -2.476146 -6.126781 -1.209615 0
M  V30 30 C -1.972340 -4.549811 0.547942 0
M  V30 31 C -1.128982 -3.583880 1.065923 0
M  V30 32 N 1.525709 -2.278430 2.179473 0
M  V30 33 C 2.206636 -1.139556 2.404454 0
M  V30 34 C 3.011307 -0.698537 3.437577 0
M  V30 35 H 7.573061 1.066956 3.341325 0
M  V30 36 H 6.356933 2.349037 3.305711 0
M  V30 37 H 6.131620 0.817108 2.290563 0
M  V30 38 H 5.931683 -1.332416 3.643611 0
M  V30 39 H 5.527809 -1.102886 5.416878 0
M  V30 40 H 7.189032 -0.910445 4.812695 0
M  V30 41 H 4.375171 2.095711 4.629668 0
M  V30 42 H 4.097044 0.463721 5.446218 0
M  V30 43 H 3.832123 2.314022 2.316711 0
M  V30 44 H 2.373406 1.563419 0.402656 0
M  V30 45 H 2.433278 -0.243748 -1.862867 0
M  V30 46 H 1.207876 0.432085 -3.959226 0
M  V30 47 H -3.347420 0.174271 -2.774735 0
M  V30 48 H -5.435565 -0.770347 0.218421 0
M  V30 49 H -6.310384 -2.128035 -1.356371 0
M  V30 50 H -4.852249 -1.912931 -2.336679 0
M  V30 51 H -7.390378 -1.010117 -3.061397 0
M  V30 52 H -5.895831 -0.319008 -3.737806 0
M  V30 53 H -7.735231 0.794875 -1.725337 0
M  V30 54 H -6.530369 1.676008 -2.818899 0
M  V30 55 H -4.889761 1.707534 -1.202373 0
M  V30 56 H -6.251650 1.323686 -0.102428 0
M  V30 57 H 1.237944 -3.517511 -1.311192 0
M  V30 58 H -0.238645 -5.264417 -2.298707 0
M  V30 59 H -2.870278 -4.825620 1.086495 0
M  V30 60 H -1.425305 -3.145205 2.010962 0
M  V30 61 H 3.160994 -1.366022 4.265877 0
M  V30 END ATOM
M  V30 BEGIN BOND
M  V30 1 1 1 2
M  V30 2 1 2 3
M  V30 3 1 2 4
M  V30 4 1 4 5
M  V30 5 1 5 6
M  V30 6 2 6 7
M  V30 7 1 7 8
M  V30 8 1 8 9
M  V30 9 1 9 10
M  V30 10 2 10 11
M  V30 11 1 11 12
M  V30 12 2 12 13
M  V30 13 1 13 14
M  V30 14 1 14 15
M  V30 15 1 15 16
M  V30 16 2 16 17
M  V30 17 1 16 18
M  V30 18 1 18 19
M  V30 19 1 19 20
M  V30 20 1 20 21
M  V30 21 1 21 22
M  V30 22 2 14 23
M  V30 23 2 9 24
M  V30 24 1 24 25
M  V30 25 2 25 26
M  V30 26 1 26 27
M  V30 27 2 27 28
M  V30 28 1 28 29
M  V30 29 1 28 30
M  V30 30 2 30 31
M  V30 31 1 24 32
M  V30 32 2 32 33
M  V30 33 1 33 34
M  V30 34 2 34 5
M  V30 35 1 33 8
M  V30 36 1 23 10
M  V30 37 1 31 25
M  V30 38 1 22 18
M  V30 39 1 1 35
M  V30 40 1 1 36
M  V30 41 1 1 37
M  V30 42 1 3 38
M  V30 43 1 3 39
M  V30 44 1 3 40
M  V30 45 1 4 41
M  V30 46 1 4 42
M  V30 47 1 6 43
M  V30 48 1 7 44
M  V30 49 1 11 45
M  V30 50 1 12 46
M  V30 51 1 15 47
M  V30 52 1 18 48
M  V30 53 1 19 49
M  V30 54 1 19 50
M  V30 55 1 20 51
M  V30 56 1 20 52
M  V30 57 1 21 53
M  V30 58 1 21 54
M  V30 59 1 22 55
M  V30 60 1 22 56
M  V30 61 1 26 57
M  V30 62 1 27 58
M  V30 63 1 30 59
M  V30 64 1 31 60
M  V30 65 1 34 61
M  V30 END BOND
M  V30 END CTAB
M  END
>  <Dataset>  (434) 
ChEMBL_Kinases

>  <Ligand_Instance>  (434) 
nan

>  <PDB_ID>  (434) 
nan

>  <Standardized_SMILES>  (434) 
CN(C)Cc1ccn2c(-c3ccnc(NC(=O)C4CCCC4)n3)c(-c3ccc(F)cc3)nc2c1

>  <Name>  (434) 
nan

>  <Pocket>  (434) 
nan

>  <ATP_Site>  (434) 
nan

>  <Peripheral>  (434) 
nan

>  <Num_H_Atoms_ProtBoundConf>  (434) 
nan

>  <Num_Resolved_Atoms>  (434) 
nan

>  <Num_Not_Resolved_Atoms>  (434) 
nan

$$$$
CHEMBL249980
     RDKit          3D

  0  0  0  0  0  0  0  0  0  0999 V3000
M  V30 BEGIN CTAB
M  V30 COUNTS 59 63 0 0 0
M  V30 BEGIN ATOM
M  V30 1 C 4.026224 -0.507801 5.176587 0
M  V30 2 N 5.070313 -0.055422 4.319271 0
M  V30 3 C 6.403390 -0.248490 4.779657 0
M  V30 4 C 4.797994 1.166669 3.641011 0
M  V30 5 C 3.578777 0.946826 2.804604 0
M  V30 6 C 2.264133 1.156936 3.165008 0
M  V30 7 C 1.280799 0.883557 2.228910 0
M  V30 8 N 1.629552 0.423041 0.999908 0
M  V30 9 C 0.865193 0.087706 -0.068207 0
M  V30 10 C -0.593248 0.142154 -0.164005 0
M  V30 11 C -1.256785 0.932619 -1.075541 0
M  V30 12 C -2.632970 0.892712 -1.059413 0
M  V30 13 N -3.298156 0.114210 -0.189653 0
M  V30 14 C -2.664176 -0.662555 0.705980 0
M  V30 15 N -3.334002 -1.497195 1.641545 0
M  V30 16 C -4.754365 -1.595024 1.715345 0
M  V30 17 C -5.291079 -2.095403 0.433232 0
M  V30 18 C -5.934632 -1.416141 -0.575088 0
M  V30 19 C -6.365749 -2.075712 -1.706730 0
M  V30 20 C -6.140300 -3.446855 -1.817287 0
M  V30 21 C -5.499699 -4.159307 -0.828550 0
M  V30 22 F -5.312370 -5.493479 -0.998518 0
M  V30 23 C -5.073495 -3.463055 0.308127 0
M  V30 24 F -4.452272 -4.271687 1.217723 0
M  V30 25 N -1.311531 -0.604906 0.669144 0
M  V30 26 C 1.650066 -0.336608 -1.118167 0
M  V30 27 C 1.315120 -0.793859 -2.454631 0
M  V30 28 C 0.558441 -1.939137 -2.628584 0
M  V30 29 C 0.235052 -2.380450 -3.907845 0
M  V30 30 C 0.709478 -1.616328 -4.965244 0
M  V30 31 F 0.400440 -2.037602 -6.230306 0
M  V30 32 C 1.467738 -0.467478 -4.834333 0
M  V30 33 C 1.777077 -0.047925 -3.538117 0
M  V30 34 N 2.910561 -0.247851 -0.653631 0
M  V30 35 C 2.914333 0.205360 0.613049 0
M  V30 36 C 3.897490 0.477019 1.544069 0
M  V30 37 H 3.191029 -0.841747 4.514745 0
M  V30 38 H 3.604266 0.402383 5.692669 0
M  V30 39 H 4.325758 -1.277028 5.894058 0
M  V30 40 H 7.087863 0.589797 4.637470 0
M  V30 41 H 6.466296 -0.579285 5.837052 0
M  V30 42 H 6.813140 -1.125084 4.197680 0
M  V30 43 H 4.495463 1.920799 4.424891 0
M  V30 44 H 5.631527 1.567960 3.063131 0
M  V30 45 H 2.127456 1.524170 4.168783 0
M  V30 46 H 0.273605 1.053036 2.527995 0
M  V30 47 H -0.616218 1.522018 -1.730929 0
M  V30 48 H -3.130961 1.523099 -1.785570 0
M  V30 49 H -2.754790 -2.057832 2.296849 0
M  V30 50 H -5.071466 -2.219258 2.573577 0
M  V30 51 H -5.171511 -0.571534 1.902853 0
M  V30 52 H -6.049153 -0.361008 -0.370909 0
M  V30 53 H -6.859926 -1.509298 -2.463634 0
M  V30 54 H -6.475353 -3.985033 -2.706669 0
M  V30 55 H 0.218213 -2.493073 -1.742123 0
M  V30 56 H -0.349871 -3.264202 -4.063151 0
M  V30 57 H 1.793204 0.063719 -5.726227 0
M  V30 58 H 2.370350 0.852033 -3.455678 0
M  V30 59 H 4.912608 0.281895 1.173365 0
M  V30 END ATOM
M  V30 BEGIN BOND
M  V30 1 1 1 2
M  V30 2 1 2 3
M  V30 3 1 2 4
M  V30 4 1 4 5
M  V30 5 1 5 6
M  V30 6 2 6 7
M  V30 7 1 7 8
M  V30 8 1 8 9
M  V30 9 1 9 10
M  V30 10 2 10 11
M  V30 11 1 11 12
M  V30 12 2 12 13
M  V30 13 1 13 14
M  V30 14 1 14 15
M  V30 15 1 15 16
M  V30 16 1 16 17
M  V30 17 2 17 18
M  V30 18 1 18 19
M  V30 19 2 19 20
M  V30 20 1 20 21
M  V30 21 1 21 22
M  V30 22 2 21 23
M  V30 23 1 23 24
M  V30 24 2 14 25
M  V30 25 2 9 26
M  V30 26 1 26 27
M  V30 27 2 27 28
M  V30 28 1 28 29
M  V30 29 2 29 30
M  V30 30 1 30 31
M  V30 31 1 30 32
M  V30 32 2 32 33
M  V30 33 1 26 34
M  V30 34 2 34 35
M  V30 35 1 35 36
M  V30 36 2 36 5
M  V30 37 1 35 8
M  V30 38 1 25 10
M  V30 39 1 33 27
M  V30 40 1 23 17
M  V30 41 1 1 37
M  V30 42 1 1 38
M  V30 43 1 1 39
M  V30 44 1 3 40
M  V30 45 1 3 41
M  V30 46 1 3 42
M  V30 47 1 4 43
M  V30 48 1 4 44
M  V30 49 1 6 45
M  V30 50 1 7 46
M  V30 51 1 11 47
M  V30 52 1 12 48
M  V30 53 1 15 49
M  V30 54 1 16 50
M  V30 55 1 16 51
M  V30 56 1 18 52
M  V30 57 1 19 53
M  V30 58 1 20 54
M  V30 59 1 28 55
M  V30 60 1 29 56
M  V30 61 1 32 57
M  V30 62 1 33 58
M  V30 63 1 36 59
M  V30 END BOND
M  V30 END CTAB
M  END
>  <Dataset>  (435) 
ChEMBL_Kinases

>  <Ligand_Instance>  (435) 
nan

>  <PDB_ID>  (435) 
nan

>  <Standardized_SMILES>  (435) 
CN(C)Cc1ccn2c(-c3ccnc(NCc4cccc(F)c4F)n3)c(-c3ccc(F)cc3)nc2c1

>  <Name>  (435) 
nan

>  <Pocket>  (435) 
nan

>  <ATP_Site>  (435) 
nan

>  <Peripheral>  (435) 
nan

>  <Num_H_Atoms_ProtBoundConf>  (435) 
nan

>  <Num_Resolved_Atoms>  (435) 
nan

>  <Num_Not_Resolved_Atoms>  (435) 
nan

$$$$
CHEMBL250029
     RDKit          3D

  0  0  0  0  0  0  0  0  0  0999 V3000
M  V30 BEGIN CTAB
M  V30 COUNTS 38 40 0 0 0
M  V30 BEGIN ATOM
M  V30 1 C 0.548291 -4.006301 3.481357 0
M  V30 2 N 0.502045 -4.130173 2.057973 0
M  V30 3 C -0.788348 -4.616950 1.626700 0
M  V30 4 C 0.860549 -2.952709 1.330406 0
M  V30 5 C -0.133770 -1.850336 1.480306 0
M  V30 6 C 0.214757 -0.615273 0.731189 0
M  V30 7 C 1.367076 -0.532124 -0.046520 0
M  V30 8 C 1.633236 0.641230 -0.717301 0
M  V30 9 C 2.794140 0.707976 -1.494269 0
M  V30 10 C 3.032058 1.895707 -2.153337 0
M  V30 11 N 2.226504 2.999057 -2.103677 0
M  V30 12 C 1.120607 2.897460 -1.347665 0
M  V30 13 O 0.470433 3.951781 -1.378242 0
M  V30 14 C 0.820681 1.750110 -0.665855 0
M  V30 15 C -0.306937 1.659023 0.099447 0
M  V30 16 C -1.168630 2.716800 0.202958 0
M  V30 17 C -2.313967 2.649078 0.967707 0
M  V30 18 Br -3.588318 4.051303 1.189759 0
M  V30 19 C -2.577798 1.473259 1.637813 0
M  V30 20 C -1.746219 0.368948 1.573522 0
M  V30 21 C -0.614380 0.512470 0.785258 0
M  V30 22 H -0.006957 -4.902041 3.887991 0
M  V30 23 H -0.001586 -3.122048 3.867683 0
M  V30 24 H 1.567423 -4.111987 3.922252 0
M  V30 25 H -1.582147 -4.471429 2.368494 0
M  V30 26 H -1.080343 -4.181981 0.639514 0
M  V30 27 H -0.724700 -5.727898 1.448030 0
M  V30 28 H 1.880467 -2.608104 1.669611 0
M  V30 29 H 0.940132 -3.247599 0.256083 0
M  V30 30 H -0.189802 -1.574212 2.562494 0
M  V30 31 H -1.138780 -2.225532 1.213053 0
M  V30 32 H 2.020602 -1.382390 -0.105757 0
M  V30 33 H 3.489555 -0.114780 -1.591663 0
M  V30 34 H 3.939777 1.932149 -2.752967 0
M  V30 35 H 2.543137 3.840054 -2.665454 0
M  V30 36 H -1.100508 3.679093 -0.248816 0
M  V30 37 H -3.456327 1.357599 2.250902 0
M  V30 38 H -1.977234 -0.530363 2.103202 0
M  V30 END ATOM
M  V30 BEGIN BOND
M  V30 1 1 1 2
M  V30 2 1 2 3
M  V30 3 1 2 4
M  V30 4 1 4 5
M  V30 5 1 5 6
M  V30 6 2 6 7
M  V30 7 1 7 8
M  V30 8 1 8 9
M  V30 9 2 9 10
M  V30 10 1 10 11
M  V30 11 1 11 12
M  V30 12 2 12 13
M  V30 13 1 12 14
M  V30 14 1 14 15
M  V30 15 2 15 16
M  V30 16 1 16 17
M  V30 17 1 17 18
M  V30 18 2 17 19
M  V30 19 1 19 20
M  V30 20 2 20 21
M  V30 21 1 21 6
M  V30 22 2 14 8
M  V30 23 1 21 15
M  V30 24 1 1 22
M  V30 25 1 1 23
M  V30 26 1 1 24
M  V30 27 1 3 25
M  V30 28 1 3 26
M  V30 29 1 3 27
M  V30 30 1 4 28
M  V30 31 1 4 29
M  V30 32 1 5 30
M  V30 33 1 5 31
M  V30 34 1 7 32
M  V30 35 1 9 33
M  V30 36 1 10 34
M  V30 37 1 11 35
M  V30 38 1 16 36
M  V30 39 1 19 37
M  V30 40 1 20 38
M  V30 END BOND
M  V30 END CTAB
M  END
>  <Dataset>  (436) 
ChEMBL_Kinases

>  <Ligand_Instance>  (436) 
nan

>  <PDB_ID>  (436) 
nan

>  <Standardized_SMILES>  (436) 
CN(C)CCc1cc2cc[nH]c(=O)c2c2cc(Br)ccc12

>  <Name>  (436) 
nan

>  <Pocket>  (436) 
nan

>  <ATP_Site>  (436) 
nan

>  <Peripheral>  (436) 
nan

>  <Num_H_Atoms_ProtBoundConf>  (436) 
nan

>  <Num_Resolved_Atoms>  (436) 
nan

>  <Num_Not_Resolved_Atoms>  (436) 
nan

$$$$
CHEMBL250033
     RDKit          3D

  0  0  0  0  0  0  0  0  0  0999 V3000
M  V30 BEGIN CTAB
M  V30 COUNTS 52 56 0 0 0
M  V30 BEGIN ATOM
M  V30 1 N 0.854295 -0.449565 5.807001 0
M  V30 2 C 1.905008 -0.163482 4.868898 0
M  V30 3 C 1.527775 -0.522603 3.449786 0
M  V30 4 C 0.328779 0.217244 2.959718 0
M  V30 5 C 0.004728 -0.176181 1.565616 0
M  V30 6 C 0.365065 0.652666 0.503782 0
M  V30 7 C 0.096299 0.323150 -0.806281 0
M  V30 8 C 0.510522 1.218794 -1.768488 0
M  V30 9 C 1.160713 2.482516 -1.557975 0
M  V30 10 C 2.347249 2.663315 -2.276083 0
M  V30 11 C 3.071645 3.847635 -2.177897 0
M  V30 12 C 2.577550 4.851492 -1.339046 0
M  V30 13 F 3.259980 6.024670 -1.217443 0
M  V30 14 C 1.410194 4.672528 -0.633418 0
M  V30 15 C 0.704385 3.495514 -0.741069 0
M  V30 16 C 0.223348 0.823602 -3.068636 0
M  V30 17 N -0.413245 -0.344531 -3.385896 0
M  V30 18 C -0.785303 -1.162706 -2.384628 0
M  V30 19 O -1.343616 -2.164261 -2.847663 0
M  V30 20 C -0.546589 -0.862336 -1.070201 0
M  V30 21 C -0.929850 -1.725304 -0.080282 0
M  V30 22 C -1.571933 -2.900356 -0.360015 0
M  V30 23 C -1.952636 -3.755581 0.653569 0
M  V30 24 C -2.641658 -5.021204 0.432436 0
M  V30 25 C -3.550768 -5.526940 -0.471972 0
M  V30 26 N -3.840043 -6.805819 -0.184731 0
M  V30 27 N -3.152095 -7.185245 0.892538 0
M  V30 28 C -2.424887 -6.120782 1.276314 0
M  V30 29 C -1.649099 -3.353793 1.937110 0
M  V30 30 C -1.004389 -2.176512 2.245698 0
M  V30 31 C -0.634556 -1.338237 1.196068 0
M  V30 32 H 0.289695 -1.236530 5.386165 0
M  V30 33 H 1.227366 -0.826811 6.714122 0
M  V30 34 H 2.793428 -0.766714 5.140084 0
M  V30 35 H 2.240278 0.910343 4.934652 0
M  V30 36 H 2.398573 -0.164251 2.819083 0
M  V30 37 H 1.503836 -1.608835 3.360833 0
M  V30 38 H 0.590711 1.305488 2.947448 0
M  V30 39 H -0.537894 0.109780 3.645876 0
M  V30 40 H 0.878307 1.563072 0.777847 0
M  V30 41 H 2.772752 1.914936 -2.941136 0
M  V30 42 H 3.996608 3.983450 -2.742165 0
M  V30 43 H 0.993903 5.439392 0.032769 0
M  V30 44 H -0.225349 3.373138 -0.184596 0
M  V30 45 H 0.531927 1.496565 -3.871263 0
M  V30 46 H -0.555301 -0.494958 -4.425132 0
M  V30 47 H -1.837006 -3.269077 -1.323223 0
M  V30 48 H -3.903512 -4.855390 -1.269458 0
M  V30 49 H -3.158774 -8.120285 1.363268 0
M  V30 50 H -1.759138 -6.153524 2.146223 0
M  V30 51 H -1.947682 -4.028665 2.750622 0
M  V30 52 H -0.835257 -1.985358 3.304860 0
M  V30 END ATOM
M  V30 BEGIN BOND
M  V30 1 1 1 2
M  V30 2 1 2 3
M  V30 3 1 3 4
M  V30 4 1 4 5
M  V30 5 2 5 6
M  V30 6 1 6 7
M  V30 7 1 7 8
M  V30 8 1 8 9
M  V30 9 2 9 10
M  V30 10 1 10 11
M  V30 11 2 11 12
M  V30 12 1 12 13
M  V30 13 1 12 14
M  V30 14 2 14 15
M  V30 15 2 8 16
M  V30 16 1 16 17
M  V30 17 1 17 18
M  V30 18 2 18 19
M  V30 19 1 18 20
M  V30 20 1 20 21
M  V30 21 2 21 22
M  V30 22 1 22 23
M  V30 23 1 23 24
M  V30 24 1 24 25
M  V30 25 2 25 26
M  V30 26 1 26 27
M  V30 27 1 27 28
M  V30 28 2 23 29
M  V30 29 1 29 30
M  V30 30 2 30 31
M  V30 31 1 31 5
M  V30 32 2 20 7
M  V30 33 1 31 21
M  V30 34 1 15 9
M  V30 35 2 28 24
M  V30 36 1 1 32
M  V30 37 1 1 33
M  V30 38 1 2 34
M  V30 39 1 2 35
M  V30 40 1 3 36
M  V30 41 1 3 37
M  V30 42 1 4 38
M  V30 43 1 4 39
M  V30 44 1 6 40
M  V30 45 1 10 41
M  V30 46 1 11 42
M  V30 47 1 14 43
M  V30 48 1 15 44
M  V30 49 1 16 45
M  V30 50 1 17 46
M  V30 51 1 22 47
M  V30 52 1 25 48
M  V30 53 1 27 49
M  V30 54 1 28 50
M  V30 55 1 29 51
M  V30 56 1 30 52
M  V30 END BOND
M  V30 END CTAB
M  END
>  <Dataset>  (437) 
ChEMBL_Kinases

>  <Ligand_Instance>  (437) 
nan

>  <PDB_ID>  (437) 
nan

>  <Standardized_SMILES>  (437) 
NCCCc1cc2c(-c3ccc(F)cc3)c[nH]c(=O)c2c2cc(-c3cn[nH]c3)ccc12

>  <Name>  (437) 
nan

>  <Pocket>  (437) 
nan

>  <ATP_Site>  (437) 
nan

>  <Peripheral>  (437) 
nan

>  <Num_H_Atoms_ProtBoundConf>  (437) 
nan

>  <Num_Resolved_Atoms>  (437) 
nan

>  <Num_Not_Resolved_Atoms>  (437) 
nan

$$$$
CHEMBL250035
     RDKit          3D

  0  0  0  0  0  0  0  0  0  0999 V3000
M  V30 BEGIN CTAB
M  V30 COUNTS 52 56 0 0 0
M  V30 BEGIN ATOM
M  V30 1 N 1.228445 -0.551258 5.653431 0
M  V30 2 C 2.280438 -0.302571 4.689348 0
M  V30 3 C 1.809968 -0.650305 3.284702 0
M  V30 4 C 0.623774 0.162674 2.871375 0
M  V30 5 C 0.151446 -0.172526 1.504075 0
M  V30 6 C 0.463154 0.639571 0.434933 0
M  V30 7 C 0.041937 0.337830 -0.841208 0
M  V30 8 C 0.353668 1.151578 -1.909892 0
M  V30 9 C 1.148610 2.338843 -1.652031 0
M  V30 10 C 2.513158 2.081681 -1.796082 0
M  V30 11 C 3.451461 3.078831 -1.599675 0
M  V30 12 C 3.041713 4.365470 -1.252312 0
M  V30 13 C 1.686121 4.599311 -1.114825 0
M  V30 14 C 0.749316 3.611911 -1.308703 0
M  V30 15 Cl -0.984345 3.793437 -1.161367 0
M  V30 16 C -0.063673 0.858724 -3.188651 0
M  V30 17 N -0.805351 -0.260541 -3.427796 0
M  V30 18 C -1.107488 -1.050866 -2.384801 0
M  V30 19 O -1.773580 -2.005945 -2.770436 0
M  V30 20 C -0.707079 -0.786100 -1.101838 0
M  V30 21 C -1.029449 -1.607310 -0.058305 0
M  V30 22 C -1.778261 -2.733966 -0.282981 0
M  V30 23 C -2.126468 -3.585532 0.744550 0
M  V30 24 C -2.923738 -4.798635 0.602634 0
M  V30 25 C -3.955531 -5.151980 -0.245372 0
M  V30 26 N -4.359946 -6.404828 0.025949 0
M  V30 27 N -3.624139 -6.893030 1.032013 0
M  V30 28 C -2.741753 -5.923609 1.395751 0
M  V30 29 C -1.673056 -3.233181 2.021333 0
M  V30 30 C -0.915970 -2.106878 2.295214 0
M  V30 31 C -0.612538 -1.310226 1.209968 0
M  V30 32 H 1.619809 -0.815295 6.573807 0
M  V30 33 H 0.536752 0.203518 5.730929 0
M  V30 34 H 3.129675 -0.977554 4.918747 0
M  V30 35 H 2.658395 0.723959 4.725387 0
M  V30 36 H 2.663928 -0.353641 2.605146 0
M  V30 37 H 1.714008 -1.736684 3.138677 0
M  V30 38 H -0.193583 0.134867 3.625154 0
M  V30 39 H 0.961014 1.228887 2.856653 0
M  V30 40 H 1.050641 1.527704 0.617083 0
M  V30 41 H 2.993913 1.147241 -2.060057 0
M  V30 42 H 4.514945 2.969614 -1.688613 0
M  V30 43 H 3.745878 5.174730 -1.089124 0
M  V30 44 H 1.292894 5.571674 -0.847235 0
M  V30 45 H 0.219902 1.543528 -3.970508 0
M  V30 46 H -1.057054 -0.370637 -4.429195 0
M  V30 47 H -2.173957 -3.097322 -1.205609 0
M  V30 48 H -4.333777 -4.458860 -1.002084 0
M  V30 49 H -3.718161 -7.845778 1.452821 0
M  V30 50 H -2.038904 -6.095707 2.196588 0
M  V30 51 H -1.942419 -3.904419 2.851485 0
M  V30 52 H -0.640401 -1.956941 3.314637 0
M  V30 END ATOM
M  V30 BEGIN BOND
M  V30 1 1 1 2
M  V30 2 1 2 3
M  V30 3 1 3 4
M  V30 4 1 4 5
M  V30 5 2 5 6
M  V30 6 1 6 7
M  V30 7 1 7 8
M  V30 8 1 8 9
M  V30 9 2 9 10
M  V30 10 1 10 11
M  V30 11 2 11 12
M  V30 12 1 12 13
M  V30 13 2 13 14
M  V30 14 1 14 15
M  V30 15 2 8 16
M  V30 16 1 16 17
M  V30 17 1 17 18
M  V30 18 2 18 19
M  V30 19 1 18 20
M  V30 20 1 20 21
M  V30 21 2 21 22
M  V30 22 1 22 23
M  V30 23 1 23 24
M  V30 24 1 24 25
M  V30 25 2 25 26
M  V30 26 1 26 27
M  V30 27 1 27 28
M  V30 28 2 23 29
M  V30 29 1 29 30
M  V30 30 2 30 31
M  V30 31 1 31 5
M  V30 32 2 20 7
M  V30 33 1 31 21
M  V30 34 1 14 9
M  V30 35 2 28 24
M  V30 36 1 1 32
M  V30 37 1 1 33
M  V30 38 1 2 34
M  V30 39 1 2 35
M  V30 40 1 3 36
M  V30 41 1 3 37
M  V30 42 1 4 38
M  V30 43 1 4 39
M  V30 44 1 6 40
M  V30 45 1 10 41
M  V30 46 1 11 42
M  V30 47 1 12 43
M  V30 48 1 13 44
M  V30 49 1 16 45
M  V30 50 1 17 46
M  V30 51 1 22 47
M  V30 52 1 25 48
M  V30 53 1 27 49
M  V30 54 1 28 50
M  V30 55 1 29 51
M  V30 56 1 30 52
M  V30 END BOND
M  V30 END CTAB
M  END
>  <Dataset>  (438) 
ChEMBL_Kinases

>  <Ligand_Instance>  (438) 
nan

>  <PDB_ID>  (438) 
nan

>  <Standardized_SMILES>  (438) 
NCCCc1cc2c(-c3ccccc3Cl)c[nH]c(=O)c2c2cc(-c3cn[nH]c3)ccc12

>  <Name>  (438) 
nan

>  <Pocket>  (438) 
nan

>  <ATP_Site>  (438) 
nan

>  <Peripheral>  (438) 
nan

>  <Num_H_Atoms_ProtBoundConf>  (438) 
nan

>  <Num_Resolved_Atoms>  (438) 
nan

>  <Num_Not_Resolved_Atoms>  (438) 
nan

$$$$
CHEMBL250061
     RDKit          3D

  0  0  0  0  0  0  0  0  0  0999 V3000
M  V30 BEGIN CTAB
M  V30 COUNTS 38 41 0 0 0
M  V30 BEGIN ATOM
M  V30 1 N -1.429061 -1.432221 5.048979 0
M  V30 2 C -1.113570 -2.183035 3.861519 0
M  V30 3 N -1.412319 -3.494354 3.798027 0
M  V30 4 C -1.105804 -4.173760 2.673788 0
M  V30 5 C -0.503185 -3.455628 1.669941 0
M  V30 6 C -0.197951 -2.112198 1.736952 0
M  V30 7 C 0.451898 -1.519154 0.547853 0
M  V30 8 C 0.793828 -2.178074 -0.640126 0
M  V30 9 C 1.376363 -1.218854 -1.439034 0
M  V30 10 C 1.400146 -0.007923 -0.782667 0
M  V30 11 N 0.832651 -0.211712 0.424700 0
M  V30 12 C 0.702433 0.870596 1.375030 0
M  V30 13 C -0.537056 1.675781 1.260212 0
M  V30 14 C -1.904091 1.194810 1.388713 0
M  V30 15 C -1.305601 1.873797 2.572483 0
M  V30 16 C 1.985833 1.173218 -1.458386 0
M  V30 17 C 1.980598 1.026027 -2.963139 0
M  V30 18 N 2.461602 -0.242242 -3.405752 0
M  V30 19 C 1.909596 -1.404629 -2.796749 0
M  V30 20 O 1.881022 -2.521429 -3.386486 0
M  V30 21 N -0.532123 -1.509113 2.881790 0
M  V30 22 H -2.089557 -0.784805 5.498756 0
M  V30 23 H -0.847089 -1.437281 5.897973 0
M  V30 24 H -1.323770 -5.222686 2.573299 0
M  V30 25 H -0.266461 -4.027024 0.774275 0
M  V30 26 H 0.630476 -3.209454 -0.864723 0
M  V30 27 H 0.749793 0.420981 2.387175 0
M  V30 28 H 1.598561 1.528280 1.309157 0
M  V30 29 H -0.383316 2.656611 0.727641 0
M  V30 30 H -2.217310 0.141982 1.422703 0
M  V30 31 H -2.701551 1.829572 0.895100 0
M  V30 32 H -1.061206 1.187058 3.418594 0
M  V30 33 H -1.613658 2.876385 2.875251 0
M  V30 34 H 1.433212 2.077013 -1.139389 0
M  V30 35 H 3.061708 1.320071 -1.179460 0
M  V30 36 H 2.626887 1.797247 -3.430119 0
M  V30 37 H 0.940761 1.244832 -3.294143 0
M  V30 38 H 3.202033 -0.369819 -4.157557 0
M  V30 END ATOM
M  V30 BEGIN BOND
M  V30 1 1 1 2
M  V30 2 2 2 3
M  V30 3 1 3 4
M  V30 4 2 4 5
M  V30 5 1 5 6
M  V30 6 1 6 7
M  V30 7 2 7 8
M  V30 8 1 8 9
M  V30 9 2 9 10
M  V30 10 1 10 11
M  V30 11 1 11 12
M  V30 12 1 12 13
M  V30 13 1 13 14
M  V30 14 1 14 15
M  V30 15 1 10 16
M  V30 16 1 16 17
M  V30 17 1 17 18
M  V30 18 1 18 19
M  V30 19 2 19 20
M  V30 20 2 6 21
M  V30 21 1 21 2
M  V30 22 1 11 7
M  V30 23 1 15 13
M  V30 24 1 19 9
M  V30 25 1 1 22
M  V30 26 1 1 23
M  V30 27 1 4 24
M  V30 28 1 5 25
M  V30 29 1 8 26
M  V30 30 1 12 27
M  V30 31 1 12 28
M  V30 32 1 13 29
M  V30 33 1 14 30
M  V30 34 1 14 31
M  V30 35 1 15 32
M  V30 36 1 15 33
M  V30 37 1 16 34
M  V30 38 1 16 35
M  V30 39 1 17 36
M  V30 40 1 17 37
M  V30 41 1 18 38
M  V30 END BOND
M  V30 END CTAB
M  END
>  <Dataset>  (439) 
ChEMBL_Kinases

>  <Ligand_Instance>  (439) 
nan

>  <PDB_ID>  (439) 
nan

>  <Standardized_SMILES>  (439) 
Nc1nccc(-c2cc3c(n2CC2CC2)CCNC3=O)n1

>  <Name>  (439) 
nan

>  <Pocket>  (439) 
nan

>  <ATP_Site>  (439) 
nan

>  <Peripheral>  (439) 
nan

>  <Num_H_Atoms_ProtBoundConf>  (439) 
nan

>  <Num_Resolved_Atoms>  (439) 
nan

>  <Num_Not_Resolved_Atoms>  (439) 
nan

$$$$
CHEMBL250062
     RDKit          3D

  0  0  0  0  0  0  0  0  0  0999 V3000
M  V30 BEGIN CTAB
M  V30 COUNTS 34 36 0 0 0
M  V30 BEGIN ATOM
M  V30 1 N -0.144547 -4.027761 4.486978 0
M  V30 2 C 0.755593 -3.343880 3.593198 0
M  V30 3 N 2.069501 -3.489602 3.643370 0
M  V30 4 C 2.810554 -2.794798 2.751976 0
M  V30 5 C 2.144867 -1.987301 1.858076 0
M  V30 6 C 0.811204 -1.810553 1.771873 0
M  V30 7 C 0.048919 -0.967058 0.882263 0
M  V30 8 C -1.323774 -0.893530 0.999418 0
M  V30 9 C -1.843861 -0.031943 0.062188 0
M  V30 10 C -0.766646 0.437699 -0.651886 0
M  V30 11 N 0.325823 -0.144764 -0.130204 0
M  V30 12 C 1.647224 0.108236 -0.637600 0
M  V30 13 C 2.293360 1.209231 0.145555 0
M  V30 14 F 3.569022 1.431061 -0.367530 0
M  V30 15 C -0.953473 1.408213 -1.764597 0
M  V30 16 C -2.305118 1.305310 -2.378381 0
M  V30 17 N -3.374725 1.385012 -1.382112 0
M  V30 18 C -3.171264 0.446058 -0.304401 0
M  V30 19 O -4.146267 -0.004749 0.372730 0
M  V30 20 N 0.170687 -2.544808 2.701288 0
M  V30 21 H -0.353382 -3.591207 5.423707 0
M  V30 22 H -0.636169 -4.943946 4.310138 0
M  V30 23 H 3.883950 -2.889354 2.764094 0
M  V30 24 H 2.801231 -1.460158 1.200895 0
M  V30 25 H -2.012498 -1.382137 1.676942 0
M  V30 26 H 1.564667 0.544395 -1.701271 0
M  V30 27 H 2.251190 -0.780093 -0.809722 0
M  V30 28 H 2.373450 0.901233 1.204237 0
M  V30 29 H 1.717643 2.139813 0.014930 0
M  V30 30 H -0.822411 2.456376 -1.426994 0
M  V30 31 H -0.212567 1.209931 -2.560156 0
M  V30 32 H -2.488872 0.383303 -2.964963 0
M  V30 33 H -2.439341 2.198101 -3.027405 0
M  V30 34 H -4.245579 1.980189 -1.298390 0
M  V30 END ATOM
M  V30 BEGIN BOND
M  V30 1 1 1 2
M  V30 2 2 2 3
M  V30 3 1 3 4
M  V30 4 2 4 5
M  V30 5 1 5 6
M  V30 6 1 6 7
M  V30 7 2 7 8
M  V30 8 1 8 9
M  V30 9 2 9 10
M  V30 10 1 10 11
M  V30 11 1 11 12
M  V30 12 1 12 13
M  V30 13 1 13 14
M  V30 14 1 10 15
M  V30 15 1 15 16
M  V30 16 1 16 17
M  V30 17 1 17 18
M  V30 18 2 18 19
M  V30 19 2 6 20
M  V30 20 1 20 2
M  V30 21 1 11 7
M  V30 22 1 18 9
M  V30 23 1 1 21
M  V30 24 1 1 22
M  V30 25 1 4 23
M  V30 26 1 5 24
M  V30 27 1 8 25
M  V30 28 1 12 26
M  V30 29 1 12 27
M  V30 30 1 13 28
M  V30 31 1 13 29
M  V30 32 1 15 30
M  V30 33 1 15 31
M  V30 34 1 16 32
M  V30 35 1 16 33
M  V30 36 1 17 34
M  V30 END BOND
M  V30 END CTAB
M  END
>  <Dataset>  (440) 
ChEMBL_Kinases

>  <Ligand_Instance>  (440) 
nan

>  <PDB_ID>  (440) 
nan

>  <Standardized_SMILES>  (440) 
Nc1nccc(-c2cc3c(n2CCF)CCNC3=O)n1

>  <Name>  (440) 
nan

>  <Pocket>  (440) 
nan

>  <ATP_Site>  (440) 
nan

>  <Peripheral>  (440) 
nan

>  <Num_H_Atoms_ProtBoundConf>  (440) 
nan

>  <Num_Resolved_Atoms>  (440) 
nan

>  <Num_Not_Resolved_Atoms>  (440) 
nan

$$$$
CHEMBL250105
     RDKit          3D

  0  0  0  0  0  0  0  0  0  0999 V3000
M  V30 BEGIN CTAB
M  V30 COUNTS 38 41 0 0 0
M  V30 BEGIN ATOM
M  V30 1 C -2.302778 -3.031151 3.157546 0
M  V30 2 C -1.839593 -3.191437 1.755232 0
M  V30 3 C -2.139428 -4.200854 0.833224 0
M  V30 4 N -1.482538 -3.924717 -0.327959 0
M  V30 5 C -0.781349 -2.788303 -0.183994 0
M  V30 6 C 0.053304 -2.011523 -0.959284 0
M  V30 7 N 0.328665 -2.420294 -2.305671 0
M  V30 8 C 1.180699 -1.669691 -3.168050 0
M  V30 9 C 0.752656 -0.270727 -3.456134 0
M  V30 10 N 1.760565 0.310089 -4.352562 0
M  V30 11 N 0.618177 -0.896656 -0.515547 0
M  V30 12 C 0.423963 -0.428508 0.731464 0
M  V30 13 C 0.927355 0.690319 1.332851 0
M  V30 14 C 0.605125 0.972238 2.588491 0
M  V30 15 C 0.973298 2.064232 3.478219 0
M  V30 16 C 1.800864 3.080488 3.113826 0
M  V30 17 C 1.939097 3.940117 4.186944 0
M  V30 18 C 1.157232 3.369214 5.171011 0
M  V30 19 N 0.571169 2.235130 4.747904 0
M  V30 20 S -0.481922 -0.346087 3.094176 0
M  V30 21 C -0.411708 -1.237515 1.456288 0
M  V30 22 N -1.023506 -2.386344 1.072099 0
M  V30 23 H -3.174225 -2.315517 3.200212 0
M  V30 24 H -2.663374 -4.007657 3.543885 0
M  V30 25 H -1.457716 -2.711742 3.771733 0
M  V30 26 H -2.784451 -5.044618 1.032214 0
M  V30 27 H -0.106096 -3.293858 -2.669794 0
M  V30 28 H 2.168101 -1.584178 -2.624156 0
M  V30 29 H 1.420472 -2.218541 -4.088597 0
M  V30 30 H 0.815695 0.331005 -2.538818 0
M  V30 31 H -0.247314 -0.199302 -3.924860 0
M  V30 32 H 1.255365 0.959457 -5.008867 0
M  V30 33 H 2.299346 -0.429637 -4.840703 0
M  V30 34 H 1.593516 1.383356 0.834163 0
M  V30 35 H 2.280281 3.216824 2.159113 0
M  V30 36 H 2.498926 4.843847 4.295923 0
M  V30 37 H 1.013671 3.766728 6.177445 0
M  V30 38 H -0.066824 1.624678 5.313212 0
M  V30 END ATOM
M  V30 BEGIN BOND
M  V30 1 1 1 2
M  V30 2 2 2 3
M  V30 3 1 3 4
M  V30 4 2 4 5
M  V30 5 1 5 6
M  V30 6 1 6 7
M  V30 7 1 7 8
M  V30 8 1 8 9
M  V30 9 1 9 10
M  V30 10 2 6 11
M  V30 11 1 11 12
M  V30 12 1 12 13
M  V30 13 2 13 14
M  V30 14 1 14 15
M  V30 15 2 15 16
M  V30 16 1 16 17
M  V30 17 2 17 18
M  V30 18 1 18 19
M  V30 19 1 14 20
M  V30 20 1 20 21
M  V30 21 1 21 22
M  V30 22 1 22 2
M  V30 23 1 22 5
M  V30 24 2 21 12
M  V30 25 1 19 15
M  V30 26 1 1 23
M  V30 27 1 1 24
M  V30 28 1 1 25
M  V30 29 1 3 26
M  V30 30 1 7 27
M  V30 31 1 8 28
M  V30 32 1 8 29
M  V30 33 1 9 30
M  V30 34 1 9 31
M  V30 35 1 10 32
M  V30 36 1 10 33
M  V30 37 1 13 34
M  V30 38 1 16 35
M  V30 39 1 17 36
M  V30 40 1 18 37
M  V30 41 1 19 38
M  V30 END BOND
M  V30 END CTAB
M  END
>  <Dataset>  (441) 
ChEMBL_Kinases

>  <Ligand_Instance>  (441) 
nan

>  <PDB_ID>  (441) 
nan

>  <Standardized_SMILES>  (441) 
Cc1cnc2c(NCCN)nc3cc(-c4ccc[nH]4)sc3n12

>  <Name>  (441) 
nan

>  <Pocket>  (441) 
nan

>  <ATP_Site>  (441) 
nan

>  <Peripheral>  (441) 
nan

>  <Num_H_Atoms_ProtBoundConf>  (441) 
nan

>  <Num_Resolved_Atoms>  (441) 
nan

>  <Num_Not_Resolved_Atoms>  (441) 
nan

$$$$
CHEMBL250139
     RDKit          3D

  0  0  0  0  0  0  0  0  0  0999 V3000
M  V30 BEGIN CTAB
M  V30 COUNTS 58 62 0 0 0
M  V30 BEGIN ATOM
M  V30 1 C 4.313680 -2.040468 5.001959 0
M  V30 2 N 4.776893 -0.716519 4.821767 0
M  V30 3 C 4.260792 0.256457 5.723642 0
M  V30 4 C 5.126953 -0.307518 3.525280 0
M  V30 5 C 4.047231 -0.362070 2.514925 0
M  V30 6 C 3.244724 0.745634 2.322751 0
M  V30 7 C 2.251266 0.693442 1.392532 0
M  V30 8 N 1.979783 -0.386516 0.619869 0
M  V30 9 C 1.057614 -0.655038 -0.349314 0
M  V30 10 C 0.089395 0.365870 -0.728306 0
M  V30 11 C 0.536143 1.534591 -1.302713 0
M  V30 12 C -0.347497 2.528235 -1.672839 0
M  V30 13 N -1.654890 2.311798 -1.451344 0
M  V30 14 C -2.126278 1.194241 -0.897780 0
M  V30 15 N -3.529149 1.001617 -0.675205 0
M  V30 16 C -4.592717 0.437892 -1.467306 0
M  V30 17 O -3.999621 0.098040 -2.526409 0
M  V30 18 C -5.824161 0.550387 -0.628399 0
M  V30 19 C -5.652733 -0.212876 0.670661 0
M  V30 20 C -6.371139 -1.376498 0.005859 0
M  V30 21 C -6.904666 -0.395066 -1.029060 0
M  V30 22 N -1.247945 0.225281 -0.538756 0
M  V30 23 C 1.274930 -1.928377 -0.770027 0
M  V30 24 C 0.486738 -2.577992 -1.806692 0
M  V30 25 C -0.857680 -2.873106 -1.856190 0
M  V30 26 C -1.364844 -3.506499 -2.969959 0
M  V30 27 C -0.569159 -3.855745 -4.039536 0
M  V30 28 F -1.100720 -4.477811 -5.118999 0
M  V30 29 C 0.783469 -3.568708 -4.010263 0
M  V30 30 C 1.307582 -2.926363 -2.885145 0
M  V30 31 N 2.317142 -2.423754 -0.062646 0
M  V30 32 C 2.755604 -1.474327 0.797309 0
M  V30 33 C 3.773350 -1.464078 1.729373 0
M  V30 34 H 3.297183 -2.247331 4.614381 0
M  V30 35 H 5.073602 -2.785438 4.684684 0
M  V30 36 H 4.227231 -2.205053 6.116667 0
M  V30 37 H 3.219862 0.001808 6.071922 0
M  V30 38 H 4.268690 1.281684 5.358944 0
M  V30 39 H 4.888905 0.234558 6.643524 0
M  V30 40 H 5.481248 0.743466 3.569653 0
M  V30 41 H 5.991026 -0.896039 3.172121 0
M  V30 42 H 3.432474 1.638270 2.927965 0
M  V30 43 H 1.650486 1.587687 1.279682 0
M  V30 44 H 1.582293 1.714753 -1.482597 0
M  V30 45 H 0.016074 3.442586 -2.123611 0
M  V30 46 H -3.506985 1.430291 0.299190 0
M  V30 47 H -6.101429 1.613892 -0.499837 0
M  V30 48 H -4.591460 -0.429579 0.906474 0
M  V30 49 H -6.193523 0.232177 1.525068 0
M  V30 50 H -5.648671 -2.090867 -0.431952 0
M  V30 51 H -7.179490 -1.790517 0.609599 0
M  V30 52 H -6.831284 -0.705736 -2.072887 0
M  V30 53 H -7.903397 0.002687 -0.726691 0
M  V30 54 H -1.375709 -2.555196 -0.971019 0
M  V30 55 H -2.434745 -3.711325 -2.947186 0
M  V30 56 H 1.365325 -3.859293 -4.866309 0
M  V30 57 H 2.372828 -2.759282 -2.986230 0
M  V30 58 H 4.403987 -2.340213 1.876669 0
M  V30 END ATOM
M  V30 BEGIN BOND
M  V30 1 1 1 2
M  V30 2 1 2 3
M  V30 3 1 2 4
M  V30 4 1 4 5
M  V30 5 1 5 6
M  V30 6 2 6 7
M  V30 7 1 7 8
M  V30 8 1 8 9
M  V30 9 1 9 10
M  V30 10 2 10 11
M  V30 11 1 11 12
M  V30 12 2 12 13
M  V30 13 1 13 14
M  V30 14 1 14 15
M  V30 15 1 15 16
M  V30 16 2 16 17
M  V30 17 1 16 18
M  V30 18 1 18 19
M  V30 19 1 19 20
M  V30 20 1 20 21
M  V30 21 2 14 22
M  V30 22 2 9 23
M  V30 23 1 23 24
M  V30 24 2 24 25
M  V30 25 1 25 26
M  V30 26 2 26 27
M  V30 27 1 27 28
M  V30 28 1 27 29
M  V30 29 2 29 30
M  V30 30 1 23 31
M  V30 31 2 31 32
M  V30 32 1 32 33
M  V30 33 2 33 5
M  V30 34 1 32 8
M  V30 35 1 22 10
M  V30 36 1 30 24
M  V30 37 1 21 18
M  V30 38 1 1 34
M  V30 39 1 1 35
M  V30 40 1 1 36
M  V30 41 1 3 37
M  V30 42 1 3 38
M  V30 43 1 3 39
M  V30 44 1 4 40
M  V30 45 1 4 41
M  V30 46 1 6 42
M  V30 47 1 7 43
M  V30 48 1 11 44
M  V30 49 1 12 45
M  V30 50 1 15 46
M  V30 51 1 18 47
M  V30 52 1 19 48
M  V30 53 1 19 49
M  V30 54 1 20 50
M  V30 55 1 20 51
M  V30 56 1 21 52
M  V30 57 1 21 53
M  V30 58 1 25 54
M  V30 59 1 26 55
M  V30 60 1 29 56
M  V30 61 1 30 57
M  V30 62 1 33 58
M  V30 END BOND
M  V30 END CTAB
M  END
>  <Dataset>  (442) 
ChEMBL_Kinases

>  <Ligand_Instance>  (442) 
nan

>  <PDB_ID>  (442) 
nan

>  <Standardized_SMILES>  (442) 
CN(C)Cc1ccn2c(-c3ccnc(NC(=O)C4CCC4)n3)c(-c3ccc(F)cc3)nc2c1

>  <Name>  (442) 
nan

>  <Pocket>  (442) 
nan

>  <ATP_Site>  (442) 
nan

>  <Peripheral>  (442) 
nan

>  <Num_H_Atoms_ProtBoundConf>  (442) 
nan

>  <Num_Resolved_Atoms>  (442) 
nan

>  <Num_Not_Resolved_Atoms>  (442) 
nan

$$$$
CHEMBL250272
     RDKit          3D

  0  0  0  0  0  0  0  0  0  0999 V3000
M  V30 BEGIN CTAB
M  V30 COUNTS 52 56 0 0 0
M  V30 BEGIN ATOM
M  V30 1 N 1.082142 -0.777186 5.780530 0
M  V30 2 C 2.076355 -0.471693 4.802358 0
M  V30 3 C 1.623803 -0.725692 3.387809 0
M  V30 4 C 0.430469 0.085481 3.001779 0
M  V30 5 C 0.048708 -0.232576 1.609219 0
M  V30 6 C 0.421018 0.614438 0.574506 0
M  V30 7 C 0.105014 0.342817 -0.738562 0
M  V30 8 C 0.526305 1.234236 -1.700921 0
M  V30 9 C 1.245914 2.471591 -1.446722 0
M  V30 10 C 2.415222 2.540670 -2.212165 0
M  V30 11 C 3.240262 3.663725 -2.115669 0
M  V30 12 C 2.912186 4.716150 -1.265601 0
M  V30 13 Cl 3.938065 6.133125 -1.130436 0
M  V30 14 C 1.767191 4.611888 -0.538023 0
M  V30 15 C 0.939254 3.525422 -0.611619 0
M  V30 16 C 0.199611 0.913725 -3.002584 0
M  V30 17 N -0.498597 -0.212639 -3.341941 0
M  V30 18 C -0.886647 -1.048242 -2.363495 0
M  V30 19 O -1.501529 -2.005712 -2.841106 0
M  V30 20 C -0.598492 -0.796272 -1.047042 0
M  V30 21 C -0.996001 -1.672757 -0.073558 0
M  V30 22 C -1.700742 -2.806596 -0.372184 0
M  V30 23 C -2.106327 -3.689175 0.608754 0
M  V30 24 C -2.859508 -4.920582 0.388067 0
M  V30 25 C -3.811997 -5.298146 -0.534905 0
M  V30 26 N -4.182272 -6.566293 -0.293021 0
M  V30 27 N -3.500385 -7.033610 0.763656 0
M  V30 28 C -2.695383 -6.052185 1.189126 0
M  V30 29 C -1.747738 -3.340240 1.909431 0
M  V30 30 C -1.039464 -2.207709 2.247968 0
M  V30 31 C -0.654431 -1.351682 1.214160 0
M  V30 32 H 0.180093 -1.113066 5.379666 0
M  V30 33 H 0.958295 -0.075021 6.518424 0
M  V30 34 H 3.012453 -1.025882 4.987317 0
M  V30 35 H 2.330298 0.604301 4.912554 0
M  V30 36 H 2.468373 -0.385191 2.724744 0
M  V30 37 H 1.493791 -1.787428 3.177936 0
M  V30 38 H 0.674387 1.176861 3.038788 0
M  V30 39 H -0.411194 -0.035018 3.714373 0
M  V30 40 H 0.981936 1.492828 0.865096 0
M  V30 41 H 2.787285 1.807622 -2.903737 0
M  V30 42 H 4.163560 3.786967 -2.678438 0
M  V30 43 H 1.457616 5.398362 0.142804 0
M  V30 44 H 0.015377 3.402440 -0.064381 0
M  V30 45 H 0.521943 1.601894 -3.774644 0
M  V30 46 H -0.669052 -0.314487 -4.384075 0
M  V30 47 H -2.010439 -3.133917 -1.337571 0
M  V30 48 H -4.151460 -4.614205 -1.302238 0
M  V30 49 H -3.688497 -8.018185 1.067844 0
M  V30 50 H -2.035201 -6.206609 2.052440 0
M  V30 51 H -2.064616 -4.034703 2.705959 0
M  V30 52 H -0.842612 -2.068386 3.293023 0
M  V30 END ATOM
M  V30 BEGIN BOND
M  V30 1 1 1 2
M  V30 2 1 2 3
M  V30 3 1 3 4
M  V30 4 1 4 5
M  V30 5 2 5 6
M  V30 6 1 6 7
M  V30 7 1 7 8
M  V30 8 1 8 9
M  V30 9 2 9 10
M  V30 10 1 10 11
M  V30 11 2 11 12
M  V30 12 1 12 13
M  V30 13 1 12 14
M  V30 14 2 14 15
M  V30 15 2 8 16
M  V30 16 1 16 17
M  V30 17 1 17 18
M  V30 18 2 18 19
M  V30 19 1 18 20
M  V30 20 1 20 21
M  V30 21 2 21 22
M  V30 22 1 22 23
M  V30 23 1 23 24
M  V30 24 1 24 25
M  V30 25 2 25 26
M  V30 26 1 26 27
M  V30 27 1 27 28
M  V30 28 2 23 29
M  V30 29 1 29 30
M  V30 30 2 30 31
M  V30 31 1 31 5
M  V30 32 2 20 7
M  V30 33 1 31 21
M  V30 34 1 15 9
M  V30 35 2 28 24
M  V30 36 1 1 32
M  V30 37 1 1 33
M  V30 38 1 2 34
M  V30 39 1 2 35
M  V30 40 1 3 36
M  V30 41 1 3 37
M  V30 42 1 4 38
M  V30 43 1 4 39
M  V30 44 1 6 40
M  V30 45 1 10 41
M  V30 46 1 11 42
M  V30 47 1 14 43
M  V30 48 1 15 44
M  V30 49 1 16 45
M  V30 50 1 17 46
M  V30 51 1 22 47
M  V30 52 1 25 48
M  V30 53 1 27 49
M  V30 54 1 28 50
M  V30 55 1 29 51
M  V30 56 1 30 52
M  V30 END BOND
M  V30 END CTAB
M  END
>  <Dataset>  (443) 
ChEMBL_Kinases

>  <Ligand_Instance>  (443) 
nan

>  <PDB_ID>  (443) 
nan

>  <Standardized_SMILES>  (443) 
NCCCc1cc2c(-c3ccc(Cl)cc3)c[nH]c(=O)c2c2cc(-c3cn[nH]c3)ccc12

>  <Name>  (443) 
nan

>  <Pocket>  (443) 
nan

>  <ATP_Site>  (443) 
nan

>  <Peripheral>  (443) 
nan

>  <Num_H_Atoms_ProtBoundConf>  (443) 
nan

>  <Num_Resolved_Atoms>  (443) 
nan

>  <Num_Not_Resolved_Atoms>  (443) 
nan

$$$$
CHEMBL250145
     RDKit          3D

  0  0  0  0  0  0  0  0  0  0999 V3000
M  V30 BEGIN CTAB
M  V30 COUNTS 35 38 0 0 0
M  V30 BEGIN ATOM
M  V30 1 Br 2.202897 -0.309093 5.548174 0
M  V30 2 C 1.906377 -1.354133 3.962462 0
M  V30 3 C 2.613326 -2.493464 3.596496 0
M  V30 4 N 2.048746 -2.864744 2.423520 0
M  V30 5 N 1.083091 -2.011545 2.118968 0
M  V30 6 C 0.323510 -2.085477 1.018623 0
M  V30 7 N 0.305812 -3.008031 -0.050383 0
M  V30 8 C 1.337967 -2.668014 -1.029560 0
M  V30 9 C 1.188699 -1.248509 -1.426645 0
M  V30 10 C 0.452526 -0.655548 -2.412296 0
M  V30 11 C 0.494715 0.714385 -2.577361 0
M  V30 12 C 1.271761 1.516665 -1.762335 0
M  V30 13 N 1.990142 0.912864 -0.796317 0
M  V30 14 C 1.969656 -0.435063 -0.608289 0
M  V30 15 C -0.644092 -1.087707 0.868775 0
M  V30 16 C -0.820277 -0.063742 1.806527 0
M  V30 17 C -1.833557 0.967697 1.625920 0
M  V30 18 C -2.733570 1.146660 0.601028 0
M  V30 19 C -3.506701 2.265395 0.852249 0
M  V30 20 C -3.005445 2.722708 2.077832 0
M  V30 21 O -2.047427 1.937144 2.470697 0
M  V30 22 N -0.007343 -0.079652 2.874445 0
M  V30 23 C 0.931331 -1.037147 3.032240 0
M  V30 24 H 3.422007 -2.970943 4.122409 0
M  V30 25 H -0.353786 -3.795122 -0.101333 0
M  V30 26 H 1.096353 -3.261418 -1.959241 0
M  V30 27 H 2.338861 -2.935847 -0.672295 0
M  V30 28 H -0.114596 -1.378187 -2.984775 0
M  V30 29 H -0.113377 1.112486 -3.374698 0
M  V30 30 H 1.292651 2.587374 -1.902129 0
M  V30 31 H 2.639362 -0.660072 0.236990 0
M  V30 32 H -1.329833 -1.020160 0.027273 0
M  V30 33 H -2.753523 0.455931 -0.237941 0
M  V30 34 H -4.281954 2.589242 0.163895 0
M  V30 35 H -3.470146 3.623611 2.496366 0
M  V30 END ATOM
M  V30 BEGIN BOND
M  V30 1 1 1 2
M  V30 2 1 2 3
M  V30 3 2 3 4
M  V30 4 1 4 5
M  V30 5 1 5 6
M  V30 6 1 6 7
M  V30 7 1 7 8
M  V30 8 1 8 9
M  V30 9 2 9 10
M  V30 10 1 10 11
M  V30 11 2 11 12
M  V30 12 1 12 13
M  V30 13 2 13 14
M  V30 14 2 6 15
M  V30 15 1 15 16
M  V30 16 1 16 17
M  V30 17 2 17 18
M  V30 18 1 18 19
M  V30 19 2 19 20
M  V30 20 1 20 21
M  V30 21 2 16 22
M  V30 22 1 22 23
M  V30 23 2 23 2
M  V30 24 1 23 5
M  V30 25 1 14 9
M  V30 26 1 21 17
M  V30 27 1 3 24
M  V30 28 1 7 25
M  V30 29 1 8 26
M  V30 30 1 8 27
M  V30 31 1 10 28
M  V30 32 1 11 29
M  V30 33 1 12 30
M  V30 34 1 14 31
M  V30 35 1 15 32
M  V30 36 1 18 33
M  V30 37 1 19 34
M  V30 38 1 20 35
M  V30 END BOND
M  V30 END CTAB
M  END
>  <Dataset>  (444) 
ChEMBL_Kinases

>  <Ligand_Instance>  (444) 
nan

>  <PDB_ID>  (444) 
nan

>  <Standardized_SMILES>  (444) 
Brc1cnn2c(NCc3cccnc3)cc(-c3ccco3)nc12

>  <Name>  (444) 
nan

>  <Pocket>  (444) 
nan

>  <ATP_Site>  (444) 
nan

>  <Peripheral>  (444) 
nan

>  <Num_H_Atoms_ProtBoundConf>  (444) 
nan

>  <Num_Resolved_Atoms>  (444) 
nan

>  <Num_Not_Resolved_Atoms>  (444) 
nan

$$$$
CHEMBL250148
     RDKit          3D

  0  0  0  0  0  0  0  0  0  0999 V3000
M  V30 BEGIN CTAB
M  V30 COUNTS 39 42 0 0 0
M  V30 BEGIN ATOM
M  V30 1 Br 1.119323 -5.065938 5.152250 0
M  V30 2 C 1.555561 -4.491811 3.396254 0
M  V30 3 C 2.439078 -5.077940 2.515888 0
M  V30 4 N 2.410284 -4.324541 1.421005 0
M  V30 5 N 1.563446 -3.298133 1.553900 0
M  V30 6 C 1.240654 -2.301411 0.678012 0
M  V30 7 N 1.827649 -2.227872 -0.616118 0
M  V30 8 C 1.453010 -1.149472 -1.507449 0
M  V30 9 O 1.749971 0.129265 -0.971787 0
M  V30 10 C 1.431608 1.262619 -1.747001 0
M  V30 11 C 0.840350 1.090454 -3.004033 0
M  V30 12 C 0.519126 2.184097 -3.782225 0
M  V30 13 C 0.813846 3.420832 -3.247989 0
M  V30 14 N 1.390093 3.582732 -2.022390 0
M  V30 15 C 1.706820 2.522680 -1.256562 0
M  V30 16 C 0.318312 -1.394354 1.145336 0
M  V30 17 C -0.269368 -1.433231 2.386967 0
M  V30 18 C -1.245594 -0.455855 2.855098 0
M  V30 19 C -1.694840 0.618183 2.115279 0
M  V30 20 C -2.613591 1.512618 2.594691 0
M  V30 21 C -3.117304 1.341406 3.869897 0
M  V30 22 C -2.698944 0.286849 4.642034 0
M  V30 23 C -1.767978 -0.589902 4.110990 0
M  V30 24 N 0.120122 -2.458931 3.173032 0
M  V30 25 C 1.015868 -3.374098 2.771606 0
M  V30 26 H 3.019974 -5.964994 2.704701 0
M  V30 27 H 2.514608 -2.966145 -0.872766 0
M  V30 28 H 0.331498 -1.198572 -1.634253 0
M  V30 29 H 1.855170 -1.285259 -2.523246 0
M  V30 30 H 0.620780 0.094119 -3.396003 0
M  V30 31 H 0.061696 2.064970 -4.755846 0
M  V30 32 H 0.542770 4.262567 -3.898203 0
M  V30 33 H 2.170312 2.669159 -0.272095 0
M  V30 34 H 0.056396 -0.602800 0.460408 0
M  V30 35 H -1.307696 0.756473 1.124929 0
M  V30 36 H -2.946192 2.341722 1.995044 0
M  V30 37 H -3.843063 2.060915 4.228781 0
M  V30 38 H -3.133541 0.218372 5.621005 0
M  V30 39 H -1.463251 -1.399575 4.736974 0
M  V30 END ATOM
M  V30 BEGIN BOND
M  V30 1 1 1 2
M  V30 2 1 2 3
M  V30 3 2 3 4
M  V30 4 1 4 5
M  V30 5 1 5 6
M  V30 6 1 6 7
M  V30 7 1 7 8
M  V30 8 1 8 9
M  V30 9 1 9 10
M  V30 10 2 10 11
M  V30 11 1 11 12
M  V30 12 2 12 13
M  V30 13 1 13 14
M  V30 14 2 14 15
M  V30 15 2 6 16
M  V30 16 1 16 17
M  V30 17 1 17 18
M  V30 18 2 18 19
M  V30 19 1 19 20
M  V30 20 2 20 21
M  V30 21 1 21 22
M  V30 22 2 22 23
M  V30 23 2 17 24
M  V30 24 1 24 25
M  V30 25 2 25 2
M  V30 26 1 25 5
M  V30 27 1 15 10
M  V30 28 1 23 18
M  V30 29 1 3 26
M  V30 30 1 7 27
M  V30 31 1 8 28
M  V30 32 1 8 29
M  V30 33 1 11 30
M  V30 34 1 12 31
M  V30 35 1 13 32
M  V30 36 1 15 33
M  V30 37 1 16 34
M  V30 38 1 19 35
M  V30 39 1 20 36
M  V30 40 1 21 37
M  V30 41 1 22 38
M  V30 42 1 23 39
M  V30 END BOND
M  V30 END CTAB
M  END
>  <Dataset>  (445) 
ChEMBL_Kinases

>  <Ligand_Instance>  (445) 
nan

>  <PDB_ID>  (445) 
nan

>  <Standardized_SMILES>  (445) 
Brc1cnn2c(NCOc3cccnc3)cc(-c3ccccc3)nc12

>  <Name>  (445) 
nan

>  <Pocket>  (445) 
nan

>  <ATP_Site>  (445) 
nan

>  <Peripheral>  (445) 
nan

>  <Num_H_Atoms_ProtBoundConf>  (445) 
nan

>  <Num_Resolved_Atoms>  (445) 
nan

>  <Num_Not_Resolved_Atoms>  (445) 
nan

$$$$
CHEMBL250158
     RDKit          3D

  0  0  0  0  0  0  0  0  0  0999 V3000
M  V30 BEGIN CTAB
M  V30 COUNTS 60 64 0 0 0
M  V30 BEGIN ATOM
M  V30 1 N 5.808968 -2.280301 7.876338 0
M  V30 2 C 4.508712 -1.833864 8.219789 0
M  V30 3 O 4.792941 -2.070557 9.398042 0
M  V30 4 C 3.506798 -1.356394 7.286044 0
M  V30 5 C 2.272406 -0.945937 7.736273 0
M  V30 6 C 1.338653 -0.494806 6.819249 0
M  V30 7 C 1.718247 -0.488482 5.493267 0
M  V30 8 N 1.033948 -0.110003 4.399347 0
M  V30 9 C 1.799656 -0.274093 3.315960 0
M  V30 10 C 1.468760 0.009237 1.926126 0
M  V30 11 C 0.241802 0.519822 1.556452 0
M  V30 12 C -0.045624 0.781102 0.222125 0
M  V30 13 C 0.908919 0.529240 -0.772053 0
M  V30 14 O 0.644069 0.782964 -2.111417 0
M  V30 15 C -0.637602 1.314025 -2.458364 0
M  V30 16 C -0.774164 1.534702 -3.950706 0
M  V30 17 C -2.154704 2.091050 -4.197063 0
M  V30 18 C -3.189023 1.001120 -4.352208 0
M  V30 19 N -2.736848 -0.290014 -3.899908 0
M  V30 20 C -3.595830 -1.059091 -3.065597 0
M  V30 21 O -4.664894 -0.407491 -2.872917 0
M  V30 22 C -3.415817 -2.364458 -2.469568 0
M  V30 23 C -2.891564 -3.506255 -3.038176 0
M  V30 24 C -2.771023 -4.690655 -2.376650 0
M  V30 25 C -3.213269 -4.703356 -1.059147 0
M  V30 26 C -3.746593 -3.603352 -0.429733 0
M  V30 27 C -3.847295 -2.421611 -1.146231 0
M  V30 28 C -1.433693 -0.831973 -4.269635 0
M  V30 29 C -0.543662 0.276045 -4.722042 0
M  V30 30 C 2.145479 0.017488 -0.429115 0
M  V30 31 C 2.374481 -0.221928 0.911409 0
M  V30 32 N 2.996441 -0.766840 3.726870 0
M  V30 33 C 2.960729 -0.904270 5.064212 0
M  V30 34 C 3.896726 -1.354366 5.966850 0
M  V30 35 H 6.340422 -3.124760 7.552450 0
M  V30 36 H 6.250131 -3.171516 7.554151 0
M  V30 37 H 2.104006 -1.001687 8.802335 0
M  V30 38 H 0.375038 -0.175668 7.172401 0
M  V30 39 H 0.072678 0.250914 4.381848 0
M  V30 40 H -0.502023 0.717880 2.324212 0
M  V30 41 H -0.980709 1.176464 -0.108661 0
M  V30 42 H -1.435031 0.663974 -2.049371 0
M  V30 43 H -0.709249 2.273672 -1.902890 0
M  V30 44 H 0.002468 2.271522 -4.244027 0
M  V30 45 H -2.150398 2.672473 -5.142480 0
M  V30 46 H -2.412100 2.822117 -3.402507 0
M  V30 47 H -4.062595 1.314761 -3.747132 0
M  V30 48 H -3.555360 0.926558 -5.400966 0
M  V30 49 H -2.578622 -3.391682 -4.059942 0
M  V30 50 H -2.353433 -5.555225 -2.866046 0
M  V30 51 H -3.137245 -5.634781 -0.486635 0
M  V30 52 H -4.069762 -3.697692 0.607651 0
M  V30 53 H -4.279890 -1.590050 -0.583670 0
M  V30 54 H -1.538023 -1.525279 -5.150952 0
M  V30 55 H -1.032357 -1.448219 -3.460157 0
M  V30 56 H -0.807160 0.509640 -5.790056 0
M  V30 57 H 0.525135 -0.006034 -4.701760 0
M  V30 58 H 2.904350 -0.188594 -1.169209 0
M  V30 59 H 3.355749 -0.627677 1.197712 0
M  V30 60 H 4.874522 -1.682772 5.640746 0
M  V30 END ATOM
M  V30 BEGIN BOND
M  V30 1 1 1 2
M  V30 2 2 2 3
M  V30 3 1 2 4
M  V30 4 2 4 5
M  V30 5 1 5 6
M  V30 6 2 6 7
M  V30 7 1 7 8
M  V30 8 1 8 9
M  V30 9 1 9 10
M  V30 10 2 10 11
M  V30 11 1 11 12
M  V30 12 2 12 13
M  V30 13 1 13 14
M  V30 14 1 14 15
M  V30 15 1 15 16
M  V30 16 1 16 17
M  V30 17 1 17 18
M  V30 18 1 18 19
M  V30 19 1 19 20
M  V30 20 2 20 21
M  V30 21 1 20 22
M  V30 22 2 22 23
M  V30 23 1 23 24
M  V30 24 2 24 25
M  V30 25 1 25 26
M  V30 26 2 26 27
M  V30 27 1 19 28
M  V30 28 1 28 29
M  V30 29 1 13 30
M  V30 30 2 30 31
M  V30 31 2 9 32
M  V30 32 1 32 33
M  V30 33 2 33 34
M  V30 34 1 34 4
M  V30 35 1 33 7
M  V30 36 1 31 10
M  V30 37 1 29 16
M  V30 38 1 27 22
M  V30 39 1 1 35
M  V30 40 1 1 36
M  V30 41 1 5 37
M  V30 42 1 6 38
M  V30 43 1 8 39
M  V30 44 1 11 40
M  V30 45 1 12 41
M  V30 46 1 15 42
M  V30 47 1 15 43
M  V30 48 1 16 44
M  V30 49 1 17 45
M  V30 50 1 17 46
M  V30 51 1 18 47
M  V30 52 1 18 48
M  V30 53 1 23 49
M  V30 54 1 24 50
M  V30 55 1 25 51
M  V30 56 1 26 52
M  V30 57 1 27 53
M  V30 58 1 28 54
M  V30 59 1 28 55
M  V30 60 1 29 56
M  V30 61 1 29 57
M  V30 62 1 30 58
M  V30 63 1 31 59
M  V30 64 1 34 60
M  V30 END BOND
M  V30 END CTAB
M  END
>  <Dataset>  (446) 
ChEMBL_Kinases

>  <Ligand_Instance>  (446) 
nan

>  <PDB_ID>  (446) 
nan

>  <Standardized_SMILES>  (446) 
NC(=O)c1ccc2[nH]c(-c3ccc(OCC4CCN(C(=O)c5ccccc5)CC4)cc3)nc2c1

>  <Name>  (446) 
nan

>  <Pocket>  (446) 
nan

>  <ATP_Site>  (446) 
nan

>  <Peripheral>  (446) 
nan

>  <Num_H_Atoms_ProtBoundConf>  (446) 
nan

>  <Num_Resolved_Atoms>  (446) 
nan

>  <Num_Not_Resolved_Atoms>  (446) 
nan

$$$$
CHEMBL250159
     RDKit          3D

  0  0  0  0  0  0  0  0  0  0999 V3000
M  V30 BEGIN CTAB
M  V30 COUNTS 65 69 0 0 0
M  V30 BEGIN ATOM
M  V30 1 C 5.397003 -0.256365 2.648882 0
M  V30 2 O 5.436929 0.999416 2.033341 0
M  V30 3 C 4.909440 1.255611 0.777192 0
M  V30 4 C 4.290358 0.292998 0.009048 0
M  V30 5 C 3.796525 0.642958 -1.228102 0
M  V30 6 C 3.877296 1.928220 -1.775853 0
M  V30 7 C 3.301027 2.140405 -3.122919 0
M  V30 8 N 1.909650 2.506724 -3.125570 0
M  V30 9 C 1.138502 1.475722 -2.503056 0
M  V30 10 C -0.322438 1.871621 -2.603474 0
M  V30 11 C -0.575209 3.112354 -1.826587 0
M  V30 12 C -0.403406 3.049214 -0.349483 0
M  V30 13 O -1.157071 2.198978 0.378408 0
M  V30 14 C -1.426498 0.924541 0.571505 0
M  V30 15 C -2.417230 0.850009 1.568703 0
M  V30 16 C -2.940588 -0.371600 2.022864 0
M  V30 17 C -2.447995 -1.528691 1.453825 0
M  V30 18 C -2.939652 -2.842455 1.869008 0
M  V30 19 N -3.895917 -3.042715 2.822464 0
M  V30 20 C -4.126938 -4.360521 2.974307 0
M  V30 21 C -4.993183 -5.049947 3.805913 0
M  V30 22 C -5.004865 -6.434939 3.731534 0
M  V30 23 C -5.901479 -7.180934 4.589983 0
M  V30 24 N -5.940599 -8.602216 4.547588 0
M  V30 25 O -6.658550 -6.566595 5.386142 0
M  V30 26 C -4.170923 -7.088768 2.848983 0
M  V30 27 C -3.290104 -6.409831 2.001991 0
M  V30 28 C -3.298057 -5.024008 2.096095 0
M  V30 29 N -2.584313 -4.086925 1.433114 0
M  V30 30 C -1.479719 -1.537408 0.474911 0
M  V30 31 C -1.027816 -0.296874 0.094534 0
M  V30 32 C 0.296540 4.209499 -2.413456 0
M  V30 33 C 1.746527 3.794637 -2.535531 0
M  V30 34 C 4.500418 2.872744 -0.989573 0
M  V30 35 C 5.001206 2.528480 0.259366 0
M  V30 36 H 6.269309 -0.887905 2.373426 0
M  V30 37 H 5.390092 -0.157724 3.760451 0
M  V30 38 H 4.445478 -0.780270 2.405367 0
M  V30 39 H 4.198679 -0.718405 0.380824 0
M  V30 40 H 3.319186 -0.167519 -1.782897 0
M  V30 41 H 3.932467 2.921734 -3.637939 0
M  V30 42 H 3.391836 1.196027 -3.732204 0
M  V30 43 H 1.431802 1.275661 -1.456942 0
M  V30 44 H 1.264038 0.538258 -3.074540 0
M  V30 45 H -1.031238 1.058480 -2.470285 0
M  V30 46 H -0.442588 2.170766 -3.695469 0
M  V30 47 H -1.630922 3.427298 -2.010465 0
M  V30 48 H -0.649297 4.106934 0.015556 0
M  V30 49 H 0.712096 3.006825 -0.075526 0
M  V30 50 H -2.922107 1.654959 2.128977 0
M  V30 51 H -3.695842 -0.517842 2.777667 0
M  V30 52 H -5.654833 -4.557360 4.505233 0
M  V30 53 H -6.178478 -8.994215 3.598567 0
M  V30 54 H -6.111989 -9.405222 3.907625 0
M  V30 55 H -4.186648 -8.169839 2.797405 0
M  V30 56 H -2.627585 -6.902006 1.302707 0
M  V30 57 H -1.847482 -4.231131 0.680435 0
M  V30 58 H -1.050758 -2.400231 -0.012143 0
M  V30 59 H -0.261350 -0.218961 -0.653524 0
M  V30 60 H 0.264888 5.076701 -1.732474 0
M  V30 61 H -0.105558 4.515930 -3.383202 0
M  V30 62 H 2.238607 4.546546 -3.180525 0
M  V30 63 H 2.200915 3.880974 -1.515523 0
M  V30 64 H 4.577618 3.859791 -1.385895 0
M  V30 65 H 5.479728 3.290600 0.844008 0
M  V30 END ATOM
M  V30 BEGIN BOND
M  V30 1 1 1 2
M  V30 2 1 2 3
M  V30 3 2 3 4
M  V30 4 1 4 5
M  V30 5 2 5 6
M  V30 6 1 6 7
M  V30 7 1 7 8
M  V30 8 1 8 9
M  V30 9 1 9 10
M  V30 10 1 10 11
M  V30 11 1 11 12
M  V30 12 1 12 13
M  V30 13 1 13 14
M  V30 14 2 14 15
M  V30 15 1 15 16
M  V30 16 2 16 17
M  V30 17 1 17 18
M  V30 18 2 18 19
M  V30 19 1 19 20
M  V30 20 2 20 21
M  V30 21 1 21 22
M  V30 22 1 22 23
M  V30 23 1 23 24
M  V30 24 2 23 25
M  V30 25 2 22 26
M  V30 26 1 26 27
M  V30 27 2 27 28
M  V30 28 1 28 29
M  V30 29 1 17 30
M  V30 30 2 30 31
M  V30 31 1 11 32
M  V30 32 1 32 33
M  V30 33 1 6 34
M  V30 34 2 34 35
M  V30 35 1 35 3
M  V30 36 1 33 8
M  V30 37 1 31 14
M  V30 38 1 29 18
M  V30 39 1 28 20
M  V30 40 1 1 36
M  V30 41 1 1 37
M  V30 42 1 1 38
M  V30 43 1 4 39
M  V30 44 1 5 40
M  V30 45 1 7 41
M  V30 46 1 7 42
M  V30 47 1 9 43
M  V30 48 1 9 44
M  V30 49 1 10 45
M  V30 50 1 10 46
M  V30 51 1 11 47
M  V30 52 1 12 48
M  V30 53 1 12 49
M  V30 54 1 15 50
M  V30 55 1 16 51
M  V30 56 1 21 52
M  V30 57 1 24 53
M  V30 58 1 24 54
M  V30 59 1 26 55
M  V30 60 1 27 56
M  V30 61 1 29 57
M  V30 62 1 30 58
M  V30 63 1 31 59
M  V30 64 1 32 60
M  V30 65 1 32 61
M  V30 66 1 33 62
M  V30 67 1 33 63
M  V30 68 1 34 64
M  V30 69 1 35 65
M  V30 END BOND
M  V30 END CTAB
M  END
>  <Dataset>  (447) 
ChEMBL_Kinases

>  <Ligand_Instance>  (447) 
nan

>  <PDB_ID>  (447) 
nan

>  <Standardized_SMILES>  (447) 
COc1ccc(CN2CCC(COc3ccc(-c4nc5cc(C(N)=O)ccc5[nH]4)cc3)CC2)cc1

>  <Name>  (447) 
nan

>  <Pocket>  (447) 
nan

>  <ATP_Site>  (447) 
nan

>  <Peripheral>  (447) 
nan

>  <Num_H_Atoms_ProtBoundConf>  (447) 
nan

>  <Num_Resolved_Atoms>  (447) 
nan

>  <Num_Not_Resolved_Atoms>  (447) 
nan

$$$$
CHEMBL250183
     RDKit          3D

  0  0  0  0  0  0  0  0  0  0999 V3000
M  V30 BEGIN CTAB
M  V30 COUNTS 37 39 0 0 0
M  V30 BEGIN ATOM
M  V30 1 C 2.021499 -5.129112 2.563865 0
M  V30 2 C 2.704744 -3.753413 2.537040 0
M  V30 3 O 1.753844 -2.898800 1.892597 0
M  V30 4 C 0.485629 -2.693647 2.409239 0
M  V30 5 O 0.160666 -3.283146 3.489019 0
M  V30 6 C -0.492565 -1.826727 1.760914 0
M  V30 7 C -0.273388 -1.130597 0.592262 0
M  V30 8 C -1.200110 -0.316004 -0.019695 0
M  V30 9 N -0.953147 0.394877 -1.215856 0
M  V30 10 C 0.182579 0.569651 -2.056883 0
M  V30 11 C 1.313667 1.305374 -1.465840 0
M  V30 12 C 1.201340 2.683873 -1.593147 0
M  V30 13 C 2.147252 3.575351 -1.125112 0
M  V30 14 C 3.272943 3.092472 -0.493597 0
M  V30 15 N 3.380007 1.757419 -0.371183 0
M  V30 16 C 2.453680 0.902625 -0.830823 0
M  V30 17 N -2.396494 -0.210833 0.588681 0
M  V30 18 N -3.500824 0.475962 0.278122 0
M  V30 19 C -4.467206 0.278610 1.186429 0
M  V30 20 C -3.936846 -0.577473 2.113146 0
M  V30 21 Br -4.834021 -1.237310 3.659398 0
M  V30 22 C -2.647598 -0.873937 1.728678 0
M  V30 23 N -1.723957 -1.668212 2.312854 0
M  V30 24 H 1.503532 -5.265137 3.528011 0
M  V30 25 H 2.770041 -5.942066 2.463920 0
M  V30 26 H 1.290211 -5.223625 1.761406 0
M  V30 27 H 3.605877 -3.881571 1.910220 0
M  V30 28 H 2.933772 -3.460089 3.561473 0
M  V30 29 H 0.688523 -1.268676 0.173906 0
M  V30 30 H -1.791029 0.935773 -1.602555 0
M  V30 31 H 0.523019 -0.473416 -2.330282 0
M  V30 32 H -0.059351 1.039893 -3.031472 0
M  V30 33 H 0.350249 3.187139 -2.076668 0
M  V30 34 H 2.051423 4.648666 -1.228684 0
M  V30 35 H 4.007485 3.804225 -0.132098 0
M  V30 36 H 2.543650 -0.166988 -0.739954 0
M  V30 37 H -5.471447 0.672447 1.245638 0
M  V30 END ATOM
M  V30 BEGIN BOND
M  V30 1 1 1 2
M  V30 2 1 2 3
M  V30 3 1 3 4
M  V30 4 2 4 5
M  V30 5 1 4 6
M  V30 6 1 6 7
M  V30 7 2 7 8
M  V30 8 1 8 9
M  V30 9 1 9 10
M  V30 10 1 10 11
M  V30 11 2 11 12
M  V30 12 1 12 13
M  V30 13 2 13 14
M  V30 14 1 14 15
M  V30 15 2 15 16
M  V30 16 1 8 17
M  V30 17 1 17 18
M  V30 18 2 18 19
M  V30 19 1 19 20
M  V30 20 1 20 21
M  V30 21 2 20 22
M  V30 22 1 22 23
M  V30 23 2 23 6
M  V30 24 1 16 11
M  V30 25 1 22 17
M  V30 26 1 1 24
M  V30 27 1 1 25
M  V30 28 1 1 26
M  V30 29 1 2 27
M  V30 30 1 2 28
M  V30 31 1 7 29
M  V30 32 1 9 30
M  V30 33 1 10 31
M  V30 34 1 10 32
M  V30 35 1 12 33
M  V30 36 1 13 34
M  V30 37 1 14 35
M  V30 38 1 16 36
M  V30 39 1 19 37
M  V30 END BOND
M  V30 END CTAB
M  END
>  <Dataset>  (448) 
ChEMBL_Kinases

>  <Ligand_Instance>  (448) 
nan

>  <PDB_ID>  (448) 
nan

>  <Standardized_SMILES>  (448) 
CCOC(=O)c1cc(NCc2cccnc2)n2ncc(Br)c2n1

>  <Name>  (448) 
nan

>  <Pocket>  (448) 
nan

>  <ATP_Site>  (448) 
nan

>  <Peripheral>  (448) 
nan

>  <Num_H_Atoms_ProtBoundConf>  (448) 
nan

>  <Num_Resolved_Atoms>  (448) 
nan

>  <Num_Not_Resolved_Atoms>  (448) 
nan

$$$$
CHEMBL250222
     RDKit          3D

  0  0  0  0  0  0  0  0  0  0999 V3000
M  V30 BEGIN CTAB
M  V30 COUNTS 35 37 0 0 0
M  V30 BEGIN ATOM
M  V30 1 N -2.560805 -3.498872 3.404006 0
M  V30 2 C -1.159374 -3.099079 3.501479 0
M  V30 3 C -0.875654 -2.219413 2.302998 0
M  V30 4 C 0.527231 -1.713041 2.239380 0
M  V30 5 C 0.668473 -0.858933 1.032686 0
M  V30 6 C 1.250150 -1.435276 -0.076465 0
M  V30 7 C 1.371592 -0.669990 -1.220820 0
M  V30 8 C 1.960011 -1.279899 -2.315290 0
M  V30 9 C 2.073821 -0.505215 -3.446459 0
M  V30 10 N 1.655066 0.768406 -3.532299 0
M  V30 11 C 1.087742 1.335009 -2.454926 0
M  V30 12 O 0.754924 2.510714 -2.691464 0
M  V30 13 C 0.938825 0.628117 -1.290962 0
M  V30 14 C 0.360840 1.212253 -0.198501 0
M  V30 15 C -0.075648 2.508756 -0.231195 0
M  V30 16 C -0.650449 3.098009 0.875155 0
M  V30 17 C -0.752068 2.286273 2.012487 0
M  V30 18 C -0.319484 0.963957 2.082214 0
M  V30 19 C 0.246272 0.441366 0.931897 0
M  V30 20 H -2.872812 -4.096735 4.196945 0
M  V30 21 H -3.170844 -2.648474 3.362850 0
M  V30 22 H -0.569532 -4.043659 3.387919 0
M  V30 23 H -0.925869 -2.612677 4.448866 0
M  V30 24 H -1.609800 -1.408134 2.237903 0
M  V30 25 H -1.044245 -2.844795 1.376753 0
M  V30 26 H 0.822289 -1.138574 3.146221 0
M  V30 27 H 1.242520 -2.568727 2.213025 0
M  V30 28 H 1.597427 -2.455511 -0.041256 0
M  V30 29 H 2.303797 -2.294277 -2.277241 0
M  V30 30 H 2.536288 -0.995009 -4.296465 0
M  V30 31 H 1.814392 1.226936 -4.471492 0
M  V30 32 H -0.038620 3.193688 -1.043299 0
M  V30 33 H -1.024413 4.116662 0.940201 0
M  V30 34 H -1.209333 2.745737 2.903729 0
M  V30 35 H -0.458547 0.478950 3.020712 0
M  V30 END ATOM
M  V30 BEGIN BOND
M  V30 1 1 1 2
M  V30 2 1 2 3
M  V30 3 1 3 4
M  V30 4 1 4 5
M  V30 5 2 5 6
M  V30 6 1 6 7
M  V30 7 1 7 8
M  V30 8 2 8 9
M  V30 9 1 9 10
M  V30 10 1 10 11
M  V30 11 2 11 12
M  V30 12 1 11 13
M  V30 13 1 13 14
M  V30 14 2 14 15
M  V30 15 1 15 16
M  V30 16 2 16 17
M  V30 17 1 17 18
M  V30 18 2 18 19
M  V30 19 1 19 5
M  V30 20 2 13 7
M  V30 21 1 19 14
M  V30 22 1 1 20
M  V30 23 1 1 21
M  V30 24 1 2 22
M  V30 25 1 2 23
M  V30 26 1 3 24
M  V30 27 1 3 25
M  V30 28 1 4 26
M  V30 29 1 4 27
M  V30 30 1 6 28
M  V30 31 1 8 29
M  V30 32 1 9 30
M  V30 33 1 10 31
M  V30 34 1 15 32
M  V30 35 1 16 33
M  V30 36 1 17 34
M  V30 37 1 18 35
M  V30 END BOND
M  V30 END CTAB
M  END
>  <Dataset>  (449) 
ChEMBL_Kinases

>  <Ligand_Instance>  (449) 
nan

>  <PDB_ID>  (449) 
nan

>  <Standardized_SMILES>  (449) 
NCCCc1cc2cc[nH]c(=O)c2c2ccccc12

>  <Name>  (449) 
nan

>  <Pocket>  (449) 
nan

>  <ATP_Site>  (449) 
nan

>  <Peripheral>  (449) 
nan

>  <Num_H_Atoms_ProtBoundConf>  (449) 
nan

>  <Num_Resolved_Atoms>  (449) 
nan

>  <Num_Not_Resolved_Atoms>  (449) 
nan

$$$$
CHEMBL250224
     RDKit          3D

  0  0  0  0  0  0  0  0  0  0999 V3000
M  V30 BEGIN CTAB
M  V30 COUNTS 36 38 0 0 0
M  V30 BEGIN ATOM
M  V30 1 N 3.482668 -2.456583 5.368684 0
M  V30 2 C 2.770081 -2.114778 4.524761 0
M  V30 3 C 1.879094 -1.711429 3.464261 0
M  V30 4 C 0.910812 -2.601847 3.028990 0
M  V30 5 C 0.020538 -2.295300 2.023402 0
M  V30 6 C 0.091398 -1.054819 1.422505 0
M  V30 7 C -0.842236 -0.841708 0.431932 0
M  V30 8 C -1.865640 -1.757528 -0.064539 0
M  V30 9 C -1.365108 -2.811084 -0.997378 0
M  V30 10 C -0.725233 -2.225686 -2.240740 0
M  V30 11 N -1.616534 -1.414267 -3.013504 0
M  V30 12 C -0.750574 0.427387 -0.155933 0
M  V30 13 C 0.191450 1.355420 0.235545 0
M  V30 14 C 0.181056 2.581527 -0.425731 0
M  V30 15 C 1.149269 3.456102 0.018490 0
M  V30 16 N 2.054572 3.196585 1.006322 0
M  V30 17 C 1.998686 1.989234 1.595325 0
M  V30 18 O 2.880051 1.902051 2.469147 0
M  V30 19 C 1.078667 1.053904 1.228492 0
M  V30 20 C 1.038631 -0.166445 1.839440 0
M  V30 21 C 1.916651 -0.485339 2.840102 0
M  V30 22 H 0.848503 -3.582332 3.498442 0
M  V30 23 H -0.693953 -3.036736 1.754889 0
M  V30 24 H -2.640819 -1.184351 -0.612041 0
M  V30 25 H -2.419559 -2.285649 0.741404 0
M  V30 26 H -2.209975 -3.440557 -1.374949 0
M  V30 27 H -0.632087 -3.512794 -0.559566 0
M  V30 28 H -0.432699 -3.109098 -2.867393 0
M  V30 29 H 0.219668 -1.713080 -2.020705 0
M  V30 30 H -1.116353 -0.502401 -3.222400 0
M  V30 31 H -1.791154 -1.828962 -3.952771 0
M  V30 32 H -1.459581 0.682275 -0.956350 0
M  V30 33 H -0.504449 2.833439 -1.202738 0
M  V30 34 H 1.159069 4.423464 -0.485965 0
M  V30 35 H 2.715658 3.983602 1.208816 0
M  V30 36 H 2.693097 0.120911 3.246742 0
M  V30 END ATOM
M  V30 BEGIN BOND
M  V30 1 3 1 2
M  V30 2 1 2 3
M  V30 3 2 3 4
M  V30 4 1 4 5
M  V30 5 2 5 6
M  V30 6 1 6 7
M  V30 7 1 7 8
M  V30 8 1 8 9
M  V30 9 1 9 10
M  V30 10 1 10 11
M  V30 11 2 7 12
M  V30 12 1 12 13
M  V30 13 1 13 14
M  V30 14 2 14 15
M  V30 15 1 15 16
M  V30 16 1 16 17
M  V30 17 2 17 18
M  V30 18 1 17 19
M  V30 19 1 19 20
M  V30 20 2 20 21
M  V30 21 1 21 3
M  V30 22 1 20 6
M  V30 23 2 19 13
M  V30 24 1 4 22
M  V30 25 1 5 23
M  V30 26 1 8 24
M  V30 27 1 8 25
M  V30 28 1 9 26
M  V30 29 1 9 27
M  V30 30 1 10 28
M  V30 31 1 10 29
M  V30 32 1 11 30
M  V30 33 1 11 31
M  V30 34 1 12 32
M  V30 35 1 14 33
M  V30 36 1 15 34
M  V30 37 1 16 35
M  V30 38 1 21 36
M  V30 END BOND
M  V30 END CTAB
M  END
>  <Dataset>  (450) 
ChEMBL_Kinases

>  <Ligand_Instance>  (450) 
nan

>  <PDB_ID>  (450) 
nan

>  <Standardized_SMILES>  (450) 
N#Cc1ccc2c(CCCN)cc3cc[nH]c(=O)c3c2c1

>  <Name>  (450) 
nan

>  <Pocket>  (450) 
nan

>  <ATP_Site>  (450) 
nan

>  <Peripheral>  (450) 
nan

>  <Num_H_Atoms_ProtBoundConf>  (450) 
nan

>  <Num_Resolved_Atoms>  (450) 
nan

>  <Num_Not_Resolved_Atoms>  (450) 
nan

$$$$
CHEMBL250225
     RDKit          3D

  0  0  0  0  0  0  0  0  0  0999 V3000
M  V30 BEGIN CTAB
M  V30 COUNTS 39 41 0 0 0
M  V30 BEGIN ATOM
M  V30 1 N -0.876394 -4.978677 1.471464 0
M  V30 2 C -0.228697 -3.713020 1.825444 0
M  V30 3 C 1.236319 -3.757710 1.658695 0
M  V30 4 C 1.895068 -2.461395 2.022857 0
M  V30 5 C 1.494180 -1.275831 1.285102 0
M  V30 6 C 2.207388 -1.040455 0.112683 0
M  V30 7 C 1.957310 -0.021262 -0.779051 0
M  V30 8 C 2.707537 0.148759 -1.922655 0
M  V30 9 C 2.381255 1.198420 -2.756097 0
M  V30 10 N 1.368559 2.063761 -2.508939 0
M  V30 11 C 0.648278 1.882404 -1.389455 0
M  V30 12 O -0.236271 2.740714 -1.294882 0
M  V30 13 C 0.929380 0.857136 -0.528527 0
M  V30 14 C 0.203170 0.668653 0.608770 0
M  V30 15 C -0.816869 1.528059 0.916864 0
M  V30 16 C -1.567299 1.393373 2.066504 0
M  V30 17 C -2.670337 2.241387 2.503700 0
M  V30 18 N -2.984359 3.341380 1.621414 0
M  V30 19 O -3.369482 2.153699 3.515319 0
M  V30 20 C -1.253561 0.339804 2.922676 0
M  V30 21 C -0.238488 -0.535465 2.638765 0
M  V30 22 C 0.478229 -0.349385 1.467950 0
M  V30 23 H -0.245016 -5.652576 1.020679 0
M  V30 24 H -1.760859 -4.811596 0.958343 0
M  V30 25 H -0.700182 -2.928331 1.215802 0
M  V30 26 H -0.491979 -3.554014 2.887923 0
M  V30 27 H 1.567024 -4.134721 0.660168 0
M  V30 28 H 1.685497 -4.520304 2.376501 0
M  V30 29 H 1.672056 -2.358962 3.128154 0
M  V30 30 H 2.998046 -2.601133 1.884149 0
M  V30 31 H 3.052710 -1.682807 -0.185292 0
M  V30 32 H 3.531146 -0.534136 -2.148483 0
M  V30 33 H 3.004853 1.278556 -3.633516 0
M  V30 34 H 1.248488 2.801597 -3.231830 0
M  V30 35 H -1.178460 2.373022 0.378764 0
M  V30 36 H -3.560158 3.565426 0.800064 0
M  V30 37 H -3.663017 2.815149 1.003348 0
M  V30 38 H -1.815296 0.191379 3.845153 0
M  V30 39 H -0.022807 -1.311702 3.327584 0
M  V30 END ATOM
M  V30 BEGIN BOND
M  V30 1 1 1 2
M  V30 2 1 2 3
M  V30 3 1 3 4
M  V30 4 1 4 5
M  V30 5 2 5 6
M  V30 6 1 6 7
M  V30 7 1 7 8
M  V30 8 2 8 9
M  V30 9 1 9 10
M  V30 10 1 10 11
M  V30 11 2 11 12
M  V30 12 1 11 13
M  V30 13 1 13 14
M  V30 14 2 14 15
M  V30 15 1 15 16
M  V30 16 1 16 17
M  V30 17 1 17 18
M  V30 18 2 17 19
M  V30 19 2 16 20
M  V30 20 1 20 21
M  V30 21 2 21 22
M  V30 22 1 22 5
M  V30 23 2 13 7
M  V30 24 1 22 14
M  V30 25 1 1 23
M  V30 26 1 1 24
M  V30 27 1 2 25
M  V30 28 1 2 26
M  V30 29 1 3 27
M  V30 30 1 3 28
M  V30 31 1 4 29
M  V30 32 1 4 30
M  V30 33 1 6 31
M  V30 34 1 8 32
M  V30 35 1 9 33
M  V30 36 1 10 34
M  V30 37 1 15 35
M  V30 38 1 18 36
M  V30 39 1 18 37
M  V30 40 1 20 38
M  V30 41 1 21 39
M  V30 END BOND
M  V30 END CTAB
M  END
>  <Dataset>  (451) 
ChEMBL_Kinases

>  <Ligand_Instance>  (451) 
nan

>  <PDB_ID>  (451) 
nan

>  <Standardized_SMILES>  (451) 
NCCCc1cc2cc[nH]c(=O)c2c2cc(C(N)=O)ccc12

>  <Name>  (451) 
nan

>  <Pocket>  (451) 
nan

>  <ATP_Site>  (451) 
nan

>  <Peripheral>  (451) 
nan

>  <Num_H_Atoms_ProtBoundConf>  (451) 
nan

>  <Num_Resolved_Atoms>  (451) 
nan

>  <Num_Not_Resolved_Atoms>  (451) 
nan

$$$$
CHEMBL250140
     RDKit          3D

  0  0  0  0  0  0  0  0  0  0999 V3000
M  V30 BEGIN CTAB
M  V30 COUNTS 60 63 0 0 0
M  V30 BEGIN ATOM
M  V30 1 C 3.210112 -0.147545 4.789723 0
M  V30 2 C 3.186541 -1.005368 3.546446 0
M  V30 3 C 4.127820 -0.529342 2.491211 0
M  V30 4 C 3.874938 0.861359 1.994829 0
M  V30 5 C 2.516504 0.965644 1.402570 0
M  V30 6 O 1.682705 0.026363 1.306842 0
M  V30 7 N 2.103901 2.247051 0.889336 0
M  V30 8 C 0.800021 2.376467 0.310561 0
M  V30 9 N 0.331520 3.529491 -0.180547 0
M  V30 10 C -0.894991 3.646243 -0.724340 0
M  V30 11 C -1.730445 2.557050 -0.796119 0
M  V30 12 C -1.267209 1.358047 -0.295694 0
M  V30 13 C -1.933701 0.037413 -0.238747 0
M  V30 14 C -3.058216 -0.454907 0.407223 0
M  V30 15 C -3.780739 0.509339 1.229398 0
M  V30 16 C -3.068546 1.048341 2.305366 0
M  V30 17 C -3.625659 1.972243 3.167438 0
M  V30 18 C -4.929712 2.369582 2.950101 0
M  V30 19 F -5.473532 3.277071 3.798434 0
M  V30 20 C -5.636105 1.831620 1.878671 0
M  V30 21 C -5.089289 0.907370 1.010487 0
M  V30 22 N -3.171772 -1.764625 0.071643 0
M  V30 23 C -2.164565 -2.102335 -0.754673 0
M  V30 24 C -1.845787 -3.292552 -1.361899 0
M  V30 25 C -0.746775 -3.430867 -2.191597 0
M  V30 26 C -0.335640 -4.668128 -2.879817 0
M  V30 27 N 0.580589 -5.463534 -2.077747 0
M  V30 28 C 1.788342 -4.743748 -1.767189 0
M  V30 29 C 0.910992 -6.665737 -2.802536 0
M  V30 30 C 0.026597 -2.304731 -2.385186 0
M  V30 31 C -0.330867 -1.132449 -1.755990 0
M  V30 32 N -1.403093 -0.997417 -0.946712 0
M  V30 33 N -0.022302 1.308624 0.238807 0
M  V30 34 H 2.235828 -0.292383 5.301514 0
M  V30 35 H 4.005147 -0.492935 5.497389 0
M  V30 36 H 3.277826 0.937866 4.571305 0
M  V30 37 H 3.583358 -2.009110 3.881453 0
M  V30 38 H 2.159199 -1.192594 3.235971 0
M  V30 39 H 5.166980 -0.698794 2.801526 0
M  V30 40 H 3.969763 -1.215898 1.607943 0
M  V30 41 H 4.081836 1.639680 2.749807 0
M  V30 42 H 4.578359 1.050269 1.153294 0
M  V30 43 H 2.688764 3.113995 0.901452 0
M  V30 44 H -1.306882 4.558878 -1.130274 0
M  V30 45 H -2.728867 2.472692 -1.192570 0
M  V30 46 H -2.041592 0.768541 2.519115 0
M  V30 47 H -3.039686 2.374577 4.000609 0
M  V30 48 H -6.657572 2.142547 1.707733 0
M  V30 49 H -5.611207 0.477264 0.177812 0
M  V30 50 H -2.450386 -4.148736 -1.202982 0
M  V30 51 H -1.218923 -5.267284 -3.112705 0
M  V30 52 H 0.143931 -4.380787 -3.859345 0
M  V30 53 H 1.574572 -3.917043 -1.047763 0
M  V30 54 H 2.309640 -4.359550 -2.671967 0
M  V30 55 H 2.468069 -5.445451 -1.244753 0
M  V30 56 H 0.541194 -6.615412 -3.861525 0
M  V30 57 H 0.369113 -7.516910 -2.335389 0
M  V30 58 H 2.005777 -6.832278 -2.842772 0
M  V30 59 H 0.902211 -2.343597 -3.022829 0
M  V30 60 H 0.318589 -0.278548 -1.947471 0
M  V30 END ATOM
M  V30 BEGIN BOND
M  V30 1 1 1 2
M  V30 2 1 2 3
M  V30 3 1 3 4
M  V30 4 1 4 5
M  V30 5 2 5 6
M  V30 6 1 5 7
M  V30 7 1 7 8
M  V30 8 2 8 9
M  V30 9 1 9 10
M  V30 10 2 10 11
M  V30 11 1 11 12
M  V30 12 1 12 13
M  V30 13 2 13 14
M  V30 14 1 14 15
M  V30 15 2 15 16
M  V30 16 1 16 17
M  V30 17 2 17 18
M  V30 18 1 18 19
M  V30 19 1 18 20
M  V30 20 2 20 21
M  V30 21 1 14 22
M  V30 22 2 22 23
M  V30 23 1 23 24
M  V30 24 2 24 25
M  V30 25 1 25 26
M  V30 26 1 26 27
M  V30 27 1 27 28
M  V30 28 1 27 29
M  V30 29 1 25 30
M  V30 30 2 30 31
M  V30 31 1 31 32
M  V30 32 2 12 33
M  V30 33 1 33 8
M  V30 34 1 32 13
M  V30 35 1 21 15
M  V30 36 1 32 23
M  V30 37 1 1 34
M  V30 38 1 1 35
M  V30 39 1 1 36
M  V30 40 1 2 37
M  V30 41 1 2 38
M  V30 42 1 3 39
M  V30 43 1 3 40
M  V30 44 1 4 41
M  V30 45 1 4 42
M  V30 46 1 7 43
M  V30 47 1 10 44
M  V30 48 1 11 45
M  V30 49 1 16 46
M  V30 50 1 17 47
M  V30 51 1 20 48
M  V30 52 1 21 49
M  V30 53 1 24 50
M  V30 54 1 26 51
M  V30 55 1 26 52
M  V30 56 1 28 53
M  V30 57 1 28 54
M  V30 58 1 28 55
M  V30 59 1 29 56
M  V30 60 1 29 57
M  V30 61 1 29 58
M  V30 62 1 30 59
M  V30 63 1 31 60
M  V30 END BOND
M  V30 END CTAB
M  END
>  <Dataset>  (452) 
ChEMBL_Kinases

>  <Ligand_Instance>  (452) 
nan

>  <PDB_ID>  (452) 
nan

>  <Standardized_SMILES>  (452) 
CCCCC(=O)Nc1nccc(-c2c(-c3ccc(F)cc3)nc3cc(CN(C)C)ccn23)n1

>  <Name>  (452) 
nan

>  <Pocket>  (452) 
nan

>  <ATP_Site>  (452) 
nan

>  <Peripheral>  (452) 
nan

>  <Num_H_Atoms_ProtBoundConf>  (452) 
nan

>  <Num_Resolved_Atoms>  (452) 
nan

>  <Num_Not_Resolved_Atoms>  (452) 
nan

$$$$
CHEMBL248992
     RDKit          3D

  0  0  0  0  0  0  0  0  0  0999 V3000
M  V30 BEGIN CTAB
M  V30 COUNTS 25 27 0 0 0
M  V30 BEGIN ATOM
M  V30 1 N -1.018821 -3.455676 3.878072 0
M  V30 2 C -0.639093 -2.740565 3.052397 0
M  V30 3 C -0.159932 -1.866646 2.021721 0
M  V30 4 C 0.520804 -2.372982 0.935464 0
M  V30 5 C 0.960200 -1.488909 -0.027567 0
M  V30 6 C 1.644302 -2.064412 -1.104787 0
M  V30 7 C 2.075629 -1.164563 -2.057053 0
M  V30 8 N 1.881563 0.185882 -2.008216 0
M  V30 9 C 1.221709 0.731500 -0.967141 0
M  V30 10 O 1.126326 1.914481 -1.055440 0
M  V30 11 C 0.778213 -0.124584 -0.002962 0
M  V30 12 C 0.101249 0.376885 1.077717 0
M  V30 13 C -0.125854 1.726401 1.184781 0
M  V30 14 C -0.810905 2.221061 2.281162 0
M  V30 15 Cl -1.182465 3.924519 2.565451 0
M  V30 16 C -1.251108 1.314235 3.250541 0
M  V30 17 C -1.047060 -0.048437 3.186813 0
M  V30 18 C -0.348287 -0.485388 2.053849 0
M  V30 19 H 0.689050 -3.439328 0.870548 0
M  V30 20 H 1.826527 -3.114101 -1.197875 0
M  V30 21 H 2.608270 -1.606201 -2.897170 0
M  V30 22 H 2.287597 0.716429 -2.836177 0
M  V30 23 H 0.138396 2.494181 0.554563 0
M  V30 24 H -1.792773 1.680077 4.122923 0
M  V30 25 H -1.398090 -0.718494 3.948348 0
M  V30 END ATOM
M  V30 BEGIN BOND
M  V30 1 3 1 2
M  V30 2 1 2 3
M  V30 3 2 3 4
M  V30 4 1 4 5
M  V30 5 1 5 6
M  V30 6 2 6 7
M  V30 7 1 7 8
M  V30 8 1 8 9
M  V30 9 2 9 10
M  V30 10 1 9 11
M  V30 11 1 11 12
M  V30 12 2 12 13
M  V30 13 1 13 14
M  V30 14 1 14 15
M  V30 15 2 14 16
M  V30 16 1 16 17
M  V30 17 2 17 18
M  V30 18 1 18 3
M  V30 19 2 11 5
M  V30 20 1 18 12
M  V30 21 1 4 19
M  V30 22 1 6 20
M  V30 23 1 7 21
M  V30 24 1 8 22
M  V30 25 1 13 23
M  V30 26 1 16 24
M  V30 27 1 17 25
M  V30 END BOND
M  V30 END CTAB
M  END
>  <Dataset>  (453) 
ChEMBL_Kinases

>  <Ligand_Instance>  (453) 
nan

>  <PDB_ID>  (453) 
nan

>  <Standardized_SMILES>  (453) 
N#Cc1cc2cc[nH]c(=O)c2c2cc(Cl)ccc12

>  <Name>  (453) 
nan

>  <Pocket>  (453) 
nan

>  <ATP_Site>  (453) 
nan

>  <Peripheral>  (453) 
nan

>  <Num_H_Atoms_ProtBoundConf>  (453) 
nan

>  <Num_Resolved_Atoms>  (453) 
nan

>  <Num_Not_Resolved_Atoms>  (453) 
nan

$$$$
CHEMBL248988
     RDKit          3D

  0  0  0  0  0  0  0  0  0  0999 V3000
M  V30 BEGIN CTAB
M  V30 COUNTS 24 26 0 0 0
M  V30 BEGIN ATOM
M  V30 1 O 2.068498 0.269444 3.108979 0
M  V30 2 C 1.441828 -0.654078 2.559545 0
M  V30 3 N 1.522833 -1.776422 3.295310 0
M  V30 4 C 0.879510 -2.881672 2.815426 0
M  V30 5 C 0.152288 -2.944350 1.637660 0
M  V30 6 C 0.106680 -1.757381 0.926253 0
M  V30 7 C -0.610665 -1.787777 -0.252335 0
M  V30 8 C -0.692662 -0.635604 -1.005713 0
M  V30 9 C -0.041226 0.481975 -0.518909 0
M  V30 10 C -0.159999 1.610864 -1.321083 0
M  V30 11 C 0.477600 2.744759 -0.866064 0
M  V30 12 C 1.214937 2.823442 0.319975 0
M  V30 13 Cl 1.959107 4.354701 0.739780 0
M  V30 14 C 1.286884 1.664240 1.060374 0
M  V30 15 C 0.673159 0.512417 0.654722 0
M  V30 16 C 0.744553 -0.637202 1.389068 0
M  V30 17 H 2.031390 -1.909429 4.213598 0
M  V30 18 H 0.924110 -3.809620 3.386474 0
M  V30 19 H -0.321423 -3.845842 1.331209 0
M  V30 20 H -1.098366 -2.671919 -0.591378 0
M  V30 21 H -1.253955 -0.655373 -1.930045 0
M  V30 22 H -0.710863 1.632759 -2.250368 0
M  V30 23 H 0.391997 3.638385 -1.487049 0
M  V30 24 H 1.865922 1.825430 1.938584 0
M  V30 END ATOM
M  V30 BEGIN BOND
M  V30 1 2 1 2
M  V30 2 1 2 3
M  V30 3 1 3 4
M  V30 4 2 4 5
M  V30 5 1 5 6
M  V30 6 2 6 7
M  V30 7 1 7 8
M  V30 8 2 8 9
M  V30 9 1 9 10
M  V30 10 2 10 11
M  V30 11 1 11 12
M  V30 12 1 12 13
M  V30 13 2 12 14
M  V30 14 1 14 15
M  V30 15 2 15 16
M  V30 16 1 16 2
M  V30 17 1 16 6
M  V30 18 1 15 9
M  V30 19 1 3 17
M  V30 20 1 4 18
M  V30 21 1 5 19
M  V30 22 1 7 20
M  V30 23 1 8 21
M  V30 24 1 10 22
M  V30 25 1 11 23
M  V30 26 1 14 24
M  V30 END BOND
M  V30 END CTAB
M  END
>  <Dataset>  (454) 
ChEMBL_Kinases

>  <Ligand_Instance>  (454) 
nan

>  <PDB_ID>  (454) 
nan

>  <Standardized_SMILES>  (454) 
O=c1[nH]ccc2ccc3ccc(Cl)cc3c12

>  <Name>  (454) 
nan

>  <Pocket>  (454) 
nan

>  <ATP_Site>  (454) 
nan

>  <Peripheral>  (454) 
nan

>  <Num_H_Atoms_ProtBoundConf>  (454) 
nan

>  <Num_Resolved_Atoms>  (454) 
nan

>  <Num_Not_Resolved_Atoms>  (454) 
nan

$$$$
CHEMBL248935
     RDKit          3D

  0  0  0  0  0  0  0  0  0  0999 V3000
M  V30 BEGIN CTAB
M  V30 COUNTS 61 65 0 0 0
M  V30 BEGIN ATOM
M  V30 1 N 3.763160 1.560499 9.520372 0
M  V30 2 C 4.837663 1.845331 8.609497 0
M  V30 3 O 5.901028 2.277801 9.070781 0
M  V30 4 C 4.679619 1.627189 7.152100 0
M  V30 5 C 5.813976 1.927941 6.398344 0
M  V30 6 C 5.704402 1.737165 5.035794 0
M  V30 7 C 4.527764 1.274756 4.478643 0
M  V30 8 N 4.162186 1.008052 3.205065 0
M  V30 9 C 2.881290 0.567089 3.146753 0
M  V30 10 C 2.175863 0.188597 1.919614 0
M  V30 11 C 0.870257 -0.227445 2.088903 0
M  V30 12 C 0.252675 -0.573741 0.914431 0
M  V30 13 C 0.748207 -0.559863 -0.363208 0
M  V30 14 O 0.378395 -0.829864 -1.615037 0
M  V30 15 C -0.696684 -1.249548 -2.327897 0
M  V30 16 C -1.927506 -0.394909 -2.397693 0
M  V30 17 C -2.561861 -0.099328 -1.090533 0
M  V30 18 C -3.927641 0.533919 -1.284286 0
M  V30 19 C -4.861299 -0.398992 -2.020862 0
M  V30 20 N -4.169507 -1.421096 -2.715280 0
M  V30 21 C -4.621657 -2.741036 -2.625901 0
M  V30 22 C -3.771202 -3.653240 -3.428172 0
M  V30 23 C -4.057863 -3.880727 -4.781042 0
M  V30 24 C -3.371666 -4.703146 -5.643069 0
M  V30 25 C -2.280880 -5.379066 -5.121182 0
M  V30 26 Cl -1.430989 -6.415267 -6.242640 0
M  V30 27 C -1.945376 -5.198098 -3.794871 0
M  V30 28 C -2.656201 -4.371956 -2.978181 0
M  V30 29 C -2.936623 -1.097379 -3.288985 0
M  V30 30 C 2.089525 -0.122581 -0.452464 0
M  V30 31 C 2.809278 0.254728 0.699841 0
M  V30 32 N 2.449605 0.563012 4.419887 0
M  V30 33 C 3.416883 0.984408 5.251690 0
M  V30 34 C 3.487786 1.164007 6.634016 0
M  V30 35 H 3.524428 0.532054 9.514150 0
M  V30 36 H 3.661295 0.541027 9.393081 0
M  V30 37 H 6.722508 2.286541 6.838734 0
M  V30 38 H 6.537723 1.949717 4.412176 0
M  V30 39 H 4.850672 1.152348 2.408727 0
M  V30 40 H 0.297624 -0.311537 2.985605 0
M  V30 41 H -0.760118 -0.930266 0.914357 0
M  V30 42 H -0.420040 -1.600880 -3.375500 0
M  V30 43 H -1.070460 -2.233593 -1.865833 0
M  V30 44 H -1.644447 0.569658 -2.912336 0
M  V30 45 H -1.923016 0.600006 -0.465320 0
M  V30 46 H -2.702307 -1.012462 -0.485675 0
M  V30 47 H -4.314723 0.881122 -0.308879 0
M  V30 48 H -3.778919 1.426994 -1.919733 0
M  V30 49 H -5.510996 -0.860330 -1.247904 0
M  V30 50 H -5.539618 0.130721 -2.721004 0
M  V30 51 H -4.687957 -3.139914 -1.583243 0
M  V30 52 H -5.637188 -2.790372 -3.120777 0
M  V30 53 H -4.915811 -3.337561 -5.157763 0
M  V30 54 H -3.720190 -4.771156 -6.667821 0
M  V30 55 H -1.092155 -5.745042 -3.434741 0
M  V30 56 H -2.410607 -4.214567 -1.932211 0
M  V30 57 H -3.036336 -0.488741 -4.227594 0
M  V30 58 H -2.430131 -2.039395 -3.666761 0
M  V30 59 H 2.750057 -0.004945 -1.309569 0
M  V30 60 H 3.829658 0.598899 0.734062 0
M  V30 61 H 2.660630 0.953848 7.262777 0
M  V30 END ATOM
M  V30 BEGIN BOND
M  V30 1 1 1 2
M  V30 2 2 2 3
M  V30 3 1 2 4
M  V30 4 2 4 5
M  V30 5 1 5 6
M  V30 6 2 6 7
M  V30 7 1 7 8
M  V30 8 1 8 9
M  V30 9 1 9 10
M  V30 10 2 10 11
M  V30 11 1 11 12
M  V30 12 2 12 13
M  V30 13 1 13 14
M  V30 14 1 14 15
M  V30 15 1 15 16
M  V30 16 1 16 17
M  V30 17 1 17 18
M  V30 18 1 18 19
M  V30 19 1 19 20
M  V30 20 1 20 21
M  V30 21 1 21 22
M  V30 22 2 22 23
M  V30 23 1 23 24
M  V30 24 2 24 25
M  V30 25 1 25 26
M  V30 26 1 25 27
M  V30 27 2 27 28
M  V30 28 1 20 29
M  V30 29 1 13 30
M  V30 30 2 30 31
M  V30 31 2 9 32
M  V30 32 1 32 33
M  V30 33 2 33 34
M  V30 34 1 34 4
M  V30 35 1 33 7
M  V30 36 1 31 10
M  V30 37 1 29 16
M  V30 38 1 28 22
M  V30 39 1 1 35
M  V30 40 1 1 36
M  V30 41 1 5 37
M  V30 42 1 6 38
M  V30 43 1 8 39
M  V30 44 1 11 40
M  V30 45 1 12 41
M  V30 46 1 15 42
M  V30 47 1 15 43
M  V30 48 1 16 44
M  V30 49 1 17 45
M  V30 50 1 17 46
M  V30 51 1 18 47
M  V30 52 1 18 48
M  V30 53 1 19 49
M  V30 54 1 19 50
M  V30 55 1 21 51
M  V30 56 1 21 52
M  V30 57 1 23 53
M  V30 58 1 24 54
M  V30 59 1 27 55
M  V30 60 1 28 56
M  V30 61 1 29 57
M  V30 62 1 29 58
M  V30 63 1 30 59
M  V30 64 1 31 60
M  V30 65 1 34 61
M  V30 END BOND
M  V30 END CTAB
M  END
>  <Dataset>  (455) 
ChEMBL_Kinases

>  <Ligand_Instance>  (455) 
nan

>  <PDB_ID>  (455) 
nan

>  <Standardized_SMILES>  (455) 
NC(=O)c1ccc2[nH]c(-c3ccc(OCC4CCCN(Cc5ccc(Cl)cc5)C4)cc3)nc2c1

>  <Name>  (455) 
nan

>  <Pocket>  (455) 
nan

>  <ATP_Site>  (455) 
nan

>  <Peripheral>  (455) 
nan

>  <Num_H_Atoms_ProtBoundConf>  (455) 
nan

>  <Num_Resolved_Atoms>  (455) 
nan

>  <Num_Not_Resolved_Atoms>  (455) 
nan

$$$$
CHEMBL248934
     RDKit          3D

  0  0  0  0  0  0  0  0  0  0999 V3000
M  V30 BEGIN CTAB
M  V30 COUNTS 55 59 0 0 0
M  V30 BEGIN ATOM
M  V30 1 N 8.974675 -3.981581 2.440425 0
M  V30 2 C 9.160404 -2.576761 2.546081 0
M  V30 3 O 10.329642 -2.173668 2.811266 0
M  V30 4 C 8.057771 -1.648676 2.358028 0
M  V30 5 C 8.245326 -0.287613 2.458381 0
M  V30 6 C 7.205666 0.632710 2.283672 0
M  V30 7 C 5.926801 0.157803 1.996102 0
M  V30 8 N 4.700520 0.680424 1.765047 0
M  V30 9 C 3.814966 -0.303794 1.536507 0
M  V30 10 C 2.389053 -0.164720 1.246577 0
M  V30 11 C 1.827802 1.094904 1.190261 0
M  V30 12 C 0.485050 1.252126 0.917563 0
M  V30 13 C -0.303866 0.141276 0.699122 0
M  V30 14 O -1.653186 0.031367 0.411782 0
M  V30 15 C -2.556847 1.091450 0.274028 0
M  V30 16 C -3.743572 1.005320 1.210097 0
M  V30 17 C -4.700082 0.125919 0.420339 0
M  V30 18 N -4.494061 0.447223 -0.957814 0
M  V30 19 C -4.720766 -0.717808 -1.765930 0
M  V30 20 C -6.087965 -1.251187 -1.681754 0
M  V30 21 C -6.999129 -0.709959 -2.596095 0
M  V30 22 C -8.312781 -1.080603 -2.673050 0
M  V30 23 C -8.817043 -2.038288 -1.823443 0
M  V30 24 C -7.923677 -2.591603 -0.902507 0
M  V30 25 C -6.600669 -2.209118 -0.834865 0
M  V30 26 C -3.196623 1.023962 -1.096871 0
M  V30 27 C 0.281242 -1.128922 0.759975 0
M  V30 28 C 1.629173 -1.297425 1.033304 0
M  V30 29 N 4.501686 -1.458206 1.626907 0
M  V30 30 C 5.794951 -1.210623 1.906815 0
M  V30 31 C 6.802226 -2.140115 2.074565 0
M  V30 32 H 9.605652 -4.632392 1.961762 0
M  V30 33 H 8.277227 -4.697693 2.747435 0
M  V30 34 H 9.240386 0.099270 2.683089 0
M  V30 35 H 7.320005 1.697083 2.355279 0
M  V30 36 H 4.501241 1.693997 1.769480 0
M  V30 37 H 2.390954 2.020185 1.352717 0
M  V30 38 H -0.078339 2.169395 0.844547 0
M  V30 39 H -2.080669 2.080069 0.437401 0
M  V30 40 H -3.485859 0.617503 2.193880 0
M  V30 41 H -4.200303 2.001975 1.330974 0
M  V30 42 H -5.734563 0.268700 0.758395 0
M  V30 43 H -4.420140 -0.940208 0.663565 0
M  V30 44 H -4.481817 -0.443482 -2.814170 0
M  V30 45 H -4.044067 -1.566536 -1.455476 0
M  V30 46 H -6.712195 0.050760 -3.312504 0
M  V30 47 H -9.013896 -0.666680 -3.374124 0
M  V30 48 H -9.826423 -2.420590 -1.777431 0
M  V30 49 H -8.211345 -3.349250 -0.189700 0
M  V30 50 H -5.897246 -2.621202 -0.139117 0
M  V30 51 H -3.228622 2.076407 -1.497624 0
M  V30 52 H -2.511674 0.453990 -1.752364 0
M  V30 53 H -0.223085 -2.090815 0.608024 0
M  V30 54 H 2.124333 -2.252069 1.090403 0
M  V30 55 H 6.618843 -3.203167 1.988290 0
M  V30 END ATOM
M  V30 BEGIN BOND
M  V30 1 1 1 2
M  V30 2 2 2 3
M  V30 3 1 2 4
M  V30 4 2 4 5
M  V30 5 1 5 6
M  V30 6 2 6 7
M  V30 7 1 7 8
M  V30 8 1 8 9
M  V30 9 1 9 10
M  V30 10 2 10 11
M  V30 11 1 11 12
M  V30 12 2 12 13
M  V30 13 1 13 14
M  V30 14 1 14 15
M  V30 15 1 15 16
M  V30 16 1 16 17
M  V30 17 1 17 18
M  V30 18 1 18 19
M  V30 19 1 19 20
M  V30 20 2 20 21
M  V30 21 1 21 22
M  V30 22 2 22 23
M  V30 23 1 23 24
M  V30 24 2 24 25
M  V30 25 1 18 26
M  V30 26 1 13 27
M  V30 27 2 27 28
M  V30 28 2 9 29
M  V30 29 1 29 30
M  V30 30 2 30 31
M  V30 31 1 31 4
M  V30 32 1 30 7
M  V30 33 1 28 10
M  V30 34 1 26 15
M  V30 35 1 25 20
M  V30 36 1 1 32
M  V30 37 1 1 33
M  V30 38 1 5 34
M  V30 39 1 6 35
M  V30 40 1 8 36
M  V30 41 1 11 37
M  V30 42 1 12 38
M  V30 43 1 15 39
M  V30 44 1 16 40
M  V30 45 1 16 41
M  V30 46 1 17 42
M  V30 47 1 17 43
M  V30 48 1 19 44
M  V30 49 1 19 45
M  V30 50 1 21 46
M  V30 51 1 22 47
M  V30 52 1 23 48
M  V30 53 1 24 49
M  V30 54 1 25 50
M  V30 55 1 26 51
M  V30 56 1 26 52
M  V30 57 1 27 53
M  V30 58 1 28 54
M  V30 59 1 31 55
M  V30 END BOND
M  V30 END CTAB
M  END
>  <Dataset>  (456) 
ChEMBL_Kinases

>  <Ligand_Instance>  (456) 
nan

>  <PDB_ID>  (456) 
nan

>  <Standardized_SMILES>  (456) 
NC(=O)c1ccc2[nH]c(-c3ccc(OC4CCN(Cc5ccccc5)C4)cc3)nc2c1

>  <Name>  (456) 
nan

>  <Pocket>  (456) 
nan

>  <ATP_Site>  (456) 
nan

>  <Peripheral>  (456) 
nan

>  <Num_H_Atoms_ProtBoundConf>  (456) 
nan

>  <Num_Resolved_Atoms>  (456) 
nan

>  <Num_Not_Resolved_Atoms>  (456) 
nan

$$$$
CHEMBL248899
     RDKit          3D

  0  0  0  0  0  0  0  0  0  0999 V3000
M  V30 BEGIN CTAB
M  V30 COUNTS 44 47 0 0 0
M  V30 BEGIN ATOM
M  V30 1 C -1.105110 -5.665320 -0.009190 0
M  V30 2 O -0.249950 -4.563128 0.112109 0
M  V30 3 C 1.114173 -4.595120 0.072715 0
M  V30 4 C 1.852317 -5.749600 -0.096526 0
M  V30 5 C 3.236069 -5.812501 -0.140446 0
M  V30 6 C 3.945527 -4.618188 -0.003411 0
M  V30 7 C 3.256578 -3.442550 0.167310 0
M  V30 8 C 1.887323 -3.458288 0.200626 0
M  V30 9 C 1.213912 -2.138186 0.389705 0
M  V30 10 C 1.675098 -0.923953 0.535670 0
M  V30 11 C 0.785664 0.101609 0.691985 0
M  V30 12 N 1.059629 1.434342 0.858152 0
M  V30 13 C 0.063715 2.324751 0.999609 0
M  V30 14 N 0.432135 3.703417 1.169293 0
M  V30 15 C 1.816248 4.131559 1.189195 0
M  V30 16 C 1.956584 5.599108 1.376340 0
M  V30 17 N 1.361187 5.991701 2.621576 0
M  V30 18 C -1.275263 1.989083 0.990551 0
M  V30 19 N -2.443823 2.619788 1.102704 0
M  V30 20 C -3.463460 1.733445 1.013811 0
M  V30 21 C -2.883631 0.474989 0.835261 0
M  V30 22 C -3.602816 -0.824487 0.684918 0
M  V30 23 N -1.578632 0.690251 0.829551 0
M  V30 24 C -0.532633 -0.168594 0.690901 0
M  V30 25 S -0.542752 -2.014796 0.451121 0
M  V30 26 H -0.738652 -6.578225 0.466091 0
M  V30 27 H -1.265812 -5.903040 -1.090959 0
M  V30 28 H -2.096828 -5.393904 0.415235 0
M  V30 29 H 1.322783 -6.694436 -0.205759 0
M  V30 30 H 3.736739 -6.765171 -0.277309 0
M  V30 31 H 5.021998 -4.658985 -0.036530 0
M  V30 32 H 3.847276 -2.543603 0.268986 0
M  V30 33 H 2.751360 -0.804192 0.523457 0
M  V30 34 H -0.311456 4.423209 1.282060 0
M  V30 35 H 2.234995 3.814181 0.195716 0
M  V30 36 H 2.345986 3.612391 2.031089 0
M  V30 37 H 3.058415 5.819069 1.394085 0
M  V30 38 H 1.568668 6.162252 0.507917 0
M  V30 39 H 1.332024 5.154438 3.245656 0
M  V30 40 H 0.368390 6.261706 2.429794 0
M  V30 41 H -4.520797 1.969390 1.071783 0
M  V30 42 H -3.061851 -1.546851 1.341398 0
M  V30 43 H -4.666928 -0.717261 0.969774 0
M  V30 44 H -3.506510 -1.101115 -0.388430 0
M  V30 END ATOM
M  V30 BEGIN BOND
M  V30 1 1 1 2
M  V30 2 1 2 3
M  V30 3 2 3 4
M  V30 4 1 4 5
M  V30 5 2 5 6
M  V30 6 1 6 7
M  V30 7 2 7 8
M  V30 8 1 8 9
M  V30 9 2 9 10
M  V30 10 1 10 11
M  V30 11 1 11 12
M  V30 12 2 12 13
M  V30 13 1 13 14
M  V30 14 1 14 15
M  V30 15 1 15 16
M  V30 16 1 16 17
M  V30 17 1 13 18
M  V30 18 2 18 19
M  V30 19 1 19 20
M  V30 20 2 20 21
M  V30 21 1 21 22
M  V30 22 1 21 23
M  V30 23 1 23 24
M  V30 24 1 24 25
M  V30 25 1 8 3
M  V30 26 1 25 9
M  V30 27 2 24 11
M  V30 28 1 23 18
M  V30 29 1 1 26
M  V30 30 1 1 27
M  V30 31 1 1 28
M  V30 32 1 4 29
M  V30 33 1 5 30
M  V30 34 1 6 31
M  V30 35 1 7 32
M  V30 36 1 10 33
M  V30 37 1 14 34
M  V30 38 1 15 35
M  V30 39 1 15 36
M  V30 40 1 16 37
M  V30 41 1 16 38
M  V30 42 1 17 39
M  V30 43 1 17 40
M  V30 44 1 20 41
M  V30 45 1 22 42
M  V30 46 1 22 43
M  V30 47 1 22 44
M  V30 END BOND
M  V30 END CTAB
M  END
>  <Dataset>  (457) 
ChEMBL_Kinases

>  <Ligand_Instance>  (457) 
nan

>  <PDB_ID>  (457) 
nan

>  <Standardized_SMILES>  (457) 
COc1ccccc1-c1cc2nc(NCCN)c3ncc(C)n3c2s1

>  <Name>  (457) 
nan

>  <Pocket>  (457) 
nan

>  <ATP_Site>  (457) 
nan

>  <Peripheral>  (457) 
nan

>  <Num_H_Atoms_ProtBoundConf>  (457) 
nan

>  <Num_Resolved_Atoms>  (457) 
nan

>  <Num_Not_Resolved_Atoms>  (457) 
nan

$$$$
CHEMBL248853
     RDKit          3D

  0  0  0  0  0  0  0  0  0  0999 V3000
M  V30 BEGIN CTAB
M  V30 COUNTS 34 36 0 0 0
M  V30 BEGIN ATOM
M  V30 1 C -1.272822 -2.273166 2.598329 0
M  V30 2 C -1.538917 -1.817860 1.191923 0
M  V30 3 N -0.782829 -0.682396 0.783153 0
M  V30 4 C 0.443185 -0.697808 0.264188 0
M  V30 5 C 1.429214 -1.708193 -0.022954 0
M  V30 6 C 1.391623 -3.051842 0.224169 0
M  V30 7 C 2.380385 -3.965917 -0.050853 0
M  V30 8 N 3.516245 -3.532015 -0.620671 0
M  V30 9 C 3.592179 -2.217929 -0.878559 0
M  V30 10 N 4.742580 -1.596829 -1.486492 0
M  V30 11 N 2.597282 -1.365911 -0.590601 0
M  V30 12 C 0.712949 0.625501 -0.019073 0
M  V30 13 C -0.341294 1.416627 0.330464 0
M  V30 14 C -1.281079 0.573613 0.837780 0
M  V30 15 C -2.582971 1.118466 1.326364 0
M  V30 16 C -3.008805 2.350720 0.578943 0
M  V30 17 N -1.922281 3.325711 0.761038 0
M  V30 18 C -0.651230 2.840239 0.281633 0
M  V30 19 O 0.236214 3.601340 -0.192672 0
M  V30 20 H -0.804852 -3.274761 2.676909 0
M  V30 21 H -2.231363 -2.360434 3.186730 0
M  V30 22 H -0.643405 -1.562458 3.170816 0
M  V30 23 H -2.668794 -1.554199 1.124395 0
M  V30 24 H -1.474653 -2.670946 0.502986 0
M  V30 25 H 0.532441 -3.485747 0.695166 0
M  V30 26 H 2.275770 -5.014660 0.174268 0
M  V30 27 H 5.062921 -1.344916 -2.460693 0
M  V30 28 H 5.550275 -1.256884 -0.933351 0
M  V30 29 H 1.594790 1.105403 -0.456440 0
M  V30 30 H -2.436448 1.442168 2.391753 0
M  V30 31 H -3.373719 0.342506 1.344382 0
M  V30 32 H -3.944297 2.697936 1.054110 0
M  V30 33 H -3.186929 2.158388 -0.499743 0
M  V30 34 H -1.912972 4.292769 1.170847 0
M  V30 END ATOM
M  V30 BEGIN BOND
M  V30 1 1 1 2
M  V30 2 1 2 3
M  V30 3 1 3 4
M  V30 4 1 4 5
M  V30 5 2 5 6
M  V30 6 1 6 7
M  V30 7 2 7 8
M  V30 8 1 8 9
M  V30 9 1 9 10
M  V30 10 2 9 11
M  V30 11 2 4 12
M  V30 12 1 12 13
M  V30 13 2 13 14
M  V30 14 1 14 15
M  V30 15 1 15 16
M  V30 16 1 16 17
M  V30 17 1 17 18
M  V30 18 2 18 19
M  V30 19 1 14 3
M  V30 20 1 11 5
M  V30 21 1 18 13
M  V30 22 1 1 20
M  V30 23 1 1 21
M  V30 24 1 1 22
M  V30 25 1 2 23
M  V30 26 1 2 24
M  V30 27 1 6 25
M  V30 28 1 7 26
M  V30 29 1 10 27
M  V30 30 1 10 28
M  V30 31 1 12 29
M  V30 32 1 15 30
M  V30 33 1 15 31
M  V30 34 1 16 32
M  V30 35 1 16 33
M  V30 36 1 17 34
M  V30 END BOND
M  V30 END CTAB
M  END
>  <Dataset>  (458) 
ChEMBL_Kinases

>  <Ligand_Instance>  (458) 
nan

>  <PDB_ID>  (458) 
nan

>  <Standardized_SMILES>  (458) 
CCn1c(-c2ccnc(N)n2)cc2c1CCNC2=O

>  <Name>  (458) 
nan

>  <Pocket>  (458) 
nan

>  <ATP_Site>  (458) 
nan

>  <Peripheral>  (458) 
nan

>  <Num_H_Atoms_ProtBoundConf>  (458) 
nan

>  <Num_Resolved_Atoms>  (458) 
nan

>  <Num_Not_Resolved_Atoms>  (458) 
nan

$$$$
CHEMBL248768
     RDKit          3D

  0  0  0  0  0  0  0  0  0  0999 V3000
M  V30 BEGIN CTAB
M  V30 COUNTS 59 63 0 0 0
M  V30 BEGIN ATOM
M  V30 1 C 5.156897 -1.734755 6.822047 0
M  V30 2 N 4.437292 -1.597816 5.593084 0
M  V30 3 C 4.459771 -2.738665 4.731703 0
M  V30 4 C 3.154730 -0.987869 5.728199 0
M  V30 5 C 2.400647 -0.853658 4.455562 0
M  V30 6 C 2.500886 0.252681 3.638653 0
M  V30 7 C 1.785777 0.347659 2.463573 0
M  V30 8 N 0.955871 -0.648264 2.070016 0
M  V30 9 C 0.146586 -0.848385 1.012517 0
M  V30 10 C -0.033262 0.097236 -0.089041 0
M  V30 11 C -0.549845 1.353472 0.192552 0
M  V30 12 C -0.724125 2.253299 -0.831965 0
M  V30 13 N -0.389949 1.900976 -2.096665 0
M  V30 14 C 0.110396 0.679422 -2.359452 0
M  V30 15 N 0.438251 0.373382 -3.699793 0
M  V30 16 C -0.769233 -0.200494 -4.245640 0
M  V30 17 C -1.917671 0.715094 -4.192241 0
M  V30 18 C -2.841439 0.425952 -3.188894 0
M  V30 19 C -3.964754 1.204141 -3.026572 0
M  V30 20 C -4.136056 2.264987 -3.884051 0
M  V30 21 C -3.196839 2.529088 -4.876064 0
M  V30 22 C -2.069879 1.764779 -5.054146 0
M  V30 23 Cl -0.876312 2.076716 -6.293810 0
M  V30 24 N 0.269259 -0.173310 -1.348419 0
M  V30 25 C -0.490395 -2.067665 1.110263 0
M  V30 26 C -1.448490 -2.706985 0.213366 0
M  V30 27 C -1.255045 -3.103703 -1.091893 0
M  V30 28 C -2.252343 -3.697086 -1.826615 0
M  V30 29 C -3.475495 -3.885144 -1.200301 0
M  V30 30 F -4.451585 -4.478728 -1.953643 0
M  V30 31 C -3.711762 -3.501289 0.109564 0
M  V30 32 C -2.686368 -2.902842 0.831352 0
M  V30 33 N -0.036377 -2.594275 2.263392 0
M  V30 34 C 0.843289 -1.738443 2.853745 0
M  V30 35 C 1.546826 -1.877840 4.049809 0
M  V30 36 H 5.031155 -0.767667 7.373647 0
M  V30 37 H 6.227313 -1.956422 6.638527 0
M  V30 38 H 4.698131 -2.506606 7.499751 0
M  V30 39 H 3.661615 -3.485299 5.007033 0
M  V30 40 H 4.181746 -2.387708 3.704428 0
M  V30 41 H 5.448394 -3.215010 4.651228 0
M  V30 42 H 2.569600 -1.584081 6.479504 0
M  V30 43 H 3.324235 0.028456 6.184170 0
M  V30 44 H 3.157751 1.065634 3.930388 0
M  V30 45 H 1.876731 1.231333 1.826569 0
M  V30 46 H -0.825373 1.661349 1.193991 0
M  V30 47 H -1.117066 3.256092 -0.727661 0
M  V30 48 H 1.400434 0.587049 -4.047717 0
M  V30 49 H -0.548260 -0.409856 -5.327096 0
M  V30 50 H -0.971127 -1.193464 -3.804684 0
M  V30 51 H -2.714169 -0.420985 -2.496879 0
M  V30 52 H -4.668234 0.966199 -2.245793 0
M  V30 53 H -5.016146 2.874127 -3.756205 0
M  V30 54 H -3.356732 3.379028 -5.545218 0
M  V30 55 H -0.275208 -2.913506 -1.478630 0
M  V30 56 H -2.039474 -3.985081 -2.843356 0
M  V30 57 H -4.716109 -3.713367 0.462080 0
M  V30 58 H -2.990825 -2.649725 1.836049 0
M  V30 59 H 1.401232 -2.777095 4.615229 0
M  V30 END ATOM
M  V30 BEGIN BOND
M  V30 1 1 1 2
M  V30 2 1 2 3
M  V30 3 1 2 4
M  V30 4 1 4 5
M  V30 5 1 5 6
M  V30 6 2 6 7
M  V30 7 1 7 8
M  V30 8 1 8 9
M  V30 9 1 9 10
M  V30 10 2 10 11
M  V30 11 1 11 12
M  V30 12 2 12 13
M  V30 13 1 13 14
M  V30 14 1 14 15
M  V30 15 1 15 16
M  V30 16 1 16 17
M  V30 17 2 17 18
M  V30 18 1 18 19
M  V30 19 2 19 20
M  V30 20 1 20 21
M  V30 21 2 21 22
M  V30 22 1 22 23
M  V30 23 2 14 24
M  V30 24 2 9 25
M  V30 25 1 25 26
M  V30 26 2 26 27
M  V30 27 1 27 28
M  V30 28 2 28 29
M  V30 29 1 29 30
M  V30 30 1 29 31
M  V30 31 2 31 32
M  V30 32 1 25 33
M  V30 33 2 33 34
M  V30 34 1 34 35
M  V30 35 2 35 5
M  V30 36 1 34 8
M  V30 37 1 24 10
M  V30 38 1 32 26
M  V30 39 1 22 17
M  V30 40 1 1 36
M  V30 41 1 1 37
M  V30 42 1 1 38
M  V30 43 1 3 39
M  V30 44 1 3 40
M  V30 45 1 3 41
M  V30 46 1 4 42
M  V30 47 1 4 43
M  V30 48 1 6 44
M  V30 49 1 7 45
M  V30 50 1 11 46
M  V30 51 1 12 47
M  V30 52 1 15 48
M  V30 53 1 16 49
M  V30 54 1 16 50
M  V30 55 1 18 51
M  V30 56 1 19 52
M  V30 57 1 20 53
M  V30 58 1 21 54
M  V30 59 1 27 55
M  V30 60 1 28 56
M  V30 61 1 31 57
M  V30 62 1 32 58
M  V30 63 1 35 59
M  V30 END BOND
M  V30 END CTAB
M  END
>  <Dataset>  (459) 
ChEMBL_Kinases

>  <Ligand_Instance>  (459) 
nan

>  <PDB_ID>  (459) 
nan

>  <Standardized_SMILES>  (459) 
CN(C)Cc1ccn2c(-c3ccnc(NCc4ccccc4Cl)n3)c(-c3ccc(F)cc3)nc2c1

>  <Name>  (459) 
nan

>  <Pocket>  (459) 
nan

>  <ATP_Site>  (459) 
nan

>  <Peripheral>  (459) 
nan

>  <Num_H_Atoms_ProtBoundConf>  (459) 
nan

>  <Num_Resolved_Atoms>  (459) 
nan

>  <Num_Not_Resolved_Atoms>  (459) 
nan

$$$$
CHEMBL248757
     RDKit          3D

  0  0  0  0  0  0  0  0  0  0999 V3000
M  V30 BEGIN CTAB
M  V30 COUNTS 50 53 0 0 0
M  V30 BEGIN ATOM
M  V30 1 N -4.795214 -4.242120 -4.812025 0
M  V30 2 C -3.930374 -3.483909 -4.919977 0
M  V30 3 C -2.857580 -2.552373 -5.077395 0
M  V30 4 N -1.806347 -2.818544 -5.866118 0
M  V30 5 C -0.837731 -1.889519 -5.958155 0
M  V30 6 C -0.991368 -0.730939 -5.236869 0
M  V30 7 N -2.060184 -0.462731 -4.436874 0
M  V30 8 C -3.021054 -1.399668 -4.354377 0
M  V30 9 O -3.978209 -0.927792 -3.514291 0
M  V30 10 C -3.816148 -0.219364 -2.330215 0
M  V30 11 C -3.059515 -0.931974 -1.241224 0
M  V30 12 C -3.021366 -0.074833 -0.015147 0
M  V30 13 C -2.184623 1.166045 -0.215192 0
M  V30 14 O -0.898752 1.026033 -0.374127 0
M  V30 15 C 0.369321 1.020936 -0.539557 0
M  V30 16 C 0.940952 0.684882 0.703649 0
M  V30 17 C 2.304873 0.553362 1.023302 0
M  V30 18 N 2.843230 0.213694 2.276108 0
M  V30 19 C 2.155458 -0.082126 3.530594 0
M  V30 20 C 1.394573 -1.260608 3.495707 0
M  V30 21 C 0.167011 -1.875254 3.272538 0
M  V30 22 N -0.027728 -3.186580 3.380639 0
M  V30 23 C 0.899245 -3.943391 3.693754 0
M  V30 24 S 2.376246 -2.791980 3.913844 0
M  V30 25 C 3.162858 0.796666 -0.059149 0
M  V30 26 Cl 4.889436 0.658356 0.235353 0
M  V30 27 C 2.632005 1.128429 -1.290534 0
M  V30 28 C 1.279239 1.241874 -1.543415 0
M  V30 29 N 1.110031 1.584927 -2.914417 0
M  V30 30 C 0.379074 0.825824 -3.853354 0
M  V30 31 O 0.237700 0.161064 -2.800007 0
M  V30 32 N -0.196275 0.430541 -5.076586 0
M  V30 33 H 0.099016 -1.738600 -6.455907 0
M  V30 34 H -4.837854 0.034746 -1.951160 0
M  V30 35 H -3.340292 0.767285 -2.557798 0
M  V30 36 H -3.478866 -1.940068 -1.053075 0
M  V30 37 H -2.006113 -1.040599 -1.638369 0
M  V30 38 H -4.088078 0.240085 0.185077 0
M  V30 39 H -2.744646 -0.637650 0.901871 0
M  V30 40 H -2.761920 1.788444 -0.949176 0
M  V30 41 H -2.374534 1.766021 0.753995 0
M  V30 42 H 0.383074 0.481932 1.614805 0
M  V30 43 H 3.864402 0.153766 2.360662 0
M  V30 44 H 1.447632 0.804323 3.641543 0
M  V30 45 H 2.816735 -0.002215 4.393773 0
M  V30 46 H -0.592318 -1.154840 3.008553 0
M  V30 47 H 0.870026 -5.022829 3.814455 0
M  V30 48 H 3.430175 1.287166 -2.025897 0
M  V30 49 H 1.562199 2.459422 -3.247805 0
M  V30 50 H -0.222732 0.788426 -6.040543 0
M  V30 END ATOM
M  V30 BEGIN BOND
M  V30 1 3 1 2
M  V30 2 1 2 3
M  V30 3 2 3 4
M  V30 4 1 4 5
M  V30 5 2 5 6
M  V30 6 1 6 7
M  V30 7 2 7 8
M  V30 8 1 8 9
M  V30 9 1 9 10
M  V30 10 1 10 11
M  V30 11 1 11 12
M  V30 12 1 12 13
M  V30 13 1 13 14
M  V30 14 1 14 15
M  V30 15 2 15 16
M  V30 16 1 16 17
M  V30 17 1 17 18
M  V30 18 1 18 19
M  V30 19 1 19 20
M  V30 20 2 20 21
M  V30 21 1 21 22
M  V30 22 2 22 23
M  V30 23 1 23 24
M  V30 24 2 17 25
M  V30 25 1 25 26
M  V30 26 1 25 27
M  V30 27 2 27 28
M  V30 28 1 28 29
M  V30 29 1 29 30
M  V30 30 2 30 31
M  V30 31 1 30 32
M  V30 32 1 8 3
M  V30 33 1 28 15
M  V30 34 1 32 6
M  V30 35 1 24 20
M  V30 36 1 5 33
M  V30 37 1 10 34
M  V30 38 1 10 35
M  V30 39 1 11 36
M  V30 40 1 11 37
M  V30 41 1 12 38
M  V30 42 1 12 39
M  V30 43 1 13 40
M  V30 44 1 13 41
M  V30 45 1 16 42
M  V30 46 1 18 43
M  V30 47 1 19 44
M  V30 48 1 19 45
M  V30 49 1 21 46
M  V30 50 1 23 47
M  V30 51 1 27 48
M  V30 52 1 29 49
M  V30 53 1 32 50
M  V30 END BOND
M  V30 END CTAB
M  END
>  <Dataset>  (460) 
ChEMBL_Kinases

>  <Ligand_Instance>  (460) 
nan

>  <PDB_ID>  (460) 
nan

>  <Standardized_SMILES>  (460) 
N#Cc1ncc2nc1OCCCCOc1cc(NCc3cncs3)c(Cl)cc1NC(=O)N2

>  <Name>  (460) 
nan

>  <Pocket>  (460) 
nan

>  <ATP_Site>  (460) 
nan

>  <Peripheral>  (460) 
nan

>  <Num_H_Atoms_ProtBoundConf>  (460) 
nan

>  <Num_Resolved_Atoms>  (460) 
nan

>  <Num_Not_Resolved_Atoms>  (460) 
nan

$$$$
CHEMBL248665
     RDKit          3D

  0  0  0  0  0  0  0  0  0  0999 V3000
M  V30 BEGIN CTAB
M  V30 COUNTS 52 56 0 0 0
M  V30 BEGIN ATOM
M  V30 1 N -2.969564 -3.265993 -3.694756 0
M  V30 2 C -1.671633 -2.851062 -3.134936 0
M  V30 3 C -1.413271 -3.467773 -1.818926 0
M  V30 4 C -0.100840 -3.086756 -1.202266 0
M  V30 5 C 0.006258 -1.649650 -1.009761 0
M  V30 6 C -0.514122 -1.127497 0.188588 0
M  V30 7 C -0.550340 0.199544 0.463169 0
M  V30 8 C -1.078045 0.606915 1.669809 0
M  V30 9 C -1.653573 -0.249202 2.694598 0
M  V30 10 C -2.653813 -1.187038 2.499669 0
M  V30 11 C -3.154666 -1.985231 3.504576 0
M  V30 12 C -2.596901 -1.800091 4.748848 0
M  V30 13 C -1.611544 -0.890606 4.991930 0
M  V30 14 Cl -0.915619 -0.673805 6.600384 0
M  V30 15 C -1.113930 -0.093056 3.978031 0
M  V30 16 C -1.081013 1.983709 1.898042 0
M  V30 17 N -0.610644 2.928882 1.030590 0
M  V30 18 C -0.107377 2.482764 -0.132817 0
M  V30 19 O 0.289411 3.421511 -0.844181 0
M  V30 20 C -0.075453 1.147455 -0.415833 0
M  V30 21 C 0.442818 0.686653 -1.596015 0
M  V30 22 C 0.966445 1.555808 -2.517897 0
M  V30 23 C 1.531730 1.139985 -3.711241 0
M  V30 24 C 2.110101 1.998524 -4.742305 0
M  V30 25 C 2.154961 1.806382 -6.082559 0
M  V30 26 N 2.784966 2.852747 -6.664340 0
M  V30 27 N 3.140058 3.704149 -5.717291 0
M  V30 28 C 2.745499 3.217841 -4.528125 0
M  V30 29 C 1.550124 -0.226013 -3.946920 0
M  V30 30 C 1.024340 -1.096148 -3.022997 0
M  V30 31 C 0.469723 -0.657926 -1.852782 0
M  V30 32 H -3.649626 -3.199260 -2.919791 0
M  V30 33 H -3.218447 -2.499162 -4.375201 0
M  V30 34 H -1.713454 -1.738631 -2.996501 0
M  V30 35 H -0.924482 -3.065949 -3.903807 0
M  V30 36 H -1.428080 -4.598198 -1.978823 0
M  V30 37 H -2.277666 -3.200895 -1.154529 0
M  V30 38 H 0.013010 -3.559930 -0.175525 0
M  V30 39 H 0.678885 -3.512869 -1.877297 0
M  V30 40 H -0.888015 -1.833284 0.916633 0
M  V30 41 H -3.077520 -1.298336 1.517444 0
M  V30 42 H -3.936010 -2.705510 3.306118 0
M  V30 43 H -2.958721 -2.404130 5.568041 0
M  V30 44 H -0.330396 0.631041 4.170245 0
M  V30 45 H -1.495735 2.340076 2.853267 0
M  V30 46 H -0.677209 3.930414 1.337449 0
M  V30 47 H 1.017521 2.620227 -2.463983 0
M  V30 48 H 1.766734 0.973086 -6.641594 0
M  V30 49 H 3.646109 4.606870 -5.888845 0
M  V30 50 H 2.901023 3.700587 -3.569584 0
M  V30 51 H 1.988651 -0.602363 -4.876587 0
M  V30 52 H 1.097031 -2.141116 -3.273524 0
M  V30 END ATOM
M  V30 BEGIN BOND
M  V30 1 1 1 2
M  V30 2 1 2 3
M  V30 3 1 3 4
M  V30 4 1 4 5
M  V30 5 2 5 6
M  V30 6 1 6 7
M  V30 7 1 7 8
M  V30 8 1 8 9
M  V30 9 2 9 10
M  V30 10 1 10 11
M  V30 11 2 11 12
M  V30 12 1 12 13
M  V30 13 1 13 14
M  V30 14 2 13 15
M  V30 15 2 8 16
M  V30 16 1 16 17
M  V30 17 1 17 18
M  V30 18 2 18 19
M  V30 19 1 18 20
M  V30 20 1 20 21
M  V30 21 2 21 22
M  V30 22 1 22 23
M  V30 23 1 23 24
M  V30 24 1 24 25
M  V30 25 2 25 26
M  V30 26 1 26 27
M  V30 27 1 27 28
M  V30 28 2 23 29
M  V30 29 1 29 30
M  V30 30 2 30 31
M  V30 31 1 31 5
M  V30 32 2 20 7
M  V30 33 1 31 21
M  V30 34 1 15 9
M  V30 35 2 28 24
M  V30 36 1 1 32
M  V30 37 1 1 33
M  V30 38 1 2 34
M  V30 39 1 2 35
M  V30 40 1 3 36
M  V30 41 1 3 37
M  V30 42 1 4 38
M  V30 43 1 4 39
M  V30 44 1 6 40
M  V30 45 1 10 41
M  V30 46 1 11 42
M  V30 47 1 12 43
M  V30 48 1 15 44
M  V30 49 1 16 45
M  V30 50 1 17 46
M  V30 51 1 22 47
M  V30 52 1 25 48
M  V30 53 1 27 49
M  V30 54 1 28 50
M  V30 55 1 29 51
M  V30 56 1 30 52
M  V30 END BOND
M  V30 END CTAB
M  END
>  <Dataset>  (461) 
ChEMBL_Kinases

>  <Ligand_Instance>  (461) 
nan

>  <PDB_ID>  (461) 
nan

>  <Standardized_SMILES>  (461) 
NCCCc1cc2c(-c3cccc(Cl)c3)c[nH]c(=O)c2c2cc(-c3cn[nH]c3)ccc12

>  <Name>  (461) 
nan

>  <Pocket>  (461) 
nan

>  <ATP_Site>  (461) 
nan

>  <Peripheral>  (461) 
nan

>  <Num_H_Atoms_ProtBoundConf>  (461) 
nan

>  <Num_Resolved_Atoms>  (461) 
nan

>  <Num_Not_Resolved_Atoms>  (461) 
nan

$$$$
CHEMBL248584
     RDKit          3D

  0  0  0  0  0  0  0  0  0  0999 V3000
M  V30 BEGIN CTAB
M  V30 COUNTS 36 40 0 0 0
M  V30 BEGIN ATOM
M  V30 1 O 0.622140 -2.312677 5.109086 0
M  V30 2 C 0.642526 -2.528217 3.883907 0
M  V30 3 N 0.873026 -3.829859 3.641854 0
M  V30 4 C 0.923358 -4.219041 2.334419 0
M  V30 5 C 0.757811 -3.389817 1.244950 0
M  V30 6 C 0.522239 -2.054876 1.548542 0
M  V30 7 C 0.352958 -1.203080 0.481653 0
M  V30 8 N 0.371376 -1.416101 -0.867203 0
M  V30 9 C 0.144045 -0.199890 -1.445279 0
M  V30 10 C 0.066632 0.116177 -2.878250 0
M  V30 11 C -0.177427 1.426219 -3.304935 0
M  V30 12 C -0.239835 1.668806 -4.662693 0
M  V30 13 C -0.064899 0.640494 -5.564607 0
M  V30 14 N 0.167073 -0.600017 -5.098604 0
M  V30 15 C 0.240682 -0.907833 -3.789285 0
M  V30 16 N -0.007651 0.724547 -0.453932 0
M  V30 17 C 0.116807 0.130390 0.736605 0
M  V30 18 C 0.066124 0.522437 2.059061 0
M  V30 19 C -0.175324 1.880377 2.239728 0
M  V30 20 C -0.232237 2.308235 3.557407 0
M  V30 21 C -0.065465 1.474703 4.667967 0
M  V30 22 F -0.149640 2.047223 5.892055 0
M  V30 23 C 0.170018 0.142682 4.401549 0
M  V30 24 C 0.236201 -0.333678 3.120667 0
M  V30 25 C 0.467327 -1.640069 2.858530 0
M  V30 26 H 1.021807 -4.598142 4.349490 0
M  V30 27 H 1.107816 -5.264342 2.098014 0
M  V30 28 H 0.810031 -3.764730 0.247182 0
M  V30 29 H 0.525158 -2.312513 -1.376037 0
M  V30 30 H -0.307615 2.197144 -2.557816 0
M  V30 31 H -0.427917 2.674460 -5.027782 0
M  V30 32 H -0.123403 0.883942 -6.619130 0
M  V30 33 H 0.432793 -1.942788 -3.496490 0
M  V30 34 H -0.313520 2.581048 1.431025 0
M  V30 35 H -0.420099 3.367628 3.719810 0
M  V30 36 H 0.280749 -0.395712 5.313526 0
M  V30 END ATOM
M  V30 BEGIN BOND
M  V30 1 2 1 2
M  V30 2 1 2 3
M  V30 3 1 3 4
M  V30 4 2 4 5
M  V30 5 1 5 6
M  V30 6 2 6 7
M  V30 7 1 7 8
M  V30 8 1 8 9
M  V30 9 1 9 10
M  V30 10 2 10 11
M  V30 11 1 11 12
M  V30 12 2 12 13
M  V30 13 1 13 14
M  V30 14 2 14 15
M  V30 15 2 9 16
M  V30 16 1 16 17
M  V30 17 2 17 18
M  V30 18 1 18 19
M  V30 19 2 19 20
M  V30 20 1 20 21
M  V30 21 1 21 22
M  V30 22 2 21 23
M  V30 23 1 23 24
M  V30 24 2 24 25
M  V30 25 1 25 2
M  V30 26 1 25 6
M  V30 27 1 17 7
M  V30 28 1 24 18
M  V30 29 1 15 10
M  V30 30 1 3 26
M  V30 31 1 4 27
M  V30 32 1 5 28
M  V30 33 1 8 29
M  V30 34 1 11 30
M  V30 35 1 12 31
M  V30 36 1 13 32
M  V30 37 1 15 33
M  V30 38 1 19 34
M  V30 39 1 20 35
M  V30 40 1 23 36
M  V30 END BOND
M  V30 END CTAB
M  END
>  <Dataset>  (462) 
ChEMBL_Kinases

>  <Ligand_Instance>  (462) 
nan

>  <PDB_ID>  (462) 
nan

>  <Standardized_SMILES>  (462) 
O=c1[nH]ccc2c3[nH]c(-c4cccnc4)nc3c3ccc(F)cc3c12

>  <Name>  (462) 
nan

>  <Pocket>  (462) 
nan

>  <ATP_Site>  (462) 
nan

>  <Peripheral>  (462) 
nan

>  <Num_H_Atoms_ProtBoundConf>  (462) 
nan

>  <Num_Resolved_Atoms>  (462) 
nan

>  <Num_Not_Resolved_Atoms>  (462) 
nan

$$$$
CHEMBL248533
     RDKit          3D

  0  0  0  0  0  0  0  0  0  0999 V3000
M  V30 BEGIN CTAB
M  V30 COUNTS 44 47 0 0 0
M  V30 BEGIN ATOM
M  V30 1 C 3.629528 -7.185008 1.920759 0
M  V30 2 C 3.083778 -5.841815 1.608916 0
M  V30 3 C 2.489160 -5.635433 0.374914 0
M  V30 4 C 1.973837 -4.369029 0.079283 0
M  V30 5 C 2.071728 -3.369672 1.017671 0
M  V30 6 N 1.557620 -2.071002 0.747920 0
M  V30 7 C 2.265115 -0.992938 0.152764 0
M  V30 8 O 3.446600 -1.099982 -0.197794 0
M  V30 9 C 1.627011 0.302294 -0.075275 0
M  V30 10 C 2.369754 1.308904 -0.657663 0
M  V30 11 C 1.863904 2.586703 -0.923111 0
M  V30 12 C 0.553455 2.863666 -0.587891 0
M  V30 13 N -0.226949 3.961875 -0.702974 0
M  V30 14 C -1.457556 3.707530 -0.214698 0
M  V30 15 C -1.463666 2.393125 0.230542 0
M  V30 16 C -0.190084 1.881239 -0.013401 0
M  V30 17 C 0.323589 0.626713 0.241642 0
M  V30 18 C -2.663085 1.723791 0.848545 0
M  V30 19 C -2.540002 1.716622 2.336625 0
M  V30 20 C -3.936198 2.414104 0.416350 0
M  V30 21 N -3.810134 3.869521 0.500149 0
M  V30 22 C -2.674819 4.497439 -0.082930 0
M  V30 23 O -2.724758 5.693254 -0.469843 0
M  V30 24 C 2.668309 -3.560203 2.267506 0
M  V30 25 C 3.182344 -4.826249 2.560400 0
M  V30 26 H 2.810192 -7.888124 2.249507 0
M  V30 27 H 4.008199 -7.629215 0.970908 0
M  V30 28 H 4.440591 -7.141332 2.657398 0
M  V30 29 H 2.414009 -6.431526 -0.366053 0
M  V30 30 H 1.498560 -4.137954 -0.859996 0
M  V30 31 H 0.560300 -1.980622 1.043848 0
M  V30 32 H 3.400489 1.166024 -0.946611 0
M  V30 33 H 2.474522 3.340811 -1.377134 0
M  V30 34 H 0.065585 4.859726 -1.101431 0
M  V30 35 H -0.272865 -0.151023 0.699002 0
M  V30 36 H -2.748250 0.674434 0.489807 0
M  V30 37 H -3.031041 0.799919 2.723406 0
M  V30 38 H -3.041651 2.623227 2.733415 0
M  V30 39 H -1.463790 1.670032 2.589473 0
M  V30 40 H -4.235636 2.155750 -0.603268 0
M  V30 41 H -4.722965 2.053640 1.110848 0
M  V30 42 H -4.541779 4.459977 0.982571 0
M  V30 43 H 2.716764 -2.732210 2.969182 0
M  V30 44 H 3.648171 -4.977803 3.534312 0
M  V30 END ATOM
M  V30 BEGIN BOND
M  V30 1 1 1 2
M  V30 2 2 2 3
M  V30 3 1 3 4
M  V30 4 2 4 5
M  V30 5 1 5 6
M  V30 6 1 6 7
M  V30 7 2 7 8
M  V30 8 1 7 9
M  V30 9 2 9 10
M  V30 10 1 10 11
M  V30 11 2 11 12
M  V30 12 1 12 13
M  V30 13 1 13 14
M  V30 14 2 14 15
M  V30 15 1 15 16
M  V30 16 2 16 17
M  V30 17 1 15 18
M  V30 18 1 18 19
M  V30 19 1 18 20
M  V30 20 1 20 21
M  V30 21 1 21 22
M  V30 22 2 22 23
M  V30 23 1 5 24
M  V30 24 2 24 25
M  V30 25 1 25 2
M  V30 26 1 17 9
M  V30 27 1 16 12
M  V30 28 1 22 14
M  V30 29 1 1 26
M  V30 30 1 1 27
M  V30 31 1 1 28
M  V30 32 1 3 29
M  V30 33 1 4 30
M  V30 34 1 6 31
M  V30 35 1 10 32
M  V30 36 1 11 33
M  V30 37 1 13 34
M  V30 38 1 17 35
M  V30 39 1 18 36
M  V30 40 1 19 37
M  V30 41 1 19 38
M  V30 42 1 19 39
M  V30 43 1 20 40
M  V30 44 1 20 41
M  V30 45 1 21 42
M  V30 46 1 24 43
M  V30 47 1 25 44
M  V30 END BOND
M  V30 END CTAB
M  END
>  <Dataset>  (463) 
ChEMBL_Kinases

>  <Ligand_Instance>  (463) 
nan

>  <PDB_ID>  (463) 
nan

>  <Standardized_SMILES>  (463) 
Cc1ccc(NC(=O)c2ccc3[nH]c4c(c3c2)C(C)CNC4=O)cc1

>  <Name>  (463) 
nan

>  <Pocket>  (463) 
nan

>  <ATP_Site>  (463) 
nan

>  <Peripheral>  (463) 
nan

>  <Num_H_Atoms_ProtBoundConf>  (463) 
nan

>  <Num_Resolved_Atoms>  (463) 
nan

>  <Num_Not_Resolved_Atoms>  (463) 
nan

$$$$
CHEMBL248532
     RDKit          3D

  0  0  0  0  0  0  0  0  0  0999 V3000
M  V30 BEGIN CTAB
M  V30 COUNTS 45 48 0 0 0
M  V30 BEGIN ATOM
M  V30 1 C 2.641177 -3.924354 2.294260 0
M  V30 2 C 1.867128 -4.208214 1.027757 0
M  V30 3 C 1.997292 -5.644551 0.594466 0
M  V30 4 N 3.274856 -5.870012 -0.061107 0
M  V30 5 C 3.658930 -5.025018 -1.125428 0
M  V30 6 O 4.427154 -5.386023 -2.041039 0
M  V30 7 C 3.118564 -3.662400 -1.137124 0
M  V30 8 N 3.266296 -2.618836 -1.972522 0
M  V30 9 C 2.522681 -1.578409 -1.495400 0
M  V30 10 C 2.332196 -0.297652 -1.974259 0
M  V30 11 C 1.501912 0.574259 -1.270245 0
M  V30 12 C 0.873081 0.164680 -0.103050 0
M  V30 13 C -0.007219 1.024756 0.681607 0
M  V30 14 O -0.571009 0.627409 1.741688 0
M  V30 15 N -0.310107 2.361708 0.339365 0
M  V30 16 C -1.193633 2.957682 1.284011 0
M  V30 17 C -0.845290 3.651684 2.424463 0
M  V30 18 C -1.810767 4.180015 3.256275 0
M  V30 19 C -3.169441 4.031242 2.973701 0
M  V30 20 C -3.572658 3.347887 1.848964 0
M  V30 21 C -4.970390 3.142740 1.472622 0
M  V30 22 N -5.942576 3.691406 2.331870 0
M  V30 23 O -5.389195 2.536617 0.476564 0
M  V30 24 C -2.567811 2.837581 1.047688 0
M  V30 25 C 1.082416 -1.121246 0.351120 0
M  V30 26 C 1.904844 -2.014680 -0.328545 0
M  V30 27 C 2.278261 -3.342560 -0.090914 0
M  V30 28 H 3.460672 -4.644539 2.461948 0
M  V30 29 H 3.103648 -2.904967 2.292482 0
M  V30 30 H 1.983649 -3.951140 3.191729 0
M  V30 31 H 0.795641 -4.015586 1.275819 0
M  V30 32 H 1.205868 -5.836327 -0.153794 0
M  V30 33 H 1.860141 -6.317355 1.462920 0
M  V30 34 H 3.931572 -6.643875 0.227069 0
M  V30 35 H 3.860263 -2.627165 -2.841039 0
M  V30 36 H 2.813281 0.064020 -2.895783 0
M  V30 37 H 1.339776 1.578525 -1.626788 0
M  V30 38 H 0.111411 2.775635 -0.521511 0
M  V30 39 H 0.220905 3.742335 2.603885 0
M  V30 40 H -1.506602 4.719877 4.144565 0
M  V30 41 H -3.944957 4.435757 3.609864 0
M  V30 42 H -6.448302 3.703095 3.244279 0
M  V30 43 H -6.059615 3.263007 3.276515 0
M  V30 44 H -2.888655 2.297020 0.157683 0
M  V30 45 H 0.593444 -1.447030 1.263515 0
M  V30 END ATOM
M  V30 BEGIN BOND
M  V30 1 1 1 2
M  V30 2 1 2 3
M  V30 3 1 3 4
M  V30 4 1 4 5
M  V30 5 2 5 6
M  V30 6 1 5 7
M  V30 7 1 7 8
M  V30 8 1 8 9
M  V30 9 2 9 10
M  V30 10 1 10 11
M  V30 11 2 11 12
M  V30 12 1 12 13
M  V30 13 2 13 14
M  V30 14 1 13 15
M  V30 15 1 15 16
M  V30 16 2 16 17
M  V30 17 1 17 18
M  V30 18 2 18 19
M  V30 19 1 19 20
M  V30 20 1 20 21
M  V30 21 1 21 22
M  V30 22 2 21 23
M  V30 23 2 20 24
M  V30 24 1 12 25
M  V30 25 2 25 26
M  V30 26 1 26 27
M  V30 27 1 27 2
M  V30 28 2 27 7
M  V30 29 1 26 9
M  V30 30 1 24 16
M  V30 31 1 1 28
M  V30 32 1 1 29
M  V30 33 1 1 30
M  V30 34 1 2 31
M  V30 35 1 3 32
M  V30 36 1 3 33
M  V30 37 1 4 34
M  V30 38 1 8 35
M  V30 39 1 10 36
M  V30 40 1 11 37
M  V30 41 1 15 38
M  V30 42 1 17 39
M  V30 43 1 18 40
M  V30 44 1 19 41
M  V30 45 1 22 42
M  V30 46 1 22 43
M  V30 47 1 24 44
M  V30 48 1 25 45
M  V30 END BOND
M  V30 END CTAB
M  END
>  <Dataset>  (464) 
ChEMBL_Kinases

>  <Ligand_Instance>  (464) 
nan

>  <PDB_ID>  (464) 
nan

>  <Standardized_SMILES>  (464) 
CC1CNC(=O)c2[nH]c3ccc(C(=O)Nc4cccc(C(N)=O)c4)cc3c21

>  <Name>  (464) 
nan

>  <Pocket>  (464) 
nan

>  <ATP_Site>  (464) 
nan

>  <Peripheral>  (464) 
nan

>  <Num_H_Atoms_ProtBoundConf>  (464) 
nan

>  <Num_Resolved_Atoms>  (464) 
nan

>  <Num_Not_Resolved_Atoms>  (464) 
nan

$$$$
CHEMBL248525
     RDKit          3D

  0  0  0  0  0  0  0  0  0  0999 V3000
M  V30 BEGIN CTAB
M  V30 COUNTS 37 39 0 0 0
M  V30 BEGIN ATOM
M  V30 1 C 2.304664 -0.733051 5.418962 0
M  V30 2 O 1.816607 -1.930836 4.852815 0
M  V30 3 C 1.379553 -2.060717 3.541186 0
M  V30 4 C 0.939146 -3.329568 3.190682 0
M  V30 5 C 0.489404 -3.536069 1.903128 0
M  V30 6 C 0.450110 -2.540589 0.925660 0
M  V30 7 N 0.059572 -2.522094 -0.361139 0
M  V30 8 C 0.239875 -1.293411 -0.822860 0
M  V30 9 C 0.754942 -0.520645 0.193989 0
M  V30 10 C 0.903897 -1.286490 1.332301 0
M  V30 11 C 1.359791 -1.045096 2.610081 0
M  V30 12 C 1.058103 0.912824 -0.042485 0
M  V30 13 C 0.417213 1.461829 -1.262230 0
M  V30 14 C -0.881118 2.170745 -0.867781 0
M  V30 15 N -1.801646 1.263056 -0.228695 0
M  V30 16 N 0.245402 0.606073 -2.367830 0
M  V30 17 C -0.028928 -0.759406 -2.153385 0
M  V30 18 C -1.470144 -1.019639 -2.477666 0
M  V30 19 O -2.432823 -0.321191 -2.877292 0
M  V30 20 O -1.790531 -2.342531 -2.284328 0
M  V30 21 H 3.363988 -0.534661 5.235313 0
M  V30 22 H 2.029854 -0.645725 6.500858 0
M  V30 23 H 1.731820 0.113227 4.938540 0
M  V30 24 H 0.938224 -4.155871 3.892890 0
M  V30 25 H 0.148942 -4.545028 1.656035 0
M  V30 26 H -0.309923 -3.410583 -0.805443 0
M  V30 27 H 1.702312 -0.083575 2.904267 0
M  V30 28 H 2.167161 1.046827 -0.038093 0
M  V30 29 H 0.704082 1.499763 0.833555 0
M  V30 30 H 1.086615 2.307504 -1.601123 0
M  V30 31 H -1.394868 2.578085 -1.776700 0
M  V30 32 H -0.675048 3.045659 -0.231483 0
M  V30 33 H -1.802632 1.502780 0.802104 0
M  V30 34 H -2.788953 1.469596 -0.531447 0
M  V30 35 H 0.867159 0.777278 -3.178103 0
M  V30 36 H 0.531843 -1.354328 -2.929621 0
M  V30 37 H -2.716018 -2.740566 -2.451691 0
M  V30 END ATOM
M  V30 BEGIN BOND
M  V30 1 1 1 2
M  V30 2 1 2 3
M  V30 3 2 3 4
M  V30 4 1 4 5
M  V30 5 2 5 6
M  V30 6 1 6 7
M  V30 7 1 7 8
M  V30 8 2 8 9
M  V30 9 1 9 10
M  V30 10 2 10 11
M  V30 11 1 9 12
M  V30 12 1 12 13
M  V30 13 1 13 14
M  V30 14 1 14 15
M  V30 15 1 13 16
M  V30 16 1 16 17
M  V30 17 1 17 18
M  V30 18 2 18 19
M  V30 19 1 18 20
M  V30 20 1 11 3
M  V30 21 1 10 6
M  V30 22 1 17 8
M  V30 23 1 1 21
M  V30 24 1 1 22
M  V30 25 1 1 23
M  V30 26 1 4 24
M  V30 27 1 5 25
M  V30 28 1 7 26
M  V30 29 1 11 27
M  V30 30 1 12 28
M  V30 31 1 12 29
M  V30 32 1 13 30
M  V30 33 1 14 31
M  V30 34 1 14 32
M  V30 35 1 15 33
M  V30 36 1 15 34
M  V30 37 1 16 35
M  V30 38 1 17 36
M  V30 39 1 20 37
M  V30 END BOND
M  V30 END CTAB
M  END
>  <Dataset>  (465) 
ChEMBL_Kinases

>  <Ligand_Instance>  (465) 
nan

>  <PDB_ID>  (465) 
nan

>  <Standardized_SMILES>  (465) 
COc1ccc2[nH]c3c(c2c1)CC(CN)NC3C(=O)O

>  <Name>  (465) 
nan

>  <Pocket>  (465) 
nan

>  <ATP_Site>  (465) 
nan

>  <Peripheral>  (465) 
nan

>  <Num_H_Atoms_ProtBoundConf>  (465) 
nan

>  <Num_Resolved_Atoms>  (465) 
nan

>  <Num_Not_Resolved_Atoms>  (465) 
nan

$$$$
CHEMBL248366
     RDKit          3D

  0  0  0  0  0  0  0  0  0  0999 V3000
M  V30 BEGIN CTAB
M  V30 COUNTS 35 38 0 0 0
M  V30 BEGIN ATOM
M  V30 1 C -1.864300 -5.064221 -1.126676 0
M  V30 2 O -1.838612 -3.663378 -0.973518 0
M  V30 3 C -0.825737 -3.122136 -0.180768 0
M  V30 4 C 0.084246 -3.979587 0.402536 0
M  V30 5 C 1.069043 -3.404169 1.178123 0
M  V30 6 C 1.126852 -2.038254 1.351429 0
M  V30 7 N 1.915602 -1.175920 2.015132 0
M  V30 8 C 1.526738 0.101619 1.855585 0
M  V30 9 C 0.395193 0.131099 1.026010 0
M  V30 10 C 0.204123 -1.205495 0.756134 0
M  V30 11 C -0.788385 -1.753322 -0.022134 0
M  V30 12 C -0.075465 1.481794 0.785120 0
M  V30 13 C 0.809894 2.098777 -0.329036 0
M  V30 14 C -0.402084 2.939378 -0.667297 0
M  V30 15 C -1.233211 1.788430 -0.060292 0
M  V30 16 C 0.081650 2.361806 2.011800 0
M  V30 17 N 1.530560 2.532565 2.205407 0
M  V30 18 C 2.170923 1.271111 2.494174 0
M  V30 19 O 3.190631 1.163013 3.224058 0
M  V30 20 H -2.805519 -5.329602 -1.685594 0
M  V30 21 H -1.838995 -5.607575 -0.142743 0
M  V30 22 H -1.043627 -5.458445 -1.742629 0
M  V30 23 H 0.077039 -5.055789 0.293956 0
M  V30 24 H 1.832716 -3.994709 1.680121 0
M  V30 25 H 2.730913 -1.555732 2.575949 0
M  V30 26 H -1.527433 -1.162146 -0.501501 0
M  V30 27 H 1.032814 1.360219 -1.121531 0
M  V30 28 H 1.684464 2.612331 0.068270 0
M  V30 29 H -0.455126 3.878722 -0.114757 0
M  V30 30 H -0.557533 3.048616 -1.765104 0
M  V30 31 H -2.099108 2.265771 0.491549 0
M  V30 32 H -1.579531 1.104448 -0.819695 0
M  V30 33 H -0.389914 1.842464 2.864384 0
M  V30 34 H -0.406033 3.327843 1.829205 0
M  V30 35 H 2.161373 3.389020 2.173624 0
M  V30 END ATOM
M  V30 BEGIN BOND
M  V30 1 1 1 2
M  V30 2 1 2 3
M  V30 3 2 3 4
M  V30 4 1 4 5
M  V30 5 2 5 6
M  V30 6 1 6 7
M  V30 7 1 7 8
M  V30 8 2 8 9
M  V30 9 1 9 10
M  V30 10 2 10 11
M  V30 11 1 9 12
M  V30 12 1 12 13
M  V30 13 1 13 14
M  V30 14 1 14 15
M  V30 15 1 12 16
M  V30 16 1 16 17
M  V30 17 1 17 18
M  V30 18 2 18 19
M  V30 19 1 11 3
M  V30 20 1 15 12
M  V30 21 1 10 6
M  V30 22 1 18 8
M  V30 23 1 1 20
M  V30 24 1 1 21
M  V30 25 1 1 22
M  V30 26 1 4 23
M  V30 27 1 5 24
M  V30 28 1 7 25
M  V30 29 1 11 26
M  V30 30 1 13 27
M  V30 31 1 13 28
M  V30 32 1 14 29
M  V30 33 1 14 30
M  V30 34 1 15 31
M  V30 35 1 15 32
M  V30 36 1 16 33
M  V30 37 1 16 34
M  V30 38 1 17 35
M  V30 END BOND
M  V30 END CTAB
M  END
>  <Dataset>  (466) 
ChEMBL_Kinases

>  <Ligand_Instance>  (466) 
nan

>  <PDB_ID>  (466) 
nan

>  <Standardized_SMILES>  (466) 
COc1ccc2[nH]c3c(c2c1)C1(CCC1)CNC3=O

>  <Name>  (466) 
nan

>  <Pocket>  (466) 
nan

>  <ATP_Site>  (466) 
nan

>  <Peripheral>  (466) 
nan

>  <Num_H_Atoms_ProtBoundConf>  (466) 
nan

>  <Num_Resolved_Atoms>  (466) 
nan

>  <Num_Not_Resolved_Atoms>  (466) 
nan

$$$$
CHEMBL248364
     RDKit          3D

  0  0  0  0  0  0  0  0  0  0999 V3000
M  V30 BEGIN CTAB
M  V30 COUNTS 34 36 0 0 0
M  V30 BEGIN ATOM
M  V30 1 C -2.737610 -3.288587 2.309224 0
M  V30 2 O -1.419652 -3.636069 2.763160 0
M  V30 3 C -0.312736 -2.885885 2.338476 0
M  V30 4 C 0.966386 -3.203869 2.764139 0
M  V30 5 C 2.035450 -2.447090 2.329030 0
M  V30 6 C 1.782278 -1.390338 1.476136 0
M  V30 7 N 2.685185 -0.544920 0.949030 0
M  V30 8 C 2.033042 0.339920 0.172986 0
M  V30 9 C 0.679256 0.069759 0.191803 0
M  V30 10 C 0.523015 -1.026419 1.017740 0
M  V30 11 C -0.519027 -1.816969 1.482760 0
M  V30 12 C -0.392590 0.805697 -0.527794 0
M  V30 13 C -0.846307 0.064169 -1.769505 0
M  V30 14 C -1.587815 1.046056 0.377262 0
M  V30 15 C 0.068717 2.156348 -1.020571 0
M  V30 16 N 1.454936 2.222479 -1.365054 0
M  V30 17 C 2.434087 1.477873 -0.651236 0
M  V30 18 O 3.660760 1.772113 -0.706526 0
M  V30 19 H -2.824813 -3.398979 1.207810 0
M  V30 20 H -3.442308 -3.996667 2.753641 0
M  V30 21 H -3.007714 -2.252195 2.615513 0
M  V30 22 H 1.062566 -4.050859 3.432738 0
M  V30 23 H 3.032882 -2.689118 2.656372 0
M  V30 24 H 3.733516 -0.471352 1.039386 0
M  V30 25 H -1.505453 -1.581592 1.162003 0
M  V30 26 H -1.923928 0.363648 -1.925849 0
M  V30 27 H -0.258506 0.372982 -2.649317 0
M  V30 28 H -0.874296 -1.026588 -1.651375 0
M  V30 29 H -2.427272 0.374596 0.122172 0
M  V30 30 H -1.268542 0.793365 1.409352 0
M  V30 31 H -1.885161 2.111580 0.406199 0
M  V30 32 H -0.586448 2.478499 -1.880816 0
M  V30 33 H -0.125725 2.883269 -0.204386 0
M  V30 34 H 1.792220 2.831658 -2.166261 0
M  V30 END ATOM
M  V30 BEGIN BOND
M  V30 1 1 1 2
M  V30 2 1 2 3
M  V30 3 2 3 4
M  V30 4 1 4 5
M  V30 5 2 5 6
M  V30 6 1 6 7
M  V30 7 1 7 8
M  V30 8 2 8 9
M  V30 9 1 9 10
M  V30 10 2 10 11
M  V30 11 1 9 12
M  V30 12 1 12 13
M  V30 13 1 12 14
M  V30 14 1 12 15
M  V30 15 1 15 16
M  V30 16 1 16 17
M  V30 17 2 17 18
M  V30 18 1 11 3
M  V30 19 1 10 6
M  V30 20 1 17 8
M  V30 21 1 1 19
M  V30 22 1 1 20
M  V30 23 1 1 21
M  V30 24 1 4 22
M  V30 25 1 5 23
M  V30 26 1 7 24
M  V30 27 1 11 25
M  V30 28 1 13 26
M  V30 29 1 13 27
M  V30 30 1 13 28
M  V30 31 1 14 29
M  V30 32 1 14 30
M  V30 33 1 14 31
M  V30 34 1 15 32
M  V30 35 1 15 33
M  V30 36 1 16 34
M  V30 END BOND
M  V30 END CTAB
M  END
>  <Dataset>  (467) 
ChEMBL_Kinases

>  <Ligand_Instance>  (467) 
nan

>  <PDB_ID>  (467) 
nan

>  <Standardized_SMILES>  (467) 
COc1ccc2[nH]c3c(c2c1)C(C)(C)CNC3=O

>  <Name>  (467) 
nan

>  <Pocket>  (467) 
nan

>  <ATP_Site>  (467) 
nan

>  <Peripheral>  (467) 
nan

>  <Num_H_Atoms_ProtBoundConf>  (467) 
nan

>  <Num_Resolved_Atoms>  (467) 
nan

>  <Num_Not_Resolved_Atoms>  (467) 
nan

$$$$
CHEMBL249526
     RDKit          3D

  0  0  0  0  0  0  0  0  0  0999 V3000
M  V30 BEGIN CTAB
M  V30 COUNTS 62 66 0 0 0
M  V30 BEGIN ATOM
M  V30 1 C 1.092664 -1.618804 2.619813 0
M  V30 2 C 2.120180 -0.767600 1.975159 0
M  V30 3 C 3.347353 -1.367222 1.699467 0
M  V30 4 C 4.336003 -0.602958 1.096844 0
M  V30 5 C 4.096688 0.729192 0.779867 0
M  V30 6 C 2.900180 1.351357 1.037131 0
M  V30 7 C 2.581159 2.758862 0.741674 0
M  V30 8 N 2.088904 3.014798 -0.572947 0
M  V30 9 C 0.968596 2.517664 -1.287018 0
M  V30 10 N 0.552790 2.848811 -2.545004 0
M  V30 11 C -0.539453 2.257520 -3.053215 0
M  V30 12 C -1.298633 1.317042 -2.393545 0
M  V30 13 C -0.862434 0.996409 -1.125812 0
M  V30 14 C -1.593748 -0.004042 -0.320407 0
M  V30 15 C -2.606204 0.068883 0.581618 0
M  V30 16 C -3.199748 1.354881 0.929442 0
M  V30 17 C -4.557904 1.455653 0.644706 0
M  V30 18 C -5.307427 2.586325 0.895605 0
M  V30 19 C -4.624493 3.649381 1.461594 0
M  V30 20 F -5.318558 4.803964 1.734790 0
M  V30 21 C -3.275889 3.602079 1.764413 0
M  V30 22 C -2.554627 2.455722 1.500804 0
M  V30 23 N -2.856123 -1.191847 0.988892 0
M  V30 24 C -2.015409 -2.044910 0.354140 0
M  V30 25 C -1.912947 -3.407282 0.456443 0
M  V30 26 C -0.985746 -4.111031 -0.279981 0
M  V30 27 C -0.720089 -5.569926 -0.305325 0
M  V30 28 N 0.286586 -5.989316 0.614111 0
M  V30 29 C 1.579577 -5.412053 0.417386 0
M  V30 30 C -0.089061 -5.903708 1.993229 0
M  V30 31 C -0.165757 -3.360686 -1.127562 0
M  V30 32 C -0.323735 -1.995422 -1.180124 0
M  V30 33 N -1.232971 -1.308638 -0.457463 0
M  V30 34 N 0.235705 1.615872 -0.662042 0
M  V30 35 C 1.920551 0.571791 1.641189 0
M  V30 36 H 0.858952 -2.521765 2.031372 0
M  V30 37 H 1.463307 -1.926346 3.625975 0
M  V30 38 H 0.151550 -1.028404 2.744985 0
M  V30 39 H 3.511459 -2.400514 1.953327 0
M  V30 40 H 5.271973 -1.086850 0.894608 0
M  V30 41 H 4.871591 1.309808 0.313106 0
M  V30 42 H 3.521926 3.354640 0.878787 0
M  V30 43 H 1.898944 3.140742 1.537716 0
M  V30 44 H 2.603571 3.699745 -1.207828 0
M  V30 45 H -0.783337 2.594527 -4.064133 0
M  V30 46 H -2.167567 0.871287 -2.844592 0
M  V30 47 H -5.125221 0.624966 0.194619 0
M  V30 48 H -6.365383 2.628080 0.659922 0
M  V30 49 H -2.723204 4.418733 2.205683 0
M  V30 50 H -1.500628 2.289476 1.688120 0
M  V30 51 H -2.523230 -4.013709 1.090194 0
M  V30 52 H -0.472579 -5.907599 -1.332507 0
M  V30 53 H -1.657996 -6.130121 -0.041618 0
M  V30 54 H 1.615452 -4.357068 0.695760 0
M  V30 55 H 1.993485 -5.613119 -0.601659 0
M  V30 56 H 2.280058 -5.959338 1.112605 0
M  V30 57 H 0.816872 -5.822306 2.659642 0
M  V30 58 H -0.726220 -5.049511 2.260167 0
M  V30 59 H -0.550854 -6.873934 2.301245 0
M  V30 60 H 0.598789 -3.820799 -1.751653 0
M  V30 61 H 0.335214 -1.437371 -1.855005 0
M  V30 62 H 0.935916 0.893749 1.917000 0
M  V30 END ATOM
M  V30 BEGIN BOND
M  V30 1 1 1 2
M  V30 2 2 2 3
M  V30 3 1 3 4
M  V30 4 2 4 5
M  V30 5 1 5 6
M  V30 6 1 6 7
M  V30 7 1 7 8
M  V30 8 1 8 9
M  V30 9 2 9 10
M  V30 10 1 10 11
M  V30 11 2 11 12
M  V30 12 1 12 13
M  V30 13 1 13 14
M  V30 14 2 14 15
M  V30 15 1 15 16
M  V30 16 2 16 17
M  V30 17 1 17 18
M  V30 18 2 18 19
M  V30 19 1 19 20
M  V30 20 1 19 21
M  V30 21 2 21 22
M  V30 22 1 15 23
M  V30 23 2 23 24
M  V30 24 1 24 25
M  V30 25 2 25 26
M  V30 26 1 26 27
M  V30 27 1 27 28
M  V30 28 1 28 29
M  V30 29 1 28 30
M  V30 30 1 26 31
M  V30 31 2 31 32
M  V30 32 1 32 33
M  V30 33 2 13 34
M  V30 34 2 6 35
M  V30 35 1 35 2
M  V30 36 1 34 9
M  V30 37 1 33 14
M  V30 38 1 22 16
M  V30 39 1 33 24
M  V30 40 1 1 36
M  V30 41 1 1 37
M  V30 42 1 1 38
M  V30 43 1 3 39
M  V30 44 1 4 40
M  V30 45 1 5 41
M  V30 46 1 7 42
M  V30 47 1 7 43
M  V30 48 1 8 44
M  V30 49 1 11 45
M  V30 50 1 12 46
M  V30 51 1 17 47
M  V30 52 1 18 48
M  V30 53 1 21 49
M  V30 54 1 22 50
M  V30 55 1 25 51
M  V30 56 1 27 52
M  V30 57 1 27 53
M  V30 58 1 29 54
M  V30 59 1 29 55
M  V30 60 1 29 56
M  V30 61 1 30 57
M  V30 62 1 30 58
M  V30 63 1 30 59
M  V30 64 1 31 60
M  V30 65 1 32 61
M  V30 66 1 35 62
M  V30 END BOND
M  V30 END CTAB
M  END
>  <Dataset>  (468) 
ChEMBL_Kinases

>  <Ligand_Instance>  (468) 
nan

>  <PDB_ID>  (468) 
nan

>  <Standardized_SMILES>  (468) 
Cc1cccc(CNc2nccc(-c3c(-c4ccc(F)cc4)nc4cc(CN(C)C)ccn34)n2)c1

>  <Name>  (468) 
nan

>  <Pocket>  (468) 
nan

>  <ATP_Site>  (468) 
nan

>  <Peripheral>  (468) 
nan

>  <Num_H_Atoms_ProtBoundConf>  (468) 
nan

>  <Num_Resolved_Atoms>  (468) 
nan

>  <Num_Not_Resolved_Atoms>  (468) 
nan

$$$$
CHEMBL247138
     RDKit          3D

  0  0  0  0  0  0  0  0  0  0999 V3000
M  V30 BEGIN CTAB
M  V30 COUNTS 32 34 0 0 0
M  V30 BEGIN ATOM
M  V30 1 C -0.694364 -4.734589 0.321557 0
M  V30 2 O -0.590484 -3.323314 0.377380 0
M  V30 3 C 0.376013 -2.785048 1.217673 0
M  V30 4 C 1.273100 -3.454051 2.027401 0
M  V30 5 C 2.153603 -2.713195 2.786545 0
M  V30 6 C 2.215660 -1.343400 2.806469 0
M  V30 7 C 1.317608 -0.701808 1.996587 0
M  V30 8 N 1.146824 0.640113 1.811487 0
M  V30 9 C 0.168604 0.840475 0.942020 0
M  V30 10 C -0.303321 -0.398221 0.556585 0
M  V30 11 C 0.411695 -1.386736 1.213567 0
M  V30 12 C -1.415690 -0.468639 -0.424499 0
M  V30 13 C -1.035535 0.463221 -1.567979 0
M  V30 14 N -0.491327 1.712705 -1.154469 0
M  V30 15 C -0.558133 1.939860 0.271857 0
M  V30 16 C -0.047849 3.265396 0.611489 0
M  V30 17 O -0.075492 3.528723 1.823213 0
M  V30 18 O 0.477599 4.329661 -0.142365 0
M  V30 19 H -1.734267 -4.980464 -0.026746 0
M  V30 20 H 0.065951 -5.210919 -0.328073 0
M  V30 21 H -0.633600 -5.151613 1.345061 0
M  V30 22 H 1.195616 -4.512717 1.985917 0
M  V30 23 H 2.848134 -3.273059 3.414514 0
M  V30 24 H 2.925599 -0.807829 3.420132 0
M  V30 25 H 1.667366 1.440789 2.251040 0
M  V30 26 H -2.387838 -0.180044 0.025632 0
M  V30 27 H -1.445852 -1.491871 -0.856736 0
M  V30 28 H -1.916234 0.620431 -2.226770 0
M  V30 29 H -0.277992 -0.081543 -2.173063 0
M  V30 30 H 0.540031 1.774871 -1.399916 0
M  V30 31 H -1.626494 1.823911 0.578239 0
M  V30 32 H 0.148956 5.274607 -0.076372 0
M  V30 END ATOM
M  V30 BEGIN BOND
M  V30 1 1 1 2
M  V30 2 1 2 3
M  V30 3 2 3 4
M  V30 4 1 4 5
M  V30 5 2 5 6
M  V30 6 1 6 7
M  V30 7 1 7 8
M  V30 8 1 8 9
M  V30 9 2 9 10
M  V30 10 1 10 11
M  V30 11 1 10 12
M  V30 12 1 12 13
M  V30 13 1 13 14
M  V30 14 1 14 15
M  V30 15 1 15 16
M  V30 16 2 16 17
M  V30 17 1 16 18
M  V30 18 1 11 3
M  V30 19 2 11 7
M  V30 20 1 15 9
M  V30 21 1 1 19
M  V30 22 1 1 20
M  V30 23 1 1 21
M  V30 24 1 4 22
M  V30 25 1 5 23
M  V30 26 1 6 24
M  V30 27 1 8 25
M  V30 28 1 12 26
M  V30 29 1 12 27
M  V30 30 1 13 28
M  V30 31 1 13 29
M  V30 32 1 14 30
M  V30 33 1 15 31
M  V30 34 1 18 32
M  V30 END BOND
M  V30 END CTAB
M  END
>  <Dataset>  (469) 
ChEMBL_Kinases

>  <Ligand_Instance>  (469) 
nan

>  <PDB_ID>  (469) 
nan

>  <Standardized_SMILES>  (469) 
COc1cccc2[nH]c3c(c12)CCNC3C(=O)O

>  <Name>  (469) 
nan

>  <Pocket>  (469) 
nan

>  <ATP_Site>  (469) 
nan

>  <Peripheral>  (469) 
nan

>  <Num_H_Atoms_ProtBoundConf>  (469) 
nan

>  <Num_Resolved_Atoms>  (469) 
nan

>  <Num_Not_Resolved_Atoms>  (469) 
nan

$$$$
CHEMBL247271
     RDKit          3D

  0  0  0  0  0  0  0  0  0  0999 V3000
M  V30 BEGIN CTAB
M  V30 COUNTS 81 88 0 0 0
M  V30 BEGIN ATOM
M  V30 1 O 0.449505 2.175717 4.779201 0
M  V30 2 C 1.295006 1.591838 4.026298 0
M  V30 3 N 2.502050 1.136599 4.660430 0
M  V30 4 C 3.217489 0.538060 3.549439 0
M  V30 5 O 4.363001 0.039159 3.837120 0
M  V30 6 C 2.431409 0.649787 2.298208 0
M  V30 7 C 1.306401 1.266847 2.580539 0
M  V30 8 C 0.144397 1.667797 1.814965 0
M  V30 9 C -1.027912 0.915792 1.864547 0
M  V30 10 N -2.022197 1.451263 1.081310 0
M  V30 11 C -1.466573 2.552592 0.533326 0
M  V30 12 C -2.064974 3.432849 -0.330042 0
M  V30 13 C -1.334550 4.526508 -0.800179 0
M  V30 14 C -0.032640 4.665426 -0.365740 0
M  V30 15 C 0.585469 3.781629 0.508109 0
M  V30 16 C -0.184026 2.694642 0.958388 0
M  V30 17 C -3.275913 0.699839 1.070159 0
M  V30 18 C -3.544773 0.123867 -0.286015 0
M  V30 19 C -4.727021 -0.826707 -0.188112 0
M  V30 20 C -4.907381 -1.500566 -1.568673 0
M  V30 21 C -3.543744 -1.984609 -1.987609 0
M  V30 22 C -3.078206 -1.560848 -3.201866 0
M  V30 23 C -1.832583 -2.063716 -2.959059 0
M  V30 24 C -1.104516 -2.743815 -1.993778 0
M  V30 25 C -1.801967 -3.078761 -0.819168 0
M  V30 26 N -1.556970 -3.584581 0.477846 0
M  V30 27 C -2.682540 -4.069876 1.319622 0
M  V30 28 C -2.426284 -3.303458 2.621136 0
M  V30 29 C -0.950204 -3.690837 2.802146 0
M  V30 30 C -0.439486 -3.819113 1.403689 0
M  V30 31 N -3.059776 -2.631871 -0.939370 0
M  V30 32 C 0.308071 -2.888169 -2.509005 0
M  V30 33 C 1.344956 -2.786132 -1.426670 0
M  V30 34 C 2.711260 -2.828264 -2.140093 0
M  V30 35 C 3.823572 -2.657664 -1.128337 0
M  V30 36 N 3.696704 -1.363830 -0.450607 0
M  V30 37 C 3.006015 -1.228036 0.684029 0
M  V30 38 C 3.036300 0.092209 1.120371 0
M  V30 39 C 3.803985 0.738042 0.157257 0
M  V30 40 C 4.205493 2.047421 0.019525 0
M  V30 41 C 4.998007 2.527330 -1.034831 0
M  V30 42 C 5.378552 1.562828 -1.982060 0
M  V30 43 C 4.999609 0.212592 -1.892591 0
M  V30 44 C 4.208695 -0.182051 -0.812617 0
M  V30 45 H 2.788023 1.216117 5.665510 0
M  V30 46 H -1.107734 -0.000254 2.480782 0
M  V30 47 H -3.089333 3.309344 -0.669229 0
M  V30 48 H -1.802267 5.220556 -1.480313 0
M  V30 49 H 0.501250 5.515157 -0.745603 0
M  V30 50 H 1.590421 3.891539 0.838695 0
M  V30 51 H -3.242096 -0.078528 1.852344 0
M  V30 52 H -4.134657 1.349594 1.329497 0
M  V30 53 H -3.849580 1.001970 -0.935802 0
M  V30 54 H -2.691498 -0.314419 -0.800008 0
M  V30 55 H -4.624891 -1.591530 0.580297 0
M  V30 56 H -5.643406 -0.243956 -0.021025 0
M  V30 57 H -5.382070 -0.824895 -2.262835 0
M  V30 58 H -5.530432 -2.383790 -1.399383 0
M  V30 59 H -3.715179 -1.048751 -3.863871 0
M  V30 60 H -1.471001 -1.743475 -3.901839 0
M  V30 61 H -2.554161 -5.126013 1.561969 0
M  V30 62 H -3.661468 -3.786742 0.890465 0
M  V30 63 H -2.526166 -2.223805 2.503211 0
M  V30 64 H -3.066406 -3.678811 3.421391 0
M  V30 65 H -0.969604 -4.671657 3.322220 0
M  V30 66 H -0.430051 -2.943393 3.413425 0
M  V30 67 H 0.012292 -4.800425 1.260221 0
M  V30 68 H 0.330274 -3.027760 1.267002 0
M  V30 69 H 0.557730 -2.058283 -3.211220 0
M  V30 70 H 0.471647 -3.810249 -3.077110 0
M  V30 71 H 1.205360 -1.842736 -0.877630 0
M  V30 72 H 1.330698 -3.680780 -0.761034 0
M  V30 73 H 2.797180 -3.848112 -2.563061 0
M  V30 74 H 2.740003 -2.113641 -2.961452 0
M  V30 75 H 3.734620 -3.499176 -0.423451 0
M  V30 76 H 4.793755 -2.685731 -1.654634 0
M  V30 77 H 2.475383 -1.953929 1.240445 0
M  V30 78 H 3.935449 2.846947 0.729310 0
M  V30 79 H 5.322204 3.548204 -1.150081 0
M  V30 80 H 5.994541 1.829696 -2.856915 0
M  V30 81 H 5.319944 -0.472944 -2.660349 0
M  V30 END ATOM
M  V30 BEGIN BOND
M  V30 1 2 1 2
M  V30 2 1 2 3
M  V30 3 1 3 4
M  V30 4 2 4 5
M  V30 5 1 4 6
M  V30 6 2 6 7
M  V30 7 1 7 8
M  V30 8 2 8 9
M  V30 9 1 9 10
M  V30 10 1 10 11
M  V30 11 2 11 12
M  V30 12 1 12 13
M  V30 13 2 13 14
M  V30 14 1 14 15
M  V30 15 2 15 16
M  V30 16 1 10 17
M  V30 17 1 17 18
M  V30 18 1 18 19
M  V30 19 1 19 20
M  V30 20 1 20 21
M  V30 21 2 21 22
M  V30 22 1 22 23
M  V30 23 2 23 24
M  V30 24 1 24 25
M  V30 25 1 25 26
M  V30 26 1 26 27
M  V30 27 1 27 28
M  V30 28 1 28 29
M  V30 29 1 29 30
M  V30 30 2 25 31
M  V30 31 1 24 32
M  V30 32 1 32 33
M  V30 33 1 33 34
M  V30 34 1 34 35
M  V30 35 1 35 36
M  V30 36 1 36 37
M  V30 37 2 37 38
M  V30 38 1 38 39
M  V30 39 2 39 40
M  V30 40 1 40 41
M  V30 41 2 41 42
M  V30 42 1 42 43
M  V30 43 2 43 44
M  V30 44 1 7 2
M  V30 45 1 16 8
M  V30 46 1 31 21
M  V30 47 1 44 36
M  V30 48 1 38 6
M  V30 49 1 44 39
M  V30 50 1 16 11
M  V30 51 1 30 26
M  V30 52 1 3 45
M  V30 53 1 9 46
M  V30 54 1 12 47
M  V30 55 1 13 48
M  V30 56 1 14 49
M  V30 57 1 15 50
M  V30 58 1 17 51
M  V30 59 1 17 52
M  V30 60 1 18 53
M  V30 61 1 18 54
M  V30 62 1 19 55
M  V30 63 1 19 56
M  V30 64 1 20 57
M  V30 65 1 20 58
M  V30 66 1 22 59
M  V30 67 1 23 60
M  V30 68 1 27 61
M  V30 69 1 27 62
M  V30 70 1 28 63
M  V30 71 1 28 64
M  V30 72 1 29 65
M  V30 73 1 29 66
M  V30 74 1 30 67
M  V30 75 1 30 68
M  V30 76 1 32 69
M  V30 77 1 32 70
M  V30 78 1 33 71
M  V30 79 1 33 72
M  V30 80 1 34 73
M  V30 81 1 34 74
M  V30 82 1 35 75
M  V30 83 1 35 76
M  V30 84 1 37 77
M  V30 85 1 40 78
M  V30 86 1 41 79
M  V30 87 1 42 80
M  V30 88 1 43 81
M  V30 END BOND
M  V30 END CTAB
M  END
>  <Dataset>  (470) 
ChEMBL_Kinases

>  <Ligand_Instance>  (470) 
nan

>  <PDB_ID>  (470) 
nan

>  <Standardized_SMILES>  (470) 
O=C1NC(=O)C2=C1c1cn(c3ccccc13)CCCCc1ccc(c(N3CCCC3)n1)CCCCn1cc2c2ccccc21

>  <Name>  (470) 
nan

>  <Pocket>  (470) 
nan

>  <ATP_Site>  (470) 
nan

>  <Peripheral>  (470) 
nan

>  <Num_H_Atoms_ProtBoundConf>  (470) 
nan

>  <Num_Resolved_Atoms>  (470) 
nan

>  <Num_Not_Resolved_Atoms>  (470) 
nan

$$$$
CHEMBL247333
     RDKit          3D

  0  0  0  0  0  0  0  0  0  0999 V3000
M  V30 BEGIN CTAB
M  V30 COUNTS 44 47 0 0 0
M  V30 BEGIN ATOM
M  V30 1 C 1.490655 -3.851900 -1.400887 0
M  V30 2 C 2.523437 -3.111699 -0.556038 0
M  V30 3 C 3.781179 -3.952201 -0.590655 0
M  V30 4 N 4.205247 -4.041299 -1.980793 0
M  V30 5 C 4.493603 -2.789789 -2.638000 0
M  V30 6 O 5.364624 -2.705301 -3.541616 0
M  V30 7 C 3.713336 -1.614483 -2.194634 0
M  V30 8 N 3.714176 -0.333582 -2.570236 0
M  V30 9 C 2.804335 0.349232 -1.851960 0
M  V30 10 C 2.379223 1.675330 -1.810986 0
M  V30 11 C 1.374845 2.020442 -0.898512 0
M  V30 12 C 0.773392 1.131320 -0.031502 0
M  V30 13 C -0.254818 1.635775 0.858415 0
M  V30 14 O -0.536421 2.843417 0.789350 0
M  V30 15 N -0.917362 0.781877 1.776660 0
M  V30 16 C -1.922871 1.013940 2.723347 0
M  V30 17 C -3.232150 0.857752 2.254466 0
M  V30 18 C -4.298223 1.071163 3.137036 0
M  V30 19 C -3.972943 1.427575 4.432574 0
M  V30 20 C -5.109265 1.636690 5.305116 0
M  V30 21 N -5.164579 2.001520 6.664121 0
M  V30 22 O -6.323075 1.522853 4.985353 0
M  V30 23 N -2.712700 1.574383 4.870790 0
M  V30 24 C -1.660000 1.371764 4.029419 0
M  V30 25 C 1.210438 -0.172784 -0.090954 0
M  V30 26 C 2.199656 -0.538274 -0.982168 0
M  V30 27 C 2.776986 -1.794448 -1.197187 0
M  V30 28 H 1.638530 -3.630374 -2.478544 0
M  V30 29 H 1.552847 -4.937888 -1.262793 0
M  V30 30 H 0.467184 -3.453131 -1.150095 0
M  V30 31 H 2.155815 -2.993291 0.485617 0
M  V30 32 H 4.596206 -3.477178 0.026023 0
M  V30 33 H 3.608087 -4.943481 -0.171089 0
M  V30 34 H 4.322272 -4.919589 -2.551680 0
M  V30 35 H 4.335301 0.078130 -3.317422 0
M  V30 36 H 2.821525 2.395483 -2.467974 0
M  V30 37 H 1.103629 3.066904 -0.931009 0
M  V30 38 H -0.699454 -0.237257 1.854867 0
M  V30 39 H -3.434185 0.572552 1.212857 0
M  V30 40 H -5.308382 0.949567 2.771250 0
M  V30 41 H -4.274911 2.124162 7.211511 0
M  V30 42 H -4.278370 2.122555 7.205157 0
M  V30 43 H -0.662842 1.486958 4.372558 0
M  V30 44 H 0.753911 -0.884212 0.577833 0
M  V30 END ATOM
M  V30 BEGIN BOND
M  V30 1 1 1 2
M  V30 2 1 2 3
M  V30 3 1 3 4
M  V30 4 1 4 5
M  V30 5 2 5 6
M  V30 6 1 5 7
M  V30 7 1 7 8
M  V30 8 1 8 9
M  V30 9 2 9 10
M  V30 10 1 10 11
M  V30 11 2 11 12
M  V30 12 1 12 13
M  V30 13 2 13 14
M  V30 14 1 13 15
M  V30 15 1 15 16
M  V30 16 2 16 17
M  V30 17 1 17 18
M  V30 18 2 18 19
M  V30 19 1 19 20
M  V30 20 1 20 21
M  V30 21 2 20 22
M  V30 22 1 19 23
M  V30 23 2 23 24
M  V30 24 1 12 25
M  V30 25 2 25 26
M  V30 26 1 26 27
M  V30 27 1 27 2
M  V30 28 2 27 7
M  V30 29 1 26 9
M  V30 30 1 24 16
M  V30 31 1 1 28
M  V30 32 1 1 29
M  V30 33 1 1 30
M  V30 34 1 2 31
M  V30 35 1 3 32
M  V30 36 1 3 33
M  V30 37 1 4 34
M  V30 38 1 8 35
M  V30 39 1 10 36
M  V30 40 1 11 37
M  V30 41 1 15 38
M  V30 42 1 17 39
M  V30 43 1 18 40
M  V30 44 1 21 41
M  V30 45 1 21 42
M  V30 46 1 24 43
M  V30 47 1 25 44
M  V30 END BOND
M  V30 END CTAB
M  END
>  <Dataset>  (471) 
ChEMBL_Kinases

>  <Ligand_Instance>  (471) 
nan

>  <PDB_ID>  (471) 
nan

>  <Standardized_SMILES>  (471) 
CC1CNC(=O)c2[nH]c3ccc(C(=O)Nc4ccc(C(N)=O)nc4)cc3c21

>  <Name>  (471) 
nan

>  <Pocket>  (471) 
nan

>  <ATP_Site>  (471) 
nan

>  <Peripheral>  (471) 
nan

>  <Num_H_Atoms_ProtBoundConf>  (471) 
nan

>  <Num_Resolved_Atoms>  (471) 
nan

>  <Num_Not_Resolved_Atoms>  (471) 
nan

$$$$
CHEMBL247343
     RDKit          3D

  0  0  0  0  0  0  0  0  0  0999 V3000
M  V30 BEGIN CTAB
M  V30 COUNTS 33 35 0 0 0
M  V30 BEGIN ATOM
M  V30 1 C 0.076015 -5.455521 0.748506 0
M  V30 2 O -0.686359 -4.615254 1.586802 0
M  V30 3 C -0.665260 -3.227586 1.531330 0
M  V30 4 C 0.086424 -2.459157 0.668256 0
M  V30 5 C -0.025731 -1.092625 0.763140 0
M  V30 6 C 0.587504 -0.112422 0.050930 0
M  V30 7 C 0.167907 1.134693 0.494347 0
M  V30 8 N -0.703419 0.892976 1.479965 0
M  V30 9 C -0.844115 -0.447919 1.668915 0
M  V30 10 C -1.596066 -1.212454 2.532204 0
M  V30 11 C -1.496278 -2.603423 2.451780 0
M  V30 12 O -2.283824 -3.304724 3.353646 0
M  V30 13 C 0.766642 2.285771 -0.205513 0
M  V30 14 C 0.306702 3.580834 0.268751 0
M  V30 15 O -0.250437 4.574922 -0.295907 0
M  V30 16 O 0.523953 3.777938 1.648069 0
M  V30 17 N 0.541133 2.089748 -1.620817 0
M  V30 18 C 1.017001 0.844821 -2.097923 0
M  V30 19 C 1.577400 -0.092974 -1.062940 0
M  V30 20 H 0.937699 -5.807944 1.342024 0
M  V30 21 H 0.337431 -5.010443 -0.226597 0
M  V30 22 H -0.499979 -6.390819 0.500047 0
M  V30 23 H 0.714467 -2.984582 -0.026142 0
M  V30 24 H -1.185895 1.655793 2.005205 0
M  V30 25 H -2.251714 -0.731691 3.258676 0
M  V30 26 H -3.087418 -3.848114 3.091806 0
M  V30 27 H 1.868335 2.236012 -0.050452 0
M  V30 28 H 0.405257 4.705469 2.083992 0
M  V30 29 H -0.494236 2.250939 -1.807912 0
M  V30 30 H 0.138649 0.297496 -2.549492 0
M  V30 31 H 1.723988 0.969620 -2.947616 0
M  V30 32 H 1.653773 -1.098631 -1.484123 0
M  V30 33 H 2.581431 0.217180 -0.717848 0
M  V30 END ATOM
M  V30 BEGIN BOND
M  V30 1 1 1 2
M  V30 2 1 2 3
M  V30 3 2 3 4
M  V30 4 1 4 5
M  V30 5 1 5 6
M  V30 6 2 6 7
M  V30 7 1 7 8
M  V30 8 1 8 9
M  V30 9 1 9 10
M  V30 10 2 10 11
M  V30 11 1 11 12
M  V30 12 1 7 13
M  V30 13 1 13 14
M  V30 14 2 14 15
M  V30 15 1 14 16
M  V30 16 1 13 17
M  V30 17 1 17 18
M  V30 18 1 18 19
M  V30 19 1 11 3
M  V30 20 2 9 5
M  V30 21 1 19 6
M  V30 22 1 1 20
M  V30 23 1 1 21
M  V30 24 1 1 22
M  V30 25 1 4 23
M  V30 26 1 8 24
M  V30 27 1 10 25
M  V30 28 1 12 26
M  V30 29 1 13 27
M  V30 30 1 16 28
M  V30 31 1 17 29
M  V30 32 1 18 30
M  V30 33 1 18 31
M  V30 34 1 19 32
M  V30 35 1 19 33
M  V30 END BOND
M  V30 END CTAB
M  END
>  <Dataset>  (472) 
ChEMBL_Kinases

>  <Ligand_Instance>  (472) 
nan

>  <PDB_ID>  (472) 
nan

>  <Standardized_SMILES>  (472) 
COc1cc2c3c([nH]c2cc1O)C(C(=O)O)NCC3

>  <Name>  (472) 
nan

>  <Pocket>  (472) 
nan

>  <ATP_Site>  (472) 
nan

>  <Peripheral>  (472) 
nan

>  <Num_H_Atoms_ProtBoundConf>  (472) 
nan

>  <Num_Resolved_Atoms>  (472) 
nan

>  <Num_Not_Resolved_Atoms>  (472) 
nan

$$$$
CHEMBL247365
     RDKit          3D

  0  0  0  0  0  0  0  0  0  0999 V3000
M  V30 BEGIN CTAB
M  V30 COUNTS 15 16 0 0 0
M  V30 BEGIN ATOM
M  V30 1 Br -0.732699 -1.982839 3.754188 0
M  V30 2 C 0.057152 -1.044657 2.306517 0
M  V30 3 C -0.331949 -1.227614 0.992028 0
M  V30 4 C 0.287118 -0.510067 -0.013528 0
M  V30 5 C 1.283351 0.390652 0.212769 0
M  V30 6 C 2.033002 1.205943 -0.615578 0
M  V30 7 N 2.870388 1.877718 0.194301 0
M  V30 8 N 2.665042 1.511706 1.457394 0
M  V30 9 C 1.685101 0.584379 1.534997 0
M  V30 10 C 1.064588 -0.133218 2.531075 0
M  V30 11 H -1.115098 -1.928910 0.764944 0
M  V30 12 H -0.053970 -0.688940 -1.031491 0
M  V30 13 H 1.969472 1.297336 -1.710882 0
M  V30 14 H 3.161143 1.857698 2.314692 0
M  V30 15 H 1.448121 0.089650 3.517894 0
M  V30 END ATOM
M  V30 BEGIN BOND
M  V30 1 1 1 2
M  V30 2 2 2 3
M  V30 3 1 3 4
M  V30 4 2 4 5
M  V30 5 1 5 6
M  V30 6 2 6 7
M  V30 7 1 7 8
M  V30 8 1 8 9
M  V30 9 2 9 10
M  V30 10 1 10 2
M  V30 11 1 9 5
M  V30 12 1 3 11
M  V30 13 1 4 12
M  V30 14 1 6 13
M  V30 15 1 8 14
M  V30 16 1 10 15
M  V30 END BOND
M  V30 END CTAB
M  END
>  <Dataset>  (473) 
ChEMBL_Kinases

>  <Ligand_Instance>  (473) 
nan

>  <PDB_ID>  (473) 
nan

>  <Standardized_SMILES>  (473) 
Brc1ccc2cn[nH]c2c1

>  <Name>  (473) 
nan

>  <Pocket>  (473) 
nan

>  <ATP_Site>  (473) 
nan

>  <Peripheral>  (473) 
nan

>  <Num_H_Atoms_ProtBoundConf>  (473) 
nan

>  <Num_Resolved_Atoms>  (473) 
nan

>  <Num_Not_Resolved_Atoms>  (473) 
nan

$$$$
CHEMBL247484
     RDKit          3D

  0  0  0  0  0  0  0  0  0  0999 V3000
M  V30 BEGIN CTAB
M  V30 COUNTS 32 34 0 0 0
M  V30 BEGIN ATOM
M  V30 1 O -1.553026 -1.107409 4.021132 0
M  V30 2 C -1.138789 -0.688821 2.901734 0
M  V30 3 C -0.161213 -1.349878 2.185884 0
M  V30 4 C 0.324654 -0.935996 0.962956 0
M  V30 5 C 1.359733 -1.655586 0.227939 0
M  V30 6 C 1.964668 -2.817242 0.664051 0
M  V30 7 C 2.941284 -3.471979 -0.057747 0
M  V30 8 O 3.493573 -4.622438 0.445423 0
M  V30 9 C 3.319276 -2.913996 -1.284915 0
M  V30 10 O 4.309132 -3.603049 -1.986787 0
M  V30 11 C 2.729405 -1.753071 -1.743106 0
M  V30 12 O 3.130969 -1.228102 -2.967584 0
M  V30 13 C 1.756012 -1.132756 -0.986005 0
M  V30 14 O -0.225951 0.178471 0.499361 0
M  V30 15 C -1.150258 0.821413 1.155292 0
M  V30 16 C -1.617082 1.971392 0.522683 0
M  V30 17 C -2.597411 2.724262 1.135475 0
M  V30 18 O -3.095561 3.887229 0.535368 0
M  V30 19 C -3.129378 2.357056 2.374055 0
M  V30 20 C -2.658364 1.206523 3.000934 0
M  V30 21 O -3.116519 0.754480 4.226269 0
M  V30 22 C -1.681799 0.466756 2.378558 0
M  V30 23 H 0.215634 -2.231183 2.641629 0
M  V30 24 H 1.659752 -3.230316 1.610711 0
M  V30 25 H 3.200495 -5.535875 0.105025 0
M  V30 26 H 4.476198 -3.421445 -2.975818 0
M  V30 27 H 2.454447 -0.834398 -3.605345 0
M  V30 28 H 1.309223 -0.225658 -1.365518 0
M  V30 29 H -1.244662 2.305249 -0.434120 0
M  V30 30 H -3.983785 3.906559 0.019370 0
M  V30 31 H -3.900766 2.923742 2.886293 0
M  V30 32 H -3.692006 -0.088231 4.314179 0
M  V30 END ATOM
M  V30 BEGIN BOND
M  V30 1 2 1 2
M  V30 2 1 2 3
M  V30 3 2 3 4
M  V30 4 1 4 5
M  V30 5 2 5 6
M  V30 6 1 6 7
M  V30 7 1 7 8
M  V30 8 2 7 9
M  V30 9 1 9 10
M  V30 10 1 9 11
M  V30 11 1 11 12
M  V30 12 2 11 13
M  V30 13 1 4 14
M  V30 14 1 14 15
M  V30 15 2 15 16
M  V30 16 1 16 17
M  V30 17 1 17 18
M  V30 18 2 17 19
M  V30 19 1 19 20
M  V30 20 1 20 21
M  V30 21 2 20 22
M  V30 22 1 22 2
M  V30 23 1 13 5
M  V30 24 1 22 15
M  V30 25 1 3 23
M  V30 26 1 6 24
M  V30 27 1 8 25
M  V30 28 1 10 26
M  V30 29 1 12 27
M  V30 30 1 13 28
M  V30 31 1 16 29
M  V30 32 1 18 30
M  V30 33 1 19 31
M  V30 34 1 21 32
M  V30 END BOND
M  V30 END CTAB
M  END
>  <Dataset>  (474) 
ChEMBL_Kinases

>  <Ligand_Instance>  (474) 
nan

>  <PDB_ID>  (474) 
nan

>  <Standardized_SMILES>  (474) 
O=c1cc(-c2cc(O)c(O)c(O)c2)oc2cc(O)cc(O)c12

>  <Name>  (474) 
TRICETIN

>  <Pocket>  (474) 
nan

>  <ATP_Site>  (474) 
nan

>  <Peripheral>  (474) 
nan

>  <Num_H_Atoms_ProtBoundConf>  (474) 
nan

>  <Num_Resolved_Atoms>  (474) 
nan

>  <Num_Not_Resolved_Atoms>  (474) 
nan

$$$$
CHEMBL247509
     RDKit          3D

  0  0  0  0  0  0  0  0  0  0999 V3000
M  V30 BEGIN CTAB
M  V30 COUNTS 40 43 0 0 0
M  V30 BEGIN ATOM
M  V30 1 C -1.032632 -3.626988 -0.191734 0
M  V30 2 C 0.488402 -3.681319 -0.308094 0
M  V30 3 C 0.872650 -4.983073 -0.911600 0
M  V30 4 N 1.246740 -4.899338 -2.308896 0
M  V30 5 C 1.690459 -3.773429 -3.015902 0
M  V30 6 O 2.194973 -3.788479 -4.146513 0
M  V30 7 C 1.539699 -2.473299 -2.351225 0
M  V30 8 N 1.818778 -1.192446 -2.651323 0
M  V30 9 C 1.444247 -0.409989 -1.617394 0
M  V30 10 C 1.547262 0.974315 -1.498140 0
M  V30 11 C 1.105717 1.606456 -0.352451 0
M  V30 12 C 0.563800 0.836137 0.663494 0
M  V30 13 C 0.055046 1.373968 1.935519 0
M  V30 14 O -0.443207 0.684830 2.873754 0
M  V30 15 N 0.073620 2.767298 2.246480 0
M  V30 16 C -0.480610 3.020287 3.547960 0
M  V30 17 C 0.262765 3.038612 4.717999 0
M  V30 18 C -0.369833 3.293040 5.923365 0
M  V30 19 N -1.689423 3.522157 5.979169 0
M  V30 20 C -2.377909 3.496582 4.825403 0
M  V30 21 C -1.854205 3.252863 3.557818 0
M  V30 22 C 0.465623 -0.544696 0.534315 0
M  V30 23 C 0.903571 -1.188333 -0.606241 0
M  V30 24 C 0.974255 -2.490295 -1.092638 0
M  V30 25 H -1.348330 -3.154452 0.765764 0
M  V30 26 H -1.455262 -3.002130 -1.005820 0
M  V30 27 H -1.505571 -4.615908 -0.260585 0
M  V30 28 H 0.851605 -3.654796 0.740367 0
M  V30 29 H 0.080793 -5.772239 -0.804812 0
M  V30 30 H 1.765667 -5.380479 -0.385966 0
M  V30 31 H 1.182183 -5.792608 -2.881388 0
M  V30 32 H 2.251394 -0.873454 -3.537059 0
M  V30 33 H 1.970566 1.580824 -2.290523 0
M  V30 34 H 1.158287 2.659349 -0.204210 0
M  V30 35 H 0.464565 3.446203 1.545282 0
M  V30 36 H 1.334742 2.843143 4.596533 0
M  V30 37 H 0.338740 3.276498 6.761380 0
M  V30 38 H -3.439247 3.684713 4.901678 0
M  V30 39 H -2.491623 3.254334 2.694568 0
M  V30 40 H 0.045182 -1.162306 1.317494 0
M  V30 END ATOM
M  V30 BEGIN BOND
M  V30 1 1 1 2
M  V30 2 1 2 3
M  V30 3 1 3 4
M  V30 4 1 4 5
M  V30 5 2 5 6
M  V30 6 1 5 7
M  V30 7 1 7 8
M  V30 8 1 8 9
M  V30 9 2 9 10
M  V30 10 1 10 11
M  V30 11 2 11 12
M  V30 12 1 12 13
M  V30 13 2 13 14
M  V30 14 1 13 15
M  V30 15 1 15 16
M  V30 16 2 16 17
M  V30 17 1 17 18
M  V30 18 2 18 19
M  V30 19 1 19 20
M  V30 20 2 20 21
M  V30 21 1 12 22
M  V30 22 2 22 23
M  V30 23 1 23 24
M  V30 24 1 24 2
M  V30 25 2 24 7
M  V30 26 1 23 9
M  V30 27 1 21 16
M  V30 28 1 1 25
M  V30 29 1 1 26
M  V30 30 1 1 27
M  V30 31 1 2 28
M  V30 32 1 3 29
M  V30 33 1 3 30
M  V30 34 1 4 31
M  V30 35 1 8 32
M  V30 36 1 10 33
M  V30 37 1 11 34
M  V30 38 1 15 35
M  V30 39 1 17 36
M  V30 40 1 18 37
M  V30 41 1 20 38
M  V30 42 1 21 39
M  V30 43 1 22 40
M  V30 END BOND
M  V30 END CTAB
M  END
>  <Dataset>  (475) 
ChEMBL_Kinases

>  <Ligand_Instance>  (475) 
nan

>  <PDB_ID>  (475) 
nan

>  <Standardized_SMILES>  (475) 
CC1CNC(=O)c2[nH]c3ccc(C(=O)Nc4ccncc4)cc3c21

>  <Name>  (475) 
nan

>  <Pocket>  (475) 
nan

>  <ATP_Site>  (475) 
nan

>  <Peripheral>  (475) 
nan

>  <Num_H_Atoms_ProtBoundConf>  (475) 
nan

>  <Num_Resolved_Atoms>  (475) 
nan

>  <Num_Not_Resolved_Atoms>  (475) 
nan

$$$$
CHEMBL248335
     RDKit          3D

  0  0  0  0  0  0  0  0  0  0999 V3000
M  V30 BEGIN CTAB
M  V30 COUNTS 50 53 0 0 0
M  V30 BEGIN ATOM
M  V30 1 C 2.357834 -4.077515 -5.324073 0
M  V30 2 C 3.373992 -3.764277 -4.250171 0
M  V30 3 C 4.502782 -3.002400 -4.905003 0
M  V30 4 C 2.776506 -3.055516 -3.094261 0
M  V30 5 C 2.204653 -1.818140 -3.315122 0
M  V30 6 C 1.636670 -1.132015 -2.245658 0
M  V30 7 C 1.617401 -1.637943 -0.953011 0
M  V30 8 N 1.030777 -0.920822 0.131285 0
M  V30 9 C 1.685599 0.004440 0.983919 0
M  V30 10 O 2.902290 0.305870 0.873343 0
M  V30 11 C 0.967936 0.675482 2.063869 0
M  V30 12 C 1.638474 1.569495 2.872842 0
M  V30 13 C 1.045561 2.261202 3.929227 0
M  V30 14 C -0.296446 2.014832 4.154393 0
M  V30 15 N -1.120656 2.543339 5.105289 0
M  V30 16 C -2.328016 1.998929 4.922081 0
M  V30 17 C -2.309944 1.119050 3.863347 0
M  V30 18 C -1.001712 1.139647 3.381374 0
M  V30 19 C -0.366495 0.497052 2.367307 0
M  V30 20 C -3.452011 0.319379 3.349706 0
M  V30 21 C -4.117089 1.000052 2.168961 0
M  V30 22 C -4.524985 0.128296 4.402712 0
M  V30 23 N -4.772068 1.369509 5.116233 0
M  V30 24 C -3.637623 2.112887 5.565469 0
M  V30 25 O -3.780974 2.891830 6.552070 0
M  V30 26 C 2.196263 -2.888321 -0.734578 0
M  V30 27 C 2.763413 -3.571402 -1.807307 0
M  V30 28 H 1.758050 -4.975099 -5.107238 0
M  V30 29 H 1.620025 -3.225650 -5.366110 0
M  V30 30 H 2.836175 -4.111446 -6.323660 0
M  V30 31 H 3.767623 -4.720044 -3.852916 0
M  V30 32 H 4.603758 -3.395147 -5.945518 0
M  V30 33 H 4.192635 -1.944414 -4.987774 0
M  V30 34 H 5.470117 -3.144373 -4.386848 0
M  V30 35 H 2.203263 -1.396012 -4.310680 0
M  V30 36 H 1.187919 -0.162878 -2.414501 0
M  V30 37 H 0.025940 -1.160928 0.233151 0
M  V30 38 H 2.693519 1.794996 2.733850 0
M  V30 39 H 1.606293 2.952759 4.538716 0
M  V30 40 H -0.899074 3.239606 5.851749 0
M  V30 41 H -0.926532 -0.196548 1.755111 0
M  V30 42 H -3.094261 -0.662743 3.000950 0
M  V30 43 H -4.640421 0.183968 1.592606 0
M  V30 44 H -4.956012 1.653025 2.541667 0
M  V30 45 H -3.429195 1.556674 1.531178 0
M  V30 46 H -4.300256 -0.716908 5.080226 0
M  V30 47 H -5.478670 -0.142317 3.903346 0
M  V30 48 H -5.752460 1.722936 5.303865 0
M  V30 49 H 2.204212 -3.319867 0.252191 0
M  V30 50 H 3.216744 -4.553969 -1.628339 0
M  V30 END ATOM
M  V30 BEGIN BOND
M  V30 1 1 1 2
M  V30 2 1 2 3
M  V30 3 1 2 4
M  V30 4 2 4 5
M  V30 5 1 5 6
M  V30 6 2 6 7
M  V30 7 1 7 8
M  V30 8 1 8 9
M  V30 9 2 9 10
M  V30 10 1 9 11
M  V30 11 2 11 12
M  V30 12 1 12 13
M  V30 13 2 13 14
M  V30 14 1 14 15
M  V30 15 1 15 16
M  V30 16 2 16 17
M  V30 17 1 17 18
M  V30 18 2 18 19
M  V30 19 1 17 20
M  V30 20 1 20 21
M  V30 21 1 20 22
M  V30 22 1 22 23
M  V30 23 1 23 24
M  V30 24 2 24 25
M  V30 25 1 7 26
M  V30 26 2 26 27
M  V30 27 1 27 4
M  V30 28 1 19 11
M  V30 29 1 18 14
M  V30 30 1 24 16
M  V30 31 1 1 28
M  V30 32 1 1 29
M  V30 33 1 1 30
M  V30 34 1 2 31
M  V30 35 1 3 32
M  V30 36 1 3 33
M  V30 37 1 3 34
M  V30 38 1 5 35
M  V30 39 1 6 36
M  V30 40 1 8 37
M  V30 41 1 12 38
M  V30 42 1 13 39
M  V30 43 1 15 40
M  V30 44 1 19 41
M  V30 45 1 20 42
M  V30 46 1 21 43
M  V30 47 1 21 44
M  V30 48 1 21 45
M  V30 49 1 22 46
M  V30 50 1 22 47
M  V30 51 1 23 48
M  V30 52 1 26 49
M  V30 53 1 27 50
M  V30 END BOND
M  V30 END CTAB
M  END
>  <Dataset>  (476) 
ChEMBL_Kinases

>  <Ligand_Instance>  (476) 
nan

>  <PDB_ID>  (476) 
nan

>  <Standardized_SMILES>  (476) 
CC(C)c1ccc(NC(=O)c2ccc3[nH]c4c(c3c2)C(C)CNC4=O)cc1

>  <Name>  (476) 
nan

>  <Pocket>  (476) 
nan

>  <ATP_Site>  (476) 
nan

>  <Peripheral>  (476) 
nan

>  <Num_H_Atoms_ProtBoundConf>  (476) 
nan

>  <Num_Resolved_Atoms>  (476) 
nan

>  <Num_Not_Resolved_Atoms>  (476) 
nan

$$$$
CHEMBL247707
     RDKit          3D

  0  0  0  0  0  0  0  0  0  0999 V3000
M  V30 BEGIN CTAB
M  V30 COUNTS 35 37 0 0 0
M  V30 BEGIN ATOM
M  V30 1 C -1.985678 -5.635889 -0.699329 0
M  V30 2 O -1.834984 -4.233223 -0.799767 0
M  V30 3 C -0.961458 -3.567081 0.049924 0
M  V30 4 C -0.161555 -4.090521 1.045420 0
M  V30 5 C 0.647032 -3.270791 1.792973 0
M  V30 6 C 0.674656 -1.918467 1.564469 0
M  V30 7 N 1.372501 -0.931815 2.156087 0
M  V30 8 C 1.071460 0.254617 1.591637 0
M  V30 9 C 0.157229 0.004038 0.616692 0
M  V30 10 C -0.116989 -1.352214 0.570009 0
M  V30 11 C -0.926276 -2.185569 -0.175717 0
M  V30 12 C -0.354456 1.122853 -0.170487 0
M  V30 13 C -0.528618 2.390015 0.626619 0
M  V30 14 C -0.576341 3.610797 -0.266959 0
M  V30 15 N 0.441292 2.600643 1.637907 0
M  V30 16 C 1.486501 1.665476 1.785398 0
M  V30 17 C 2.659657 1.884647 0.910733 0
M  V30 18 O 3.675118 1.134192 0.924397 0
M  V30 19 O 2.755617 2.916025 0.008351 0
M  V30 20 H -3.023242 -5.871405 -1.065255 0
M  V30 21 H -1.926763 -5.997052 0.360379 0
M  V30 22 H -1.310459 -6.208701 -1.355102 0
M  V30 23 H -0.244822 -5.160363 1.157495 0
M  V30 24 H 1.259816 -3.721499 2.565110 0
M  V30 25 H 2.050669 -1.039891 2.935690 0
M  V30 26 H -1.529673 -1.687968 -0.946379 0
M  V30 27 H -1.313567 0.908683 -0.689945 0
M  V30 28 H 0.382699 1.364314 -0.983405 0
M  V30 29 H -1.547970 2.314893 1.093526 0
M  V30 30 H -0.183677 4.519237 0.269986 0
M  V30 31 H -0.060416 3.479811 -1.232430 0
M  V30 32 H -1.633423 3.906640 -0.516056 0
M  V30 33 H -0.008459 2.764457 2.567423 0
M  V30 34 H 1.874241 1.716453 2.832329 0
M  V30 35 H 3.614500 3.443204 -0.132433 0
M  V30 END ATOM
M  V30 BEGIN BOND
M  V30 1 1 1 2
M  V30 2 1 2 3
M  V30 3 2 3 4
M  V30 4 1 4 5
M  V30 5 2 5 6
M  V30 6 1 6 7
M  V30 7 1 7 8
M  V30 8 2 8 9
M  V30 9 1 9 10
M  V30 10 2 10 11
M  V30 11 1 9 12
M  V30 12 1 12 13
M  V30 13 1 13 14
M  V30 14 1 13 15
M  V30 15 1 15 16
M  V30 16 1 16 17
M  V30 17 2 17 18
M  V30 18 1 17 19
M  V30 19 1 11 3
M  V30 20 1 10 6
M  V30 21 1 16 8
M  V30 22 1 1 20
M  V30 23 1 1 21
M  V30 24 1 1 22
M  V30 25 1 4 23
M  V30 26 1 5 24
M  V30 27 1 7 25
M  V30 28 1 11 26
M  V30 29 1 12 27
M  V30 30 1 12 28
M  V30 31 1 13 29
M  V30 32 1 14 30
M  V30 33 1 14 31
M  V30 34 1 14 32
M  V30 35 1 15 33
M  V30 36 1 16 34
M  V30 37 1 19 35
M  V30 END BOND
M  V30 END CTAB
M  END
>  <Dataset>  (477) 
ChEMBL_Kinases

>  <Ligand_Instance>  (477) 
nan

>  <PDB_ID>  (477) 
nan

>  <Standardized_SMILES>  (477) 
COc1ccc2[nH]c3c(c2c1)CC(C)NC3C(=O)O

>  <Name>  (477) 
nan

>  <Pocket>  (477) 
nan

>  <ATP_Site>  (477) 
nan

>  <Peripheral>  (477) 
nan

>  <Num_H_Atoms_ProtBoundConf>  (477) 
nan

>  <Num_Resolved_Atoms>  (477) 
nan

>  <Num_Not_Resolved_Atoms>  (477) 
nan

$$$$
CHEMBL248108
     RDKit          3D

  0  0  0  0  0  0  0  0  0  0999 V3000
M  V30 BEGIN CTAB
M  V30 COUNTS 62 67 0 0 0
M  V30 BEGIN ATOM
M  V30 1 N 1.902331 -2.353909 4.278047 0
M  V30 2 C 2.132342 -1.193150 3.434470 0
M  V30 3 C 2.005954 -1.627268 2.009969 0
M  V30 4 C 1.911650 -0.511419 1.013435 0
M  V30 5 N 0.898777 0.467539 1.346595 0
M  V30 6 C 1.506148 1.750806 1.318564 0
M  V30 7 C 0.651604 2.896060 1.627236 0
M  V30 8 C 0.621123 3.593583 2.841111 0
M  V30 9 C -0.325738 4.602015 2.722576 0
M  V30 10 N -0.893018 4.569489 1.485396 0
M  V30 11 N -1.815981 5.280057 0.859574 0
M  V30 12 C -2.157951 4.982550 -0.406839 0
M  V30 13 N -1.575990 3.960367 -1.071297 0
M  V30 14 C -0.625138 3.222816 -0.436337 0
M  V30 15 N -0.117581 2.195738 -1.280782 0
M  V30 16 C -0.603163 0.862549 -1.529080 0
M  V30 17 C -0.002250 -0.021071 -2.396687 0
M  V30 18 C -0.601327 -1.255794 -2.514956 0
M  V30 19 C -1.736312 -1.640493 -1.830476 0
M  V30 20 C -2.283252 -0.701323 -0.977833 0
M  V30 21 C -3.385866 -1.329975 -0.431945 0
M  V30 22 N -3.457988 -2.568323 -0.953058 0
M  V30 23 N -2.468945 -2.783068 -1.804841 0
M  V30 24 C -2.222115 -3.982691 -2.550923 0
M  V30 25 C -1.349573 -4.868889 -1.757955 0
M  V30 26 C 0.012378 -4.846167 -1.810317 0
M  V30 27 C 0.749994 -5.724487 -1.023060 0
M  V30 28 C 0.184548 -6.647244 -0.164787 0
M  V30 29 C -1.185376 -6.646746 -0.133539 0
M  V30 30 F -1.797687 -7.544956 0.702854 0
M  V30 31 C -1.945874 -5.785945 -0.904297 0
M  V30 32 C -1.752635 0.549207 -0.800222 0
M  V30 33 C -0.293678 3.549654 0.862071 0
M  V30 34 C 0.243888 0.100270 2.558840 0
M  V30 35 C 1.185353 -0.079346 3.721960 0
M  V30 36 H 1.252925 -3.014559 3.802625 0
M  V30 37 H 1.519611 -2.084863 5.208509 0
M  V30 38 H 3.164731 -0.842021 3.675128 0
M  V30 39 H 2.974726 -2.156258 1.766696 0
M  V30 40 H 1.232309 -2.394172 1.846924 0
M  V30 41 H 1.732312 -0.974254 0.021367 0
M  V30 42 H 2.918898 -0.049754 0.968806 0
M  V30 43 H 2.347051 1.715783 2.065810 0
M  V30 44 H 2.032337 1.845602 0.339684 0
M  V30 45 H 1.218995 3.396381 3.720703 0
M  V30 46 H -0.572926 5.309612 3.504977 0
M  V30 47 H -2.930422 5.603757 -0.881358 0
M  V30 48 H 0.761403 2.448854 -1.816986 0
M  V30 49 H 0.883557 0.290177 -2.926033 0
M  V30 50 H -0.133327 -1.963431 -3.199437 0
M  V30 51 H -4.058198 -0.859180 0.298814 0
M  V30 52 H -1.758811 -3.678283 -3.514275 0
M  V30 53 H -3.192586 -4.508509 -2.747589 0
M  V30 54 H 0.517267 -4.151170 -2.458766 0
M  V30 55 H 1.836127 -5.676590 -1.091696 0
M  V30 56 H 0.840843 -7.282410 0.401650 0
M  V30 57 H -3.017955 -5.879176 -0.793893 0
M  V30 58 H -2.221010 1.225014 -0.129734 0
M  V30 59 H -0.615129 0.756648 2.790823 0
M  V30 60 H -0.216521 -0.912147 2.382452 0
M  V30 61 H 1.717693 0.882281 3.843662 0
M  V30 62 H 0.556271 -0.340007 4.601377 0
M  V30 END ATOM
M  V30 BEGIN BOND
M  V30 1 1 1 2
M  V30 2 1 2 3
M  V30 3 1 3 4
M  V30 4 1 4 5
M  V30 5 1 5 6
M  V30 6 1 6 7
M  V30 7 1 7 8
M  V30 8 2 8 9
M  V30 9 1 9 10
M  V30 10 1 10 11
M  V30 11 2 11 12
M  V30 12 1 12 13
M  V30 13 2 13 14
M  V30 14 1 14 15
M  V30 15 1 15 16
M  V30 16 2 16 17
M  V30 17 1 17 18
M  V30 18 2 18 19
M  V30 19 1 19 20
M  V30 20 1 20 21
M  V30 21 2 21 22
M  V30 22 1 22 23
M  V30 23 1 23 24
M  V30 24 1 24 25
M  V30 25 2 25 26
M  V30 26 1 26 27
M  V30 27 2 27 28
M  V30 28 1 28 29
M  V30 29 1 29 30
M  V30 30 2 29 31
M  V30 31 2 20 32
M  V30 32 1 14 33
M  V30 33 1 5 34
M  V30 34 1 34 35
M  V30 35 1 35 2
M  V30 36 2 33 7
M  V30 37 1 33 10
M  V30 38 1 32 16
M  V30 39 1 23 19
M  V30 40 1 31 25
M  V30 41 1 1 36
M  V30 42 1 1 37
M  V30 43 1 2 38
M  V30 44 1 3 39
M  V30 45 1 3 40
M  V30 46 1 4 41
M  V30 47 1 4 42
M  V30 48 1 6 43
M  V30 49 1 6 44
M  V30 50 1 8 45
M  V30 51 1 9 46
M  V30 52 1 12 47
M  V30 53 1 15 48
M  V30 54 1 17 49
M  V30 55 1 18 50
M  V30 56 1 21 51
M  V30 57 1 24 52
M  V30 58 1 24 53
M  V30 59 1 26 54
M  V30 60 1 27 55
M  V30 61 1 28 56
M  V30 62 1 31 57
M  V30 63 1 32 58
M  V30 64 1 34 59
M  V30 65 1 34 60
M  V30 66 1 35 61
M  V30 67 1 35 62
M  V30 END BOND
M  V30 END CTAB
M  END
>  <Dataset>  (478) 
ChEMBL_Kinases

>  <Ligand_Instance>  (478) 
nan

>  <PDB_ID>  (478) 
nan

>  <Standardized_SMILES>  (478) 
NC1CCN(Cc2ccn3ncnc(Nc4ccc5c(cnn5Cc5cccc(F)c5)c4)c23)CC1

>  <Name>  (478) 
nan

>  <Pocket>  (478) 
nan

>  <ATP_Site>  (478) 
nan

>  <Peripheral>  (478) 
nan

>  <Num_H_Atoms_ProtBoundConf>  (478) 
nan

>  <Num_Resolved_Atoms>  (478) 
nan

>  <Num_Not_Resolved_Atoms>  (478) 
nan

$$$$
CHEMBL248110
     RDKit          3D

  0  0  0  0  0  0  0  0  0  0999 V3000
M  V30 BEGIN CTAB
M  V30 COUNTS 35 37 0 0 0
M  V30 BEGIN ATOM
M  V30 1 C -1.489427 -5.649776 0.147556 0
M  V30 2 O -1.508637 -4.279842 -0.204411 0
M  V30 3 C -0.675275 -3.422022 0.497220 0
M  V30 4 C 0.207296 -3.680268 1.522197 0
M  V30 5 C 0.942530 -2.669605 2.079875 0
M  V30 6 C 0.806055 -1.376592 1.618601 0
M  V30 7 N 1.418339 -0.249151 2.013958 0
M  V30 8 C 0.961691 0.773072 1.268915 0
M  V30 9 C 0.035010 0.291415 0.374620 0
M  V30 10 C -0.078591 -1.069232 0.579493 0
M  V30 11 C -0.813802 -2.117165 0.030844 0
M  V30 12 C -0.663479 1.150071 -0.594672 0
M  V30 13 C -2.112834 1.385983 -0.252047 0
M  V30 14 C 0.023163 2.501890 -0.589051 0
M  V30 15 N 0.298035 2.991951 0.730873 0
M  V30 16 C 1.335052 2.201343 1.330993 0
M  V30 17 C 2.650081 2.466444 0.690215 0
M  V30 18 O 2.980692 3.237895 -0.250253 0
M  V30 19 O 3.760000 1.798190 1.135762 0
M  V30 20 H -2.136310 -5.825333 1.055410 0
M  V30 21 H -0.451589 -5.970357 0.340440 0
M  V30 22 H -1.899175 -6.245425 -0.701115 0
M  V30 23 H 0.230384 -4.715785 1.797582 0
M  V30 24 H 1.616847 -2.949557 2.882983 0
M  V30 25 H 2.131093 -0.201293 2.779757 0
M  V30 26 H -1.461676 -1.769210 -0.759831 0
M  V30 27 H -0.552437 0.767842 -1.645747 0
M  V30 28 H -2.643815 1.659347 -1.204244 0
M  V30 29 H -2.255959 2.203982 0.471010 0
M  V30 30 H -2.623906 0.476296 0.117409 0
M  V30 31 H -0.704269 3.205952 -1.052428 0
M  V30 32 H 0.955894 2.490359 -1.164625 0
M  V30 33 H -0.499723 3.045325 1.366402 0
M  V30 34 H 1.424487 2.479460 2.409896 0
M  V30 35 H 4.688419 2.192342 1.205703 0
M  V30 END ATOM
M  V30 BEGIN BOND
M  V30 1 1 1 2
M  V30 2 1 2 3
M  V30 3 2 3 4
M  V30 4 1 4 5
M  V30 5 2 5 6
M  V30 6 1 6 7
M  V30 7 1 7 8
M  V30 8 2 8 9
M  V30 9 1 9 10
M  V30 10 2 10 11
M  V30 11 1 9 12
M  V30 12 1 12 13
M  V30 13 1 12 14
M  V30 14 1 14 15
M  V30 15 1 15 16
M  V30 16 1 16 17
M  V30 17 2 17 18
M  V30 18 1 17 19
M  V30 19 1 11 3
M  V30 20 1 10 6
M  V30 21 1 16 8
M  V30 22 1 1 20
M  V30 23 1 1 21
M  V30 24 1 1 22
M  V30 25 1 4 23
M  V30 26 1 5 24
M  V30 27 1 7 25
M  V30 28 1 11 26
M  V30 29 1 12 27
M  V30 30 1 13 28
M  V30 31 1 13 29
M  V30 32 1 13 30
M  V30 33 1 14 31
M  V30 34 1 14 32
M  V30 35 1 15 33
M  V30 36 1 16 34
M  V30 37 1 19 35
M  V30 END BOND
M  V30 END CTAB
M  END
>  <Dataset>  (479) 
ChEMBL_Kinases

>  <Ligand_Instance>  (479) 
nan

>  <PDB_ID>  (479) 
nan

>  <Standardized_SMILES>  (479) 
COc1ccc2[nH]c3c(c2c1)C(C)CNC3C(=O)O

>  <Name>  (479) 
nan

>  <Pocket>  (479) 
nan

>  <ATP_Site>  (479) 
nan

>  <Peripheral>  (479) 
nan

>  <Num_H_Atoms_ProtBoundConf>  (479) 
nan

>  <Num_Resolved_Atoms>  (479) 
nan

>  <Num_Not_Resolved_Atoms>  (479) 
nan

$$$$
CHEMBL248174
     RDKit          3D

  0  0  0  0  0  0  0  0  0  0999 V3000
M  V30 BEGIN CTAB
M  V30 COUNTS 33 35 0 0 0
M  V30 BEGIN ATOM
M  V30 1 O 2.541545 -3.177068 2.570566 0
M  V30 2 C 1.445104 -3.235461 1.920221 0
M  V30 3 N 0.693255 -4.453570 1.807494 0
M  V30 4 C -0.164710 -4.510746 0.652491 0
M  V30 5 C -0.997925 -3.287463 0.449127 0
M  V30 6 C -0.230518 -2.033606 0.561163 0
M  V30 7 C 0.936711 -2.027181 1.269244 0
M  V30 8 C 1.394487 -0.716928 1.176956 0
M  V30 9 C 0.497643 0.044116 0.416003 0
M  V30 10 C 0.820464 1.449932 0.222549 0
M  V30 11 C 1.209407 2.175305 1.358370 0
M  V30 12 C 1.560668 3.527928 1.359310 0
M  V30 13 N 1.516380 4.158298 0.182342 0
M  V30 14 C 1.154369 3.521324 -0.931715 0
M  V30 15 C 0.808688 2.187302 -0.929052 0
M  V30 16 N -0.462149 -0.801582 0.071806 0
M  V30 17 C -1.587157 -0.398174 -0.718449 0
M  V30 18 C -2.735455 0.092229 0.155106 0
M  V30 19 F -3.113147 -0.943053 0.987231 0
M  V30 20 F -2.330153 1.133597 0.967269 0
M  V30 21 F -3.806397 0.475319 -0.623004 0
M  V30 22 H 0.843917 -5.174057 2.572881 0
M  V30 23 H 0.385318 -4.806574 -0.260968 0
M  V30 24 H -0.880265 -5.358416 0.847690 0
M  V30 25 H -1.874293 -3.337062 1.145039 0
M  V30 26 H -1.404351 -3.347196 -0.586271 0
M  V30 27 H 2.334558 -0.446682 1.672378 0
M  V30 28 H 1.245736 1.658772 2.322925 0
M  V30 29 H 1.844475 3.982711 2.297802 0
M  V30 30 H 1.114258 4.024265 -1.897904 0
M  V30 31 H 0.525697 1.679488 -1.815605 0
M  V30 32 H -1.982544 -1.325925 -1.234446 0
M  V30 33 H -1.362637 0.288089 -1.553440 0
M  V30 END ATOM
M  V30 BEGIN BOND
M  V30 1 2 1 2
M  V30 2 1 2 3
M  V30 3 1 3 4
M  V30 4 1 4 5
M  V30 5 1 5 6
M  V30 6 2 6 7
M  V30 7 1 7 8
M  V30 8 2 8 9
M  V30 9 1 9 10
M  V30 10 2 10 11
M  V30 11 1 11 12
M  V30 12 2 12 13
M  V30 13 1 13 14
M  V30 14 2 14 15
M  V30 15 1 9 16
M  V30 16 1 16 17
M  V30 17 1 17 18
M  V30 18 1 18 19
M  V30 19 1 18 20
M  V30 20 1 18 21
M  V30 21 1 7 2
M  V30 22 1 15 10
M  V30 23 1 16 6
M  V30 24 1 3 22
M  V30 25 1 4 23
M  V30 26 1 4 24
M  V30 27 1 5 25
M  V30 28 1 5 26
M  V30 29 1 8 27
M  V30 30 1 11 28
M  V30 31 1 12 29
M  V30 32 1 14 30
M  V30 33 1 15 31
M  V30 34 1 17 32
M  V30 35 1 17 33
M  V30 END BOND
M  V30 END CTAB
M  END
>  <Dataset>  (480) 
ChEMBL_Kinases

>  <Ligand_Instance>  (480) 
nan

>  <PDB_ID>  (480) 
nan

>  <Standardized_SMILES>  (480) 
O=C1NCCc2c1cc(-c1ccncc1)n2CC(F)(F)F

>  <Name>  (480) 
nan

>  <Pocket>  (480) 
nan

>  <ATP_Site>  (480) 
nan

>  <Peripheral>  (480) 
nan

>  <Num_H_Atoms_ProtBoundConf>  (480) 
nan

>  <Num_Resolved_Atoms>  (480) 
nan

>  <Num_Not_Resolved_Atoms>  (480) 
nan

$$$$
CHEMBL248219
     RDKit          3D

  0  0  0  0  0  0  0  0  0  0999 V3000
M  V30 BEGIN CTAB
M  V30 COUNTS 29 31 0 0 0
M  V30 BEGIN ATOM
M  V30 1 C -2.959634 -1.734617 3.189147 0
M  V30 2 N -1.510732 -1.645538 3.218124 0
M  V30 3 C -0.639372 -0.834241 2.450978 0
M  V30 4 C -0.166011 -1.307276 1.221020 0
M  V30 5 C 0.686835 -0.580223 0.417902 0
M  V30 6 C 1.178295 -1.075194 -0.862093 0
M  V30 7 C 0.845300 -2.295896 -1.404291 0
M  V30 8 C 1.285256 -2.795021 -2.601451 0
M  V30 9 C 2.149495 -1.957312 -3.306169 0
M  V30 10 C 2.541086 -0.703989 -2.833762 0
M  V30 11 C 2.036062 -0.284201 -1.598140 0
M  V30 12 Cl 2.527450 1.297448 -0.995330 0
M  V30 13 N 1.057962 0.634191 0.871711 0
M  V30 14 C 0.620466 1.129798 2.060407 0
M  V30 15 C 0.859791 2.331414 2.728607 0
M  V30 16 Br 1.986135 3.749362 2.080333 0
M  V30 17 C 0.134205 2.257753 3.899643 0
M  V30 18 N -0.498209 1.087076 3.929567 0
M  V30 19 N -0.220754 0.386984 2.829466 0
M  V30 20 H -3.303090 -2.001645 2.163161 0
M  V30 21 H -3.406970 -0.771558 3.479235 0
M  V30 22 H -3.274461 -2.486915 3.930665 0
M  V30 23 H -0.745018 -2.114364 3.768558 0
M  V30 24 H -0.505248 -2.281295 0.927094 0
M  V30 25 H 0.171932 -2.951376 -0.858372 0
M  V30 26 H 1.001785 -3.757212 -2.993029 0
M  V30 27 H 2.535049 -2.290501 -4.261119 0
M  V30 28 H 3.209459 -0.122822 -3.439103 0
M  V30 29 H 0.125833 3.064768 4.635933 0
M  V30 END ATOM
M  V30 BEGIN BOND
M  V30 1 1 1 2
M  V30 2 1 2 3
M  V30 3 2 3 4
M  V30 4 1 4 5
M  V30 5 1 5 6
M  V30 6 2 6 7
M  V30 7 1 7 8
M  V30 8 2 8 9
M  V30 9 1 9 10
M  V30 10 2 10 11
M  V30 11 1 11 12
M  V30 12 2 5 13
M  V30 13 1 13 14
M  V30 14 2 14 15
M  V30 15 1 15 16
M  V30 16 1 15 17
M  V30 17 2 17 18
M  V30 18 1 18 19
M  V30 19 1 19 3
M  V30 20 1 11 6
M  V30 21 1 19 14
M  V30 22 1 1 20
M  V30 23 1 1 21
M  V30 24 1 1 22
M  V30 25 1 2 23
M  V30 26 1 4 24
M  V30 27 1 7 25
M  V30 28 1 8 26
M  V30 29 1 9 27
M  V30 30 1 10 28
M  V30 31 1 17 29
M  V30 END BOND
M  V30 END CTAB
M  END
>  <Dataset>  (481) 
ChEMBL_Kinases

>  <Ligand_Instance>  (481) 
nan

>  <PDB_ID>  (481) 
nan

>  <Standardized_SMILES>  (481) 
CNc1cc(-c2ccccc2Cl)nc2c(Br)cnn12

>  <Name>  (481) 
nan

>  <Pocket>  (481) 
nan

>  <ATP_Site>  (481) 
nan

>  <Peripheral>  (481) 
nan

>  <Num_H_Atoms_ProtBoundConf>  (481) 
nan

>  <Num_Resolved_Atoms>  (481) 
nan

>  <Num_Not_Resolved_Atoms>  (481) 
nan

$$$$
CHEMBL248316
     RDKit          3D

  0  0  0  0  0  0  0  0  0  0999 V3000
M  V30 BEGIN CTAB
M  V30 COUNTS 38 40 0 0 0
M  V30 BEGIN ATOM
M  V30 1 C 0.946277 -1.936993 3.118417 0
M  V30 2 C -0.045593 -2.534431 2.160158 0
M  V30 3 C 0.231429 -2.260067 0.734214 0
M  V30 4 C 1.576213 -2.790966 0.296281 0
M  V30 5 N 1.848756 -2.730273 -1.085350 0
M  V30 6 C 1.086369 -1.835225 -1.883741 0
M  V30 7 C 1.991078 -1.216558 -2.886096 0
M  V30 8 O 3.213492 -1.579828 -2.848469 0
M  V30 9 O 2.810747 -0.603768 -3.854928 0
M  V30 10 C 0.487028 -0.721256 -1.081997 0
M  V30 11 N 0.259119 0.562484 -1.411571 0
M  V30 12 C -0.304976 1.260433 -0.410069 0
M  V30 13 C -0.727161 2.556400 -0.232279 0
M  V30 14 C -1.276730 2.912602 0.975382 0
M  V30 15 C -1.415037 2.001781 2.013108 0
M  V30 16 O -1.984867 2.463664 3.197065 0
M  V30 17 C -2.136057 1.547928 4.273119 0
M  V30 18 C -0.978415 0.714018 1.790882 0
M  V30 19 C -0.422417 0.321682 0.592973 0
M  V30 20 C 0.047617 -0.912166 0.237232 0
M  V30 21 H 1.870905 -2.532701 3.104103 0
M  V30 22 H 1.228147 -0.902098 2.924788 0
M  V30 23 H 0.472752 -2.003201 4.133824 0
M  V30 24 H 0.064361 -3.650419 2.337054 0
M  V30 25 H -1.106743 -2.356668 2.424521 0
M  V30 26 H -0.501787 -2.891360 0.141263 0
M  V30 27 H 1.691197 -3.796025 0.752414 0
M  V30 28 H 2.339520 -2.148235 0.815804 0
M  V30 29 H 2.870127 -2.661466 -1.288063 0
M  V30 30 H 0.276316 -2.336735 -2.464151 0
M  V30 31 H 2.425604 0.167904 -4.422593 0
M  V30 32 H 0.494647 0.979116 -2.348474 0
M  V30 33 H -0.620076 3.273007 -1.043838 0
M  V30 34 H -1.589242 3.960087 1.042761 0
M  V30 35 H -2.665808 2.025742 5.114564 0
M  V30 36 H -2.730683 0.667358 3.954008 0
M  V30 37 H -1.159516 1.148135 4.610573 0
M  V30 38 H -1.091876 0.016967 2.599289 0
M  V30 END ATOM
M  V30 BEGIN BOND
M  V30 1 1 1 2
M  V30 2 1 2 3
M  V30 3 1 3 4
M  V30 4 1 4 5
M  V30 5 1 5 6
M  V30 6 1 6 7
M  V30 7 2 7 8
M  V30 8 1 7 9
M  V30 9 1 6 10
M  V30 10 1 10 11
M  V30 11 1 11 12
M  V30 12 2 12 13
M  V30 13 1 13 14
M  V30 14 2 14 15
M  V30 15 1 15 16
M  V30 16 1 16 17
M  V30 17 1 15 18
M  V30 18 2 18 19
M  V30 19 1 19 20
M  V30 20 1 20 3
M  V30 21 2 20 10
M  V30 22 1 19 12
M  V30 23 1 1 21
M  V30 24 1 1 22
M  V30 25 1 1 23
M  V30 26 1 2 24
M  V30 27 1 2 25
M  V30 28 1 3 26
M  V30 29 1 4 27
M  V30 30 1 4 28
M  V30 31 1 5 29
M  V30 32 1 6 30
M  V30 33 1 9 31
M  V30 34 1 11 32
M  V30 35 1 13 33
M  V30 36 1 14 34
M  V30 37 1 17 35
M  V30 38 1 17 36
M  V30 39 1 17 37
M  V30 40 1 18 38
M  V30 END BOND
M  V30 END CTAB
M  END
>  <Dataset>  (482) 
ChEMBL_Kinases

>  <Ligand_Instance>  (482) 
nan

>  <PDB_ID>  (482) 
nan

>  <Standardized_SMILES>  (482) 
CCC1CNC(C(=O)O)c2[nH]c3ccc(OC)cc3c21

>  <Name>  (482) 
nan

>  <Pocket>  (482) 
nan

>  <ATP_Site>  (482) 
nan

>  <Peripheral>  (482) 
nan

>  <Num_H_Atoms_ProtBoundConf>  (482) 
nan

>  <Num_Resolved_Atoms>  (482) 
nan

>  <Num_Not_Resolved_Atoms>  (482) 
nan

$$$$
CHEMBL248331
     RDKit          3D

  0  0  0  0  0  0  0  0  0  0999 V3000
M  V30 BEGIN CTAB
M  V30 COUNTS 50 53 0 0 0
M  V30 BEGIN ATOM
M  V30 1 C 5.206980 -2.350606 4.564392 0
M  V30 2 C 6.146502 -1.576593 3.650856 0
M  V30 3 O 5.348015 -0.911748 2.697955 0
M  V30 4 C 5.822957 -0.103283 1.690919 0
M  V30 5 O 7.045979 0.087645 1.569619 0
M  V30 6 C 4.884300 0.542400 0.748392 0
M  V30 7 C 5.398882 1.348087 -0.250740 0
M  V30 8 C 4.485974 1.931139 -1.108887 0
M  V30 9 C 3.125500 1.728803 -0.987395 0
M  V30 10 C 2.617833 0.912028 0.026972 0
M  V30 11 N 1.212674 0.719113 0.131242 0
M  V30 12 C 0.268308 1.476940 0.866770 0
M  V30 13 O 0.590230 2.471630 1.555599 0
M  V30 14 C -1.145840 1.116336 0.846893 0
M  V30 15 C -2.026462 1.905805 1.595471 0
M  V30 16 C -3.400386 1.644487 1.643009 0
M  V30 17 C -3.923339 0.580866 0.937598 0
M  V30 18 N -5.161236 0.058136 0.764823 0
M  V30 19 C -5.108121 -1.022834 -0.055797 0
M  V30 20 C -3.787874 -1.198459 -0.421702 0
M  V30 21 C -3.057320 -0.199472 0.198451 0
M  V30 22 C -1.700221 0.073202 0.162421 0
M  V30 23 C -3.339759 -2.293921 -1.323376 0
M  V30 24 C -2.716303 -3.451031 -0.599950 0
M  V30 25 C -4.468473 -2.814742 -2.164146 0
M  V30 26 N -5.704091 -2.993305 -1.428823 0
M  V30 27 C -6.127518 -1.942879 -0.565465 0
M  V30 28 O -7.334264 -1.800713 -0.244768 0
M  V30 29 C 3.523260 0.321862 0.893627 0
M  V30 30 H 5.028842 -3.383685 4.151667 0
M  V30 31 H 4.225596 -1.858926 4.673666 0
M  V30 32 H 5.638674 -2.471818 5.590758 0
M  V30 33 H 6.853656 -2.256694 3.129755 0
M  V30 34 H 6.712103 -0.829056 4.218278 0
M  V30 35 H 6.454108 1.539148 -0.389569 0
M  V30 36 H 4.863597 2.573125 -1.908392 0
M  V30 37 H 2.429944 2.209375 -1.688695 0
M  V30 38 H 0.957688 -0.112118 -0.446846 0
M  V30 39 H -1.723059 2.758514 2.181553 0
M  V30 40 H -4.073057 2.254690 2.220197 0
M  V30 41 H -6.027468 0.456529 1.217405 0
M  V30 42 H -1.033809 -0.547129 -0.421266 0
M  V30 43 H -2.593111 -1.859392 -2.048309 0
M  V30 44 H -3.360643 -4.352513 -0.536729 0
M  V30 45 H -2.453993 -3.219871 0.455510 0
M  V30 46 H -1.789893 -3.762973 -1.139853 0
M  V30 47 H -4.612172 -2.102033 -3.025476 0
M  V30 48 H -4.121857 -3.755657 -2.633183 0
M  V30 49 H -6.291976 -3.864706 -1.511469 0
M  V30 50 H 3.142163 -0.315140 1.686303 0
M  V30 END ATOM
M  V30 BEGIN BOND
M  V30 1 1 1 2
M  V30 2 1 2 3
M  V30 3 1 3 4
M  V30 4 2 4 5
M  V30 5 1 4 6
M  V30 6 2 6 7
M  V30 7 1 7 8
M  V30 8 2 8 9
M  V30 9 1 9 10
M  V30 10 1 10 11
M  V30 11 1 11 12
M  V30 12 2 12 13
M  V30 13 1 12 14
M  V30 14 2 14 15
M  V30 15 1 15 16
M  V30 16 2 16 17
M  V30 17 1 17 18
M  V30 18 1 18 19
M  V30 19 2 19 20
M  V30 20 1 20 21
M  V30 21 2 21 22
M  V30 22 1 20 23
M  V30 23 1 23 24
M  V30 24 1 23 25
M  V30 25 1 25 26
M  V30 26 1 26 27
M  V30 27 2 27 28
M  V30 28 2 10 29
M  V30 29 1 29 6
M  V30 30 1 22 14
M  V30 31 1 21 17
M  V30 32 1 27 19
M  V30 33 1 1 30
M  V30 34 1 1 31
M  V30 35 1 1 32
M  V30 36 1 2 33
M  V30 37 1 2 34
M  V30 38 1 7 35
M  V30 39 1 8 36
M  V30 40 1 9 37
M  V30 41 1 11 38
M  V30 42 1 15 39
M  V30 43 1 16 40
M  V30 44 1 18 41
M  V30 45 1 22 42
M  V30 46 1 23 43
M  V30 47 1 24 44
M  V30 48 1 24 45
M  V30 49 1 24 46
M  V30 50 1 25 47
M  V30 51 1 25 48
M  V30 52 1 26 49
M  V30 53 1 29 50
M  V30 END BOND
M  V30 END CTAB
M  END
>  <Dataset>  (483) 
ChEMBL_Kinases

>  <Ligand_Instance>  (483) 
nan

>  <PDB_ID>  (483) 
nan

>  <Standardized_SMILES>  (483) 
CCOC(=O)c1cccc(NC(=O)c2ccc3[nH]c4c(c3c2)C(C)CNC4=O)c1

>  <Name>  (483) 
nan

>  <Pocket>  (483) 
nan

>  <ATP_Site>  (483) 
nan

>  <Peripheral>  (483) 
nan

>  <Num_H_Atoms_ProtBoundConf>  (483) 
nan

>  <Num_Resolved_Atoms>  (483) 
nan

>  <Num_Not_Resolved_Atoms>  (483) 
nan

$$$$
CHEMBL248333
     RDKit          3D

  0  0  0  0  0  0  0  0  0  0999 V3000
M  V30 BEGIN CTAB
M  V30 COUNTS 48 51 0 0 0
M  V30 BEGIN ATOM
M  V30 1 C 5.936413 -3.633552 4.974473 0
M  V30 2 C 5.590057 -2.357296 4.273194 0
M  V30 3 O 5.646094 -1.142699 4.596259 0
M  V30 4 N 5.094201 -2.605467 2.963108 0
M  V30 5 C 4.628485 -1.798268 1.886055 0
M  V30 6 C 5.613525 -1.399465 0.985746 0
M  V30 7 C 5.312228 -0.608530 -0.116584 0
M  V30 8 C 4.004278 -0.209426 -0.322577 0
M  V30 9 C 3.026872 -0.601459 0.565203 0
M  V30 10 N 1.641483 -0.270863 0.486042 0
M  V30 11 C 1.053923 0.869836 1.074116 0
M  V30 12 O 1.791342 1.660315 1.716735 0
M  V30 13 C -0.368342 1.181126 0.975406 0
M  V30 14 C -0.794837 2.344740 1.611080 0
M  V30 15 C -2.154755 2.669254 1.533417 0
M  V30 16 C -3.052654 1.859888 0.845858 0
M  V30 17 N -4.389372 1.943579 0.623272 0
M  V30 18 C -4.773973 0.875166 -0.119857 0
M  V30 19 C -3.695779 0.072342 -0.397393 0
M  V30 20 C -2.615124 0.706225 0.218633 0
M  V30 21 C -1.258435 0.388745 0.300006 0
M  V30 22 C -3.815246 -1.156411 -1.185768 0
M  V30 23 C -3.516516 -0.934272 -2.652677 0
M  V30 24 C -5.210023 -1.733301 -1.092089 0
M  V30 25 N -6.209835 -0.715723 -1.403680 0
M  V30 26 C -6.102646 0.487338 -0.633862 0
M  V30 27 O -7.095721 1.222317 -0.381011 0
M  V30 28 C 3.310183 -1.386734 1.664442 0
M  V30 29 H 6.516121 -3.350152 5.870167 0
M  V30 30 H 6.543148 -4.267479 4.291741 0
M  V30 31 H 5.021623 -4.155221 5.324231 0
M  V30 32 H 4.966889 -3.545971 2.497421 0
M  V30 33 H 6.669417 -1.685760 1.097866 0
M  V30 34 H 6.050633 -0.286382 -0.826502 0
M  V30 35 H 3.671186 0.406617 -1.151341 0
M  V30 36 H 1.058934 -0.942552 -0.050967 0
M  V30 37 H -0.183096 3.041553 2.169900 0
M  V30 38 H -2.519180 3.582544 2.026247 0
M  V30 39 H -4.991924 2.722180 0.983465 0
M  V30 40 H -0.929985 -0.511498 -0.192104 0
M  V30 41 H -3.129448 -1.966551 -0.832669 0
M  V30 42 H -4.013047 0.022857 -2.923345 0
M  V30 43 H -3.982226 -1.771554 -3.250314 0
M  V30 44 H -2.446694 -0.973305 -2.869660 0
M  V30 45 H -5.342959 -2.538029 -1.844407 0
M  V30 46 H -5.438661 -2.176670 -0.106229 0
M  V30 47 H -6.974083 -0.766867 -2.107097 0
M  V30 48 H 2.601550 -1.732376 2.400777 0
M  V30 END ATOM
M  V30 BEGIN BOND
M  V30 1 1 1 2
M  V30 2 2 2 3
M  V30 3 1 2 4
M  V30 4 1 4 5
M  V30 5 2 5 6
M  V30 6 1 6 7
M  V30 7 2 7 8
M  V30 8 1 8 9
M  V30 9 1 9 10
M  V30 10 1 10 11
M  V30 11 2 11 12
M  V30 12 1 11 13
M  V30 13 2 13 14
M  V30 14 1 14 15
M  V30 15 2 15 16
M  V30 16 1 16 17
M  V30 17 1 17 18
M  V30 18 2 18 19
M  V30 19 1 19 20
M  V30 20 2 20 21
M  V30 21 1 19 22
M  V30 22 1 22 23
M  V30 23 1 22 24
M  V30 24 1 24 25
M  V30 25 1 25 26
M  V30 26 2 26 27
M  V30 27 2 9 28
M  V30 28 1 28 5
M  V30 29 1 21 13
M  V30 30 1 20 16
M  V30 31 1 26 18
M  V30 32 1 1 29
M  V30 33 1 1 30
M  V30 34 1 1 31
M  V30 35 1 4 32
M  V30 36 1 6 33
M  V30 37 1 7 34
M  V30 38 1 8 35
M  V30 39 1 10 36
M  V30 40 1 14 37
M  V30 41 1 15 38
M  V30 42 1 17 39
M  V30 43 1 21 40
M  V30 44 1 22 41
M  V30 45 1 23 42
M  V30 46 1 23 43
M  V30 47 1 23 44
M  V30 48 1 24 45
M  V30 49 1 24 46
M  V30 50 1 25 47
M  V30 51 1 28 48
M  V30 END BOND
M  V30 END CTAB
M  END
>  <Dataset>  (484) 
ChEMBL_Kinases

>  <Ligand_Instance>  (484) 
nan

>  <PDB_ID>  (484) 
nan

>  <Standardized_SMILES>  (484) 
CC(=O)Nc1cccc(NC(=O)c2ccc3[nH]c4c(c3c2)C(C)CNC4=O)c1

>  <Name>  (484) 
nan

>  <Pocket>  (484) 
nan

>  <ATP_Site>  (484) 
nan

>  <Peripheral>  (484) 
nan

>  <Num_H_Atoms_ProtBoundConf>  (484) 
nan

>  <Num_Resolved_Atoms>  (484) 
nan

>  <Num_Not_Resolved_Atoms>  (484) 
nan

$$$$
CHEMBL247510
     RDKit          3D

  0  0  0  0  0  0  0  0  0  0999 V3000
M  V30 BEGIN CTAB
M  V30 COUNTS 37 40 0 0 0
M  V30 BEGIN ATOM
M  V30 1 C -1.388210 -2.686270 2.902684 0
M  V30 2 C -0.256982 -3.066755 1.956360 0
M  V30 3 C -0.167063 -4.582886 1.971439 0
M  V30 4 N -1.450106 -5.137429 1.519850 0
M  V30 5 C -1.806272 -4.730953 0.181369 0
M  V30 6 O -2.479763 -5.429440 -0.619705 0
M  V30 7 C -1.352589 -3.403305 -0.289677 0
M  V30 8 N -1.523426 -2.759159 -1.461273 0
M  V30 9 C -0.898072 -1.567324 -1.358019 0
M  V30 10 C -0.740036 -0.504998 -2.229364 0
M  V30 11 C -0.038053 0.643982 -1.890738 0
M  V30 12 C 0.531153 0.745036 -0.636814 0
M  V30 13 C 1.269233 1.953509 -0.281302 0
M  V30 14 O 1.356655 2.856681 -1.135629 0
M  V30 15 N 1.873938 2.128315 0.971573 0
M  V30 16 C 2.547559 3.425403 1.067029 0
M  V30 17 N 3.701408 3.769633 0.798038 0
M  V30 18 C 4.080976 5.042819 0.976739 0
M  V30 19 C 3.076465 5.991349 1.498440 0
M  V30 20 S 1.620457 4.820688 1.668273 0
M  V30 21 C 0.367352 -0.320735 0.224686 0
M  V30 22 C -0.328464 -1.469485 -0.099338 0
M  V30 23 C -0.613754 -2.636611 0.588595 0
M  V30 24 H -1.720617 -1.636973 2.734934 0
M  V30 25 H -2.299731 -3.302936 2.708884 0
M  V30 26 H -1.107359 -2.873989 3.955540 0
M  V30 27 H 0.677617 -2.648238 2.319507 0
M  V30 28 H -0.008744 -4.878188 3.030052 0
M  V30 29 H 0.673847 -4.924437 1.308571 0
M  V30 30 H -2.165699 -5.774805 1.978208 0
M  V30 31 H -2.037664 -3.120949 -2.275173 0
M  V30 32 H -1.202519 -0.629626 -3.198032 0
M  V30 33 H 0.042807 1.431171 -2.623843 0
M  V30 34 H 1.826698 1.410726 1.703977 0
M  V30 35 H 5.133958 5.165261 0.687107 0
M  V30 36 H 3.605794 7.024942 1.576747 0
M  V30 37 H 0.796856 -0.280450 1.213275 0
M  V30 END ATOM
M  V30 BEGIN BOND
M  V30 1 1 1 2
M  V30 2 1 2 3
M  V30 3 1 3 4
M  V30 4 1 4 5
M  V30 5 2 5 6
M  V30 6 1 5 7
M  V30 7 1 7 8
M  V30 8 1 8 9
M  V30 9 2 9 10
M  V30 10 1 10 11
M  V30 11 2 11 12
M  V30 12 1 12 13
M  V30 13 2 13 14
M  V30 14 1 13 15
M  V30 15 1 15 16
M  V30 16 2 16 17
M  V30 17 1 17 18
M  V30 18 2 18 19
M  V30 19 1 19 20
M  V30 20 1 12 21
M  V30 21 2 21 22
M  V30 22 1 22 23
M  V30 23 1 23 2
M  V30 24 2 23 7
M  V30 25 1 22 9
M  V30 26 1 20 16
M  V30 27 1 1 24
M  V30 28 1 1 25
M  V30 29 1 1 26
M  V30 30 1 2 27
M  V30 31 1 3 28
M  V30 32 1 3 29
M  V30 33 1 4 30
M  V30 34 1 8 31
M  V30 35 1 10 32
M  V30 36 1 11 33
M  V30 37 1 15 34
M  V30 38 1 18 35
M  V30 39 1 19 36
M  V30 40 1 21 37
M  V30 END BOND
M  V30 END CTAB
M  END
>  <Dataset>  (485) 
ChEMBL_Kinases

>  <Ligand_Instance>  (485) 
nan

>  <PDB_ID>  (485) 
nan

>  <Standardized_SMILES>  (485) 
CC1CNC(=O)c2[nH]c3ccc(C(=O)Nc4nccs4)cc3c21

>  <Name>  (485) 
nan

>  <Pocket>  (485) 
nan

>  <ATP_Site>  (485) 
nan

>  <Peripheral>  (485) 
nan

>  <Num_H_Atoms_ProtBoundConf>  (485) 
nan

>  <Num_Resolved_Atoms>  (485) 
nan

>  <Num_Not_Resolved_Atoms>  (485) 
nan

$$$$
CHEMBL249516
     RDKit          3D

  0  0  0  0  0  0  0  0  0  0999 V3000
M  V30 BEGIN CTAB
M  V30 COUNTS 34 37 0 0 0
M  V30 BEGIN ATOM
M  V30 1 C 0.120271 -2.553619 5.309654 0
M  V30 2 O -1.004483 -1.842509 4.827775 0
M  V30 3 C -0.992998 -1.306035 3.529390 0
M  V30 4 N 0.071798 -1.469389 2.763616 0
M  V30 5 C 0.144058 -0.973408 1.496249 0
M  V30 6 C 1.165460 -1.058140 0.589275 0
M  V30 7 C 1.011811 -0.493843 -0.596230 0
M  V30 8 C 1.925940 -0.425381 -1.753713 0
M  V30 9 C 3.160560 -1.011688 -1.690194 0
M  V30 10 C 4.047939 -0.973250 -2.746549 0
M  V30 11 C 3.663448 -0.317835 -3.899455 0
M  V30 12 C 2.410275 0.270437 -3.947527 0
M  V30 13 C 1.518456 0.235380 -2.894441 0
M  V30 14 S -0.602782 0.227545 -0.570510 0
M  V30 15 C -0.988003 -0.307691 1.130992 0
M  V30 16 N -2.096635 -0.120892 1.888204 0
M  V30 17 C -3.228643 0.520397 1.581430 0
M  V30 18 C -3.566748 1.206811 0.303572 0
M  V30 19 C -4.027375 0.413073 2.706826 0
M  V30 20 N -3.326584 -0.286946 3.623058 0
M  V30 21 C -2.123265 -0.627397 3.131219 0
M  V30 22 H -0.167005 -3.197475 6.165215 0
M  V30 23 H 0.502478 -3.219440 4.489289 0
M  V30 24 H 0.978655 -1.889885 5.550418 0
M  V30 25 H 2.108873 -1.573210 0.798508 0
M  V30 26 H 3.457702 -1.523101 -0.787483 0
M  V30 27 H 5.023524 -1.438276 -2.692235 0
M  V30 28 H 4.307524 -0.244533 -4.774989 0
M  V30 29 H 2.075084 0.794784 -4.839903 0
M  V30 30 H 0.540532 0.715884 -2.983296 0
M  V30 31 H -4.674906 1.393151 0.278515 0
M  V30 32 H -3.062534 2.178574 0.194906 0
M  V30 33 H -3.338033 0.538776 -0.561463 0
M  V30 34 H -5.036000 0.815648 2.838120 0
M  V30 END ATOM
M  V30 BEGIN BOND
M  V30 1 1 1 2
M  V30 2 1 2 3
M  V30 3 2 3 4
M  V30 4 1 4 5
M  V30 5 1 5 6
M  V30 6 2 6 7
M  V30 7 1 7 8
M  V30 8 2 8 9
M  V30 9 1 9 10
M  V30 10 2 10 11
M  V30 11 1 11 12
M  V30 12 2 12 13
M  V30 13 1 7 14
M  V30 14 1 14 15
M  V30 15 1 15 16
M  V30 16 1 16 17
M  V30 17 1 17 18
M  V30 18 2 17 19
M  V30 19 1 19 20
M  V30 20 2 20 21
M  V30 21 1 21 3
M  V30 22 2 15 5
M  V30 23 1 21 16
M  V30 24 1 13 8
M  V30 25 1 1 22
M  V30 26 1 1 23
M  V30 27 1 1 24
M  V30 28 1 6 25
M  V30 29 1 9 26
M  V30 30 1 10 27
M  V30 31 1 11 28
M  V30 32 1 12 29
M  V30 33 1 13 30
M  V30 34 1 18 31
M  V30 35 1 18 32
M  V30 36 1 18 33
M  V30 37 1 19 34
M  V30 END BOND
M  V30 END CTAB
M  END
>  <Dataset>  (486) 
ChEMBL_Kinases

>  <Ligand_Instance>  (486) 
nan

>  <PDB_ID>  (486) 
nan

>  <Standardized_SMILES>  (486) 
COc1nc2cc(-c3ccccc3)sc2n2c(C)cnc12

>  <Name>  (486) 
nan

>  <Pocket>  (486) 
nan

>  <ATP_Site>  (486) 
nan

>  <Peripheral>  (486) 
nan

>  <Num_H_Atoms_ProtBoundConf>  (486) 
nan

>  <Num_Resolved_Atoms>  (486) 
nan

>  <Num_Not_Resolved_Atoms>  (486) 
nan

$$$$
CHEMBL249515
     RDKit          3D

  0  0  0  0  0  0  0  0  0  0999 V3000
M  V30 BEGIN CTAB
M  V30 COUNTS 47 50 0 0 0
M  V30 BEGIN ATOM
M  V30 1 C 3.756203 -3.477125 2.608247 0
M  V30 2 C 3.792494 -3.031819 1.195556 0
M  V30 3 C 4.836285 -3.299404 0.305247 0
M  V30 4 N 4.512155 -2.731112 -0.892980 0
M  V30 5 C 3.317438 -2.125515 -0.783681 0
M  V30 6 C 2.463024 -1.397895 -1.600631 0
M  V30 7 N 2.865434 -1.166511 -2.964311 0
M  V30 8 C 2.036519 -0.422941 -3.869406 0
M  V30 9 C 1.762365 0.984840 -3.452500 0
M  V30 10 N 2.971528 1.773642 -3.318043 0
M  V30 11 N 1.301739 -0.908306 -1.193269 0
M  V30 12 C 0.866445 -1.089671 0.068418 0
M  V30 13 C -0.305240 -0.641205 0.617791 0
M  V30 14 C -0.563699 -0.923358 1.897242 0
M  V30 15 C -1.674887 -0.624660 2.803137 0
M  V30 16 C -1.627542 -1.078141 4.103963 0
M  V30 17 C -2.698418 -0.774722 4.929802 0
M  V30 18 C -3.745592 -0.033431 4.386284 0
M  V30 19 C -3.778248 0.416883 3.071107 0
M  V30 20 C -4.949797 1.207460 2.580883 0
M  V30 21 C -4.747171 2.687840 2.789566 0
M  V30 22 O -4.579417 2.967324 4.124563 0
M  V30 23 C -2.704682 0.105382 2.265430 0
M  V30 24 S 0.847308 -1.870669 2.473424 0
M  V30 25 C 1.710849 -1.796189 0.837568 0
M  V30 26 N 2.908231 -2.321423 0.479631 0
M  V30 27 H 4.231724 -4.486021 2.689740 0
M  V30 28 H 4.290338 -2.729401 3.257938 0
M  V30 29 H 2.701811 -3.569070 2.914422 0
M  V30 30 H 5.725758 -3.850587 0.528775 0
M  V30 31 H 3.770228 -1.542910 -3.300683 0
M  V30 32 H 2.434288 -0.490666 -4.901357 0
M  V30 33 H 1.049300 -0.947993 -3.914251 0
M  V30 34 H 1.112685 1.008122 -2.580477 0
M  V30 35 H 1.189309 1.459502 -4.279974 0
M  V30 36 H 3.714690 1.358050 -3.951977 0
M  V30 37 H 3.334017 1.618922 -2.331277 0
M  V30 38 H -1.068912 -0.065043 0.113094 0
M  V30 39 H -0.805075 -1.654612 4.513388 0
M  V30 40 H -2.744562 -1.089603 5.962045 0
M  V30 41 H -4.584599 0.195936 5.058719 0
M  V30 42 H -5.846190 0.907964 3.147026 0
M  V30 43 H -5.059899 1.009893 1.503707 0
M  V30 44 H -3.940523 3.106341 2.184958 0
M  V30 45 H -5.680072 3.175971 2.437791 0
M  V30 46 H -5.084717 3.760376 4.363058 0
M  V30 47 H -2.722836 0.451282 1.243894 0
M  V30 END ATOM
M  V30 BEGIN BOND
M  V30 1 1 1 2
M  V30 2 2 2 3
M  V30 3 1 3 4
M  V30 4 2 4 5
M  V30 5 1 5 6
M  V30 6 1 6 7
M  V30 7 1 7 8
M  V30 8 1 8 9
M  V30 9 1 9 10
M  V30 10 2 6 11
M  V30 11 1 11 12
M  V30 12 1 12 13
M  V30 13 2 13 14
M  V30 14 1 14 15
M  V30 15 2 15 16
M  V30 16 1 16 17
M  V30 17 2 17 18
M  V30 18 1 18 19
M  V30 19 1 19 20
M  V30 20 1 20 21
M  V30 21 1 21 22
M  V30 22 2 19 23
M  V30 23 1 14 24
M  V30 24 1 24 25
M  V30 25 1 25 26
M  V30 26 1 26 2
M  V30 27 1 26 5
M  V30 28 2 25 12
M  V30 29 1 23 15
M  V30 30 1 1 27
M  V30 31 1 1 28
M  V30 32 1 1 29
M  V30 33 1 3 30
M  V30 34 1 7 31
M  V30 35 1 8 32
M  V30 36 1 8 33
M  V30 37 1 9 34
M  V30 38 1 9 35
M  V30 39 1 10 36
M  V30 40 1 10 37
M  V30 41 1 13 38
M  V30 42 1 16 39
M  V30 43 1 17 40
M  V30 44 1 18 41
M  V30 45 1 20 42
M  V30 46 1 20 43
M  V30 47 1 21 44
M  V30 48 1 21 45
M  V30 49 1 22 46
M  V30 50 1 23 47
M  V30 END BOND
M  V30 END CTAB
M  END
>  <Dataset>  (487) 
ChEMBL_Kinases

>  <Ligand_Instance>  (487) 
nan

>  <PDB_ID>  (487) 
nan

>  <Standardized_SMILES>  (487) 
Cc1cnc2c(NCCN)nc3cc(-c4cccc(CCO)c4)sc3n12

>  <Name>  (487) 
nan

>  <Pocket>  (487) 
nan

>  <ATP_Site>  (487) 
nan

>  <Peripheral>  (487) 
nan

>  <Num_H_Atoms_ProtBoundConf>  (487) 
nan

>  <Num_Resolved_Atoms>  (487) 
nan

>  <Num_Not_Resolved_Atoms>  (487) 
nan

$$$$
CHEMBL249508
     RDKit          3D

  0  0  0  0  0  0  0  0  0  0999 V3000
M  V30 BEGIN CTAB
M  V30 COUNTS 44 47 0 0 0
M  V30 BEGIN ATOM
M  V30 1 C 2.657360 -3.381822 3.326757 0
M  V30 2 C 3.013364 -3.252112 1.906647 0
M  V30 3 C 4.037933 -3.888938 1.198137 0
M  V30 4 N 4.028802 -3.498290 -0.083154 0
M  V30 5 C 3.030059 -2.620186 -0.253195 0
M  V30 6 C 2.510504 -1.878910 -1.293144 0
M  V30 7 N 3.109057 -1.987621 -2.593452 0
M  V30 8 C 2.625728 -1.250436 -3.717073 0
M  V30 9 C 2.686306 0.252126 -3.548739 0
M  V30 10 N 4.022400 0.735114 -3.329522 0
M  V30 11 N 1.462878 -1.050006 -1.163193 0
M  V30 12 C 0.835702 -0.883140 0.016233 0
M  V30 13 C -0.231128 -0.100212 0.353153 0
M  V30 14 C -0.688728 -0.092396 1.594744 0
M  V30 15 C -1.803259 0.641361 2.228270 0
M  V30 16 C -2.022428 0.420908 3.572717 0
M  V30 17 C -3.081988 1.126482 4.148270 0
M  V30 18 C -3.825104 1.982717 3.343300 0
M  V30 19 C -4.964255 2.745097 3.949380 0
M  V30 20 O -6.148633 2.003056 3.849182 0
M  V30 21 C -3.578304 2.180777 1.997194 0
M  V30 22 C -2.529865 1.482659 1.427516 0
M  V30 23 S 0.329905 -1.205827 2.496762 0
M  V30 24 C 1.394654 -1.650509 1.034303 0
M  V30 25 N 2.453199 -2.502103 0.950002 0
M  V30 26 H 1.583145 -3.233621 3.505182 0
M  V30 27 H 2.882041 -4.433264 3.661106 0
M  V30 28 H 3.305704 -2.752144 3.987955 0
M  V30 29 H 4.752090 -4.606490 1.619614 0
M  V30 30 H 3.923103 -2.627483 -2.714698 0
M  V30 31 H 3.146551 -1.546790 -4.633080 0
M  V30 32 H 1.551435 -1.488366 -3.888546 0
M  V30 33 H 2.306006 0.693374 -4.515553 0
M  V30 34 H 1.981210 0.599150 -2.788071 0
M  V30 35 H 4.068609 1.596568 -2.745903 0
M  V30 36 H 4.576654 0.829295 -4.201503 0
M  V30 37 H -0.735022 0.532091 -0.365691 0
M  V30 38 H -1.446457 -0.239659 4.186320 0
M  V30 39 H -3.307867 1.002104 5.189991 0
M  V30 40 H -5.127137 3.718908 3.430103 0
M  V30 41 H -4.788227 2.919729 5.026024 0
M  V30 42 H -6.113354 1.569423 2.937970 0
M  V30 43 H -4.177114 2.855254 1.400319 0
M  V30 44 H -2.307646 1.613313 0.374952 0
M  V30 END ATOM
M  V30 BEGIN BOND
M  V30 1 1 1 2
M  V30 2 2 2 3
M  V30 3 1 3 4
M  V30 4 2 4 5
M  V30 5 1 5 6
M  V30 6 1 6 7
M  V30 7 1 7 8
M  V30 8 1 8 9
M  V30 9 1 9 10
M  V30 10 2 6 11
M  V30 11 1 11 12
M  V30 12 1 12 13
M  V30 13 2 13 14
M  V30 14 1 14 15
M  V30 15 2 15 16
M  V30 16 1 16 17
M  V30 17 2 17 18
M  V30 18 1 18 19
M  V30 19 1 19 20
M  V30 20 1 18 21
M  V30 21 2 21 22
M  V30 22 1 14 23
M  V30 23 1 23 24
M  V30 24 1 24 25
M  V30 25 1 25 2
M  V30 26 1 25 5
M  V30 27 2 24 12
M  V30 28 1 22 15
M  V30 29 1 1 26
M  V30 30 1 1 27
M  V30 31 1 1 28
M  V30 32 1 3 29
M  V30 33 1 7 30
M  V30 34 1 8 31
M  V30 35 1 8 32
M  V30 36 1 9 33
M  V30 37 1 9 34
M  V30 38 1 10 35
M  V30 39 1 10 36
M  V30 40 1 13 37
M  V30 41 1 16 38
M  V30 42 1 17 39
M  V30 43 1 19 40
M  V30 44 1 19 41
M  V30 45 1 20 42
M  V30 46 1 21 43
M  V30 47 1 22 44
M  V30 END BOND
M  V30 END CTAB
M  END
>  <Dataset>  (488) 
ChEMBL_Kinases

>  <Ligand_Instance>  (488) 
nan

>  <PDB_ID>  (488) 
nan

>  <Standardized_SMILES>  (488) 
Cc1cnc2c(NCCN)nc3cc(-c4ccc(CO)cc4)sc3n12

>  <Name>  (488) 
nan

>  <Pocket>  (488) 
nan

>  <ATP_Site>  (488) 
nan

>  <Peripheral>  (488) 
nan

>  <Num_H_Atoms_ProtBoundConf>  (488) 
nan

>  <Num_Resolved_Atoms>  (488) 
nan

>  <Num_Not_Resolved_Atoms>  (488) 
nan

$$$$
CHEMBL249482
     RDKit          3D

  0  0  0  0  0  0  0  0  0  0999 V3000
M  V30 BEGIN CTAB
M  V30 COUNTS 48 51 0 0 0
M  V30 BEGIN ATOM
M  V30 1 C -5.315095 -4.568057 3.267453 0
M  V30 2 N -4.326314 -4.069618 2.418937 0
M  V30 3 C -3.338888 -3.571568 1.571762 0
M  V30 4 N -2.710179 -2.398459 1.574974 0
M  V30 5 C -1.766794 -2.037412 0.714847 0
M  V30 6 C -1.137170 -0.842781 0.735482 0
M  V30 7 C -0.233894 -0.702801 -0.210095 0
M  V30 8 C 0.662439 0.440921 -0.520917 0
M  V30 9 C 1.501699 0.282110 -1.569275 0
M  V30 10 C 2.309495 1.399747 -1.797184 0
M  V30 11 C 2.294843 2.566850 -1.063141 0
M  V30 12 C 1.416076 2.667393 -0.005922 0
M  V30 13 C 1.288719 3.853639 0.864711 0
M  V30 14 C 2.258713 3.707063 2.043163 0
M  V30 15 N 3.573539 3.627953 1.487843 0
M  V30 16 S 4.811557 3.458732 2.656888 0
M  V30 17 N 4.917264 4.761118 3.748534 0
M  V30 18 O 6.126869 3.406651 1.892651 0
M  V30 19 O 4.646159 2.166660 3.386291 0
M  V30 20 C 0.591003 1.574260 0.256805 0
M  V30 21 S -0.210665 -2.178010 -1.150862 0
M  V30 22 C -1.515233 -3.040672 -0.194140 0
M  V30 23 N -2.091454 -4.249536 -0.279976 0
M  V30 24 C -1.838036 -5.215825 -1.170091 0
M  V30 25 C -0.871392 -5.244261 -2.297617 0
M  V30 26 C -2.701328 -6.214452 -0.797641 0
M  V30 27 N -3.411703 -5.809875 0.268806 0
M  V30 28 C -3.042136 -4.565034 0.616484 0
M  V30 29 H -5.033780 -4.689979 4.338054 0
M  V30 30 H -6.323628 -4.055156 3.255282 0
M  V30 31 H -5.550836 -5.630861 2.860945 0
M  V30 32 H -4.410565 -3.190338 3.033650 0
M  V30 33 H -1.280993 -0.016850 1.411691 0
M  V30 34 H 1.597010 -0.568169 -2.198991 0
M  V30 35 H 3.017258 1.341442 -2.633730 0
M  V30 36 H 2.938180 3.388581 -1.288187 0
M  V30 37 H 0.272104 3.852902 1.306693 0
M  V30 38 H 1.470142 4.810344 0.331222 0
M  V30 39 H 1.972771 2.869922 2.672011 0
M  V30 40 H 2.229095 4.618861 2.674946 0
M  V30 41 H 3.776916 4.312973 0.756344 0
M  V30 42 H 4.885125 4.395400 4.746998 0
M  V30 43 H 4.132821 5.446655 3.708951 0
M  V30 44 H -0.116918 1.622150 1.089562 0
M  V30 45 H -1.217309 -5.972731 -3.041368 0
M  V30 46 H -0.816565 -4.251125 -2.834203 0
M  V30 47 H 0.162077 -5.464937 -1.908506 0
M  V30 48 H -2.846973 -7.191034 -1.235407 0
M  V30 END ATOM
M  V30 BEGIN BOND
M  V30 1 1 1 2
M  V30 2 1 2 3
M  V30 3 2 3 4
M  V30 4 1 4 5
M  V30 5 1 5 6
M  V30 6 2 6 7
M  V30 7 1 7 8
M  V30 8 2 8 9
M  V30 9 1 9 10
M  V30 10 2 10 11
M  V30 11 1 11 12
M  V30 12 1 12 13
M  V30 13 1 13 14
M  V30 14 1 14 15
M  V30 15 1 15 16
M  V30 16 1 16 17
M  V30 17 2 16 18
M  V30 18 2 16 19
M  V30 19 2 12 20
M  V30 20 1 7 21
M  V30 21 1 21 22
M  V30 22 1 22 23
M  V30 23 1 23 24
M  V30 24 1 24 25
M  V30 25 2 24 26
M  V30 26 1 26 27
M  V30 27 2 27 28
M  V30 28 1 28 3
M  V30 29 2 22 5
M  V30 30 1 28 23
M  V30 31 1 20 8
M  V30 32 1 1 29
M  V30 33 1 1 30
M  V30 34 1 1 31
M  V30 35 1 2 32
M  V30 36 1 6 33
M  V30 37 1 9 34
M  V30 38 1 10 35
M  V30 39 1 11 36
M  V30 40 1 13 37
M  V30 41 1 13 38
M  V30 42 1 14 39
M  V30 43 1 14 40
M  V30 44 1 15 41
M  V30 45 1 17 42
M  V30 46 1 17 43
M  V30 47 1 20 44
M  V30 48 1 25 45
M  V30 49 1 25 46
M  V30 50 1 25 47
M  V30 51 1 26 48
M  V30 END BOND
M  V30 END CTAB
M  END
>  <Dataset>  (489) 
ChEMBL_Kinases

>  <Ligand_Instance>  (489) 
nan

>  <PDB_ID>  (489) 
nan

>  <Standardized_SMILES>  (489) 
CNc1nc2cc(-c3cccc(CCNS(N)(=O)=O)c3)sc2n2c(C)cnc12

>  <Name>  (489) 
nan

>  <Pocket>  (489) 
nan

>  <ATP_Site>  (489) 
nan

>  <Peripheral>  (489) 
nan

>  <Num_H_Atoms_ProtBoundConf>  (489) 
nan

>  <Num_Resolved_Atoms>  (489) 
nan

>  <Num_Not_Resolved_Atoms>  (489) 
nan

$$$$
CHEMBL249481
     RDKit          3D

  0  0  0  0  0  0  0  0  0  0999 V3000
M  V30 BEGIN CTAB
M  V30 COUNTS 47 50 0 0 0
M  V30 BEGIN ATOM
M  V30 1 C -3.335843 -2.507678 5.668559 0
M  V30 2 N -3.907063 -3.061602 4.456809 0
M  V30 3 C -3.419117 -2.731983 3.154648 0
M  V30 4 N -2.388716 -1.870921 3.091483 0
M  V30 5 C -1.859440 -1.499299 1.908442 0
M  V30 6 C -0.826413 -0.647143 1.664634 0
M  V30 7 C -0.427523 -0.388838 0.418760 0
M  V30 8 C 0.574736 0.414541 -0.198471 0
M  V30 9 C 0.725759 0.457538 -1.560654 0
M  V30 10 C 1.734727 1.273361 -2.067274 0
M  V30 11 C 2.535122 1.998495 -1.201691 0
M  V30 12 C 2.388284 1.959595 0.170099 0
M  V30 13 C 3.232972 2.726555 1.115540 0
M  V30 14 C 4.464457 1.971782 1.563005 0
M  V30 15 N 5.324861 1.617808 0.478983 0
M  V30 16 C 5.886118 2.630421 -0.334465 0
M  V30 17 N 6.733455 2.156087 -1.391656 0
M  V30 18 O 5.697022 3.861679 -0.194547 0
M  V30 19 C 1.375334 1.139421 0.660242 0
M  V30 20 S -1.543537 -1.389475 -0.620579 0
M  V30 21 C -2.481709 -2.088301 0.823156 0
M  V30 22 N -3.517453 -2.957003 0.835014 0
M  V30 23 C -4.165170 -3.561200 -0.149869 0
M  V30 24 C -3.909405 -3.436602 -1.616641 0
M  V30 25 C -5.144479 -4.345036 0.472245 0
M  V30 26 N -5.010586 -4.151079 1.800215 0
M  V30 27 C -4.005462 -3.292683 2.039231 0
M  V30 28 H -3.587207 -3.155490 6.523193 0
M  V30 29 H -2.242219 -2.402851 5.500128 0
M  V30 30 H -3.710389 -1.461344 5.796139 0
M  V30 31 H -4.704706 -3.726489 4.532984 0
M  V30 32 H -0.266201 -0.129873 2.430037 0
M  V30 33 H 0.104461 -0.105839 -2.240677 0
M  V30 34 H 1.875338 1.325137 -3.144608 0
M  V30 35 H 3.292300 2.608102 -1.628157 0
M  V30 36 H 3.515172 3.674802 0.614257 0
M  V30 37 H 2.614829 3.016725 1.980853 0
M  V30 38 H 4.128644 1.103355 2.158472 0
M  V30 39 H 4.976798 2.639425 2.292638 0
M  V30 40 H 5.512631 0.594853 0.323268 0
M  V30 41 H 6.733229 1.879335 -2.415952 0
M  V30 42 H 7.760561 1.919394 -1.421359 0
M  V30 43 H 1.259177 1.108681 1.745833 0
M  V30 44 H -3.596225 -2.371239 -1.776065 0
M  V30 45 H -4.840423 -3.639329 -2.172711 0
M  V30 46 H -3.097429 -4.116681 -1.945401 0
M  V30 47 H -5.869187 -4.983383 -0.016497 0
M  V30 END ATOM
M  V30 BEGIN BOND
M  V30 1 1 1 2
M  V30 2 1 2 3
M  V30 3 2 3 4
M  V30 4 1 4 5
M  V30 5 1 5 6
M  V30 6 2 6 7
M  V30 7 1 7 8
M  V30 8 2 8 9
M  V30 9 1 9 10
M  V30 10 2 10 11
M  V30 11 1 11 12
M  V30 12 1 12 13
M  V30 13 1 13 14
M  V30 14 1 14 15
M  V30 15 1 15 16
M  V30 16 1 16 17
M  V30 17 2 16 18
M  V30 18 2 12 19
M  V30 19 1 7 20
M  V30 20 1 20 21
M  V30 21 1 21 22
M  V30 22 1 22 23
M  V30 23 1 23 24
M  V30 24 2 23 25
M  V30 25 1 25 26
M  V30 26 2 26 27
M  V30 27 1 27 3
M  V30 28 2 21 5
M  V30 29 1 27 22
M  V30 30 1 19 8
M  V30 31 1 1 28
M  V30 32 1 1 29
M  V30 33 1 1 30
M  V30 34 1 2 31
M  V30 35 1 6 32
M  V30 36 1 9 33
M  V30 37 1 10 34
M  V30 38 1 11 35
M  V30 39 1 13 36
M  V30 40 1 13 37
M  V30 41 1 14 38
M  V30 42 1 14 39
M  V30 43 1 15 40
M  V30 44 1 17 41
M  V30 45 1 17 42
M  V30 46 1 19 43
M  V30 47 1 24 44
M  V30 48 1 24 45
M  V30 49 1 24 46
M  V30 50 1 25 47
M  V30 END BOND
M  V30 END CTAB
M  END
>  <Dataset>  (490) 
ChEMBL_Kinases

>  <Ligand_Instance>  (490) 
nan

>  <PDB_ID>  (490) 
nan

>  <Standardized_SMILES>  (490) 
CNc1nc2cc(-c3cccc(CCNC(N)=O)c3)sc2n2c(C)cnc12

>  <Name>  (490) 
nan

>  <Pocket>  (490) 
nan

>  <ATP_Site>  (490) 
nan

>  <Peripheral>  (490) 
nan

>  <Num_H_Atoms_ProtBoundConf>  (490) 
nan

>  <Num_Resolved_Atoms>  (490) 
nan

>  <Num_Not_Resolved_Atoms>  (490) 
nan

$$$$
CHEMBL249480
     RDKit          3D

  0  0  0  0  0  0  0  0  0  0999 V3000
M  V30 BEGIN CTAB
M  V30 COUNTS 48 51 0 0 0
M  V30 BEGIN ATOM
M  V30 1 C 0.995685 -5.524292 2.948787 0
M  V30 2 N -0.294727 -5.593243 2.291618 0
M  V30 3 C -0.841026 -4.528599 1.512111 0
M  V30 4 N -0.094392 -3.434243 1.409080 0
M  V30 5 C -0.489961 -2.358442 0.704907 0
M  V30 6 C 0.104062 -1.154470 0.470161 0
M  V30 7 C -0.517477 -0.235536 -0.282751 0
M  V30 8 C -0.103432 1.116109 -0.681279 0
M  V30 9 C -0.971324 1.837127 -1.475058 0
M  V30 10 C -0.528488 3.109812 -1.822058 0
M  V30 11 C 0.696328 3.567905 -1.378240 0
M  V30 12 C 1.535024 2.807795 -0.582125 0
M  V30 13 C 2.824828 3.396759 -0.163654 0
M  V30 14 C 2.736834 4.149276 1.131770 0
M  V30 15 N 2.311152 3.339679 2.246555 0
M  V30 16 C 3.112265 2.217588 2.595926 0
M  V30 17 C 2.604607 1.422419 3.767794 0
M  V30 18 O 4.156996 1.843267 2.044208 0
M  V30 19 C 1.120985 1.560454 -0.231375 0
M  V30 20 S -2.047191 -0.942926 -0.775018 0
M  V30 21 C -1.780283 -2.549224 0.103642 0
M  V30 22 N -2.535734 -3.651548 0.205622 0
M  V30 23 C -3.734760 -3.895302 -0.322618 0
M  V30 24 C -4.539845 -2.959794 -1.181019 0
M  V30 25 C -4.034051 -5.188142 0.110151 0
M  V30 26 N -3.005155 -5.624340 0.859213 0
M  V30 27 C -2.077137 -4.685814 0.924398 0
M  V30 28 H 1.530872 -6.496079 2.905644 0
M  V30 29 H 0.847857 -5.142766 3.979205 0
M  V30 30 H 1.611721 -4.744263 2.420599 0
M  V30 31 H -0.825250 -6.466684 2.408744 0
M  V30 32 H 1.074124 -0.910643 0.876164 0
M  V30 33 H -1.923376 1.471967 -1.815863 0
M  V30 34 H -1.177451 3.720692 -2.448497 0
M  V30 35 H 1.016363 4.571331 -1.667352 0
M  V30 36 H 3.591723 2.580105 -0.101440 0
M  V30 37 H 3.149494 4.108127 -0.938000 0
M  V30 38 H 2.098438 5.039973 0.984005 0
M  V30 39 H 3.764903 4.564663 1.313452 0
M  V30 40 H 1.438194 3.587185 2.767938 0
M  V30 41 H 1.489352 1.409853 3.765580 0
M  V30 42 H 3.021792 0.408615 3.787215 0
M  V30 43 H 2.912161 1.957803 4.683766 0
M  V30 44 H 1.738995 0.952213 0.377307 0
M  V30 45 H -5.573037 -3.344392 -1.289330 0
M  V30 46 H -4.642283 -1.965720 -0.656534 0
M  V30 47 H -4.047420 -2.814737 -2.139300 0
M  V30 48 H -4.956930 -5.696729 -0.149325 0
M  V30 END ATOM
M  V30 BEGIN BOND
M  V30 1 1 1 2
M  V30 2 1 2 3
M  V30 3 2 3 4
M  V30 4 1 4 5
M  V30 5 1 5 6
M  V30 6 2 6 7
M  V30 7 1 7 8
M  V30 8 2 8 9
M  V30 9 1 9 10
M  V30 10 2 10 11
M  V30 11 1 11 12
M  V30 12 1 12 13
M  V30 13 1 13 14
M  V30 14 1 14 15
M  V30 15 1 15 16
M  V30 16 1 16 17
M  V30 17 2 16 18
M  V30 18 2 12 19
M  V30 19 1 7 20
M  V30 20 1 20 21
M  V30 21 1 21 22
M  V30 22 1 22 23
M  V30 23 1 23 24
M  V30 24 2 23 25
M  V30 25 1 25 26
M  V30 26 2 26 27
M  V30 27 1 27 3
M  V30 28 2 21 5
M  V30 29 1 27 22
M  V30 30 1 19 8
M  V30 31 1 1 28
M  V30 32 1 1 29
M  V30 33 1 1 30
M  V30 34 1 2 31
M  V30 35 1 6 32
M  V30 36 1 9 33
M  V30 37 1 10 34
M  V30 38 1 11 35
M  V30 39 1 13 36
M  V30 40 1 13 37
M  V30 41 1 14 38
M  V30 42 1 14 39
M  V30 43 1 15 40
M  V30 44 1 17 41
M  V30 45 1 17 42
M  V30 46 1 17 43
M  V30 47 1 19 44
M  V30 48 1 24 45
M  V30 49 1 24 46
M  V30 50 1 24 47
M  V30 51 1 25 48
M  V30 END BOND
M  V30 END CTAB
M  END
>  <Dataset>  (491) 
ChEMBL_Kinases

>  <Ligand_Instance>  (491) 
nan

>  <PDB_ID>  (491) 
nan

>  <Standardized_SMILES>  (491) 
CNc1nc2cc(-c3cccc(CCNC(C)=O)c3)sc2n2c(C)cnc12

>  <Name>  (491) 
nan

>  <Pocket>  (491) 
nan

>  <ATP_Site>  (491) 
nan

>  <Peripheral>  (491) 
nan

>  <Num_H_Atoms_ProtBoundConf>  (491) 
nan

>  <Num_Resolved_Atoms>  (491) 
nan

>  <Num_Not_Resolved_Atoms>  (491) 
nan

$$$$
CHEMBL249443
     RDKit          3D

  0  0  0  0  0  0  0  0  0  0999 V3000
M  V30 BEGIN CTAB
M  V30 COUNTS 53 57 0 0 0
M  V30 BEGIN ATOM
M  V30 1 N 0.850973 -1.584127 5.679857 0
M  V30 2 C 1.898184 -0.918013 4.948490 0
M  V30 3 C 1.607431 -1.110032 3.461331 0
M  V30 4 C 0.276245 -0.522204 3.106468 0
M  V30 5 C -0.092310 -0.660797 1.680218 0
M  V30 6 C 0.071747 0.451197 0.846769 0
M  V30 7 C -0.230074 0.397745 -0.492982 0
M  V30 8 C -0.024177 1.539741 -1.206993 0
M  V30 9 C 0.442270 2.827632 -0.719119 0
M  V30 10 C 1.536816 3.293894 -1.453396 0
M  V30 11 C 2.120371 4.517496 -1.145284 0
M  V30 12 C 1.650071 5.306317 -0.120202 0
M  V30 13 O 2.206587 6.536996 0.219837 0
M  V30 14 C 0.571714 4.824522 0.586199 0
M  V30 15 C -0.029195 3.616455 0.306170 0
M  V30 16 C -0.334888 1.437802 -2.566850 0
M  V30 17 N -0.806640 0.306382 -3.157440 0
M  V30 18 C -0.986026 -0.771980 -2.404161 0
M  V30 19 O -1.419885 -1.727398 -3.072050 0
M  V30 20 C -0.703089 -0.747897 -1.065300 0
M  V30 21 C -0.875473 -1.843130 -0.292349 0
M  V30 22 C -1.352770 -3.013200 -0.819187 0
M  V30 23 C -1.539896 -4.138616 -0.041984 0
M  V30 24 C -2.044526 -5.421300 -0.522310 0
M  V30 25 C -2.953387 -5.690889 -1.540787 0
M  V30 26 N -3.136744 -7.026981 -1.653237 0
M  V30 27 N -2.379483 -7.620365 -0.745140 0
M  V30 28 C -1.711279 -6.682367 -0.049647 0
M  V30 29 C -1.225520 -4.041915 1.299750 0
M  V30 30 C -0.741570 -2.887474 1.880236 0
M  V30 31 C -0.572652 -1.783096 1.045629 0
M  V30 32 H 0.262611 -0.959355 6.247821 0
M  V30 33 H 0.319222 -2.291866 5.129043 0
M  V30 34 H 2.906407 -1.310061 5.180285 0
M  V30 35 H 1.798722 0.165295 5.165943 0
M  V30 36 H 2.449736 -0.630108 2.915136 0
M  V30 37 H 1.703504 -2.184267 3.265491 0
M  V30 38 H -0.495227 -0.993196 3.757073 0
M  V30 39 H 0.266493 0.552925 3.378941 0
M  V30 40 H 0.454965 1.348832 1.307621 0
M  V30 41 H 2.021744 2.784422 -2.291097 0
M  V30 42 H 2.977906 4.920249 -1.692087 0
M  V30 43 H 3.078067 6.847793 -0.191138 0
M  V30 44 H 0.122235 5.380108 1.423665 0
M  V30 45 H -0.872074 3.213893 0.823626 0
M  V30 46 H -0.185308 2.334065 -3.189346 0
M  V30 47 H -0.995485 0.386996 -4.201071 0
M  V30 48 H -1.630993 -3.217572 -1.828968 0
M  V30 49 H -3.392781 -4.864413 -2.102179 0
M  V30 50 H -2.369363 -8.666059 -0.658043 0
M  V30 51 H -1.018655 -6.885222 0.755942 0
M  V30 52 H -1.360992 -4.910163 1.940989 0
M  V30 53 H -0.527496 -2.900675 2.937421 0
M  V30 END ATOM
M  V30 BEGIN BOND
M  V30 1 1 1 2
M  V30 2 1 2 3
M  V30 3 1 3 4
M  V30 4 1 4 5
M  V30 5 2 5 6
M  V30 6 1 6 7
M  V30 7 1 7 8
M  V30 8 1 8 9
M  V30 9 2 9 10
M  V30 10 1 10 11
M  V30 11 2 11 12
M  V30 12 1 12 13
M  V30 13 1 12 14
M  V30 14 2 14 15
M  V30 15 2 8 16
M  V30 16 1 16 17
M  V30 17 1 17 18
M  V30 18 2 18 19
M  V30 19 1 18 20
M  V30 20 1 20 21
M  V30 21 2 21 22
M  V30 22 1 22 23
M  V30 23 1 23 24
M  V30 24 1 24 25
M  V30 25 2 25 26
M  V30 26 1 26 27
M  V30 27 1 27 28
M  V30 28 2 23 29
M  V30 29 1 29 30
M  V30 30 2 30 31
M  V30 31 1 31 5
M  V30 32 2 20 7
M  V30 33 1 31 21
M  V30 34 1 15 9
M  V30 35 2 28 24
M  V30 36 1 1 32
M  V30 37 1 1 33
M  V30 38 1 2 34
M  V30 39 1 2 35
M  V30 40 1 3 36
M  V30 41 1 3 37
M  V30 42 1 4 38
M  V30 43 1 4 39
M  V30 44 1 6 40
M  V30 45 1 10 41
M  V30 46 1 11 42
M  V30 47 1 13 43
M  V30 48 1 14 44
M  V30 49 1 15 45
M  V30 50 1 16 46
M  V30 51 1 17 47
M  V30 52 1 22 48
M  V30 53 1 25 49
M  V30 54 1 27 50
M  V30 55 1 28 51
M  V30 56 1 29 52
M  V30 57 1 30 53
M  V30 END BOND
M  V30 END CTAB
M  END
>  <Dataset>  (492) 
ChEMBL_Kinases

>  <Ligand_Instance>  (492) 
nan

>  <PDB_ID>  (492) 
nan

>  <Standardized_SMILES>  (492) 
NCCCc1cc2c(-c3ccc(O)cc3)c[nH]c(=O)c2c2cc(-c3cn[nH]c3)ccc12

>  <Name>  (492) 
nan

>  <Pocket>  (492) 
nan

>  <ATP_Site>  (492) 
nan

>  <Peripheral>  (492) 
nan

>  <Num_H_Atoms_ProtBoundConf>  (492) 
nan

>  <Num_Resolved_Atoms>  (492) 
nan

>  <Num_Not_Resolved_Atoms>  (492) 
nan

$$$$
CHEMBL249441
     RDKit          3D

  0  0  0  0  0  0  0  0  0  0999 V3000
M  V30 BEGIN CTAB
M  V30 COUNTS 53 57 0 0 0
M  V30 BEGIN ATOM
M  V30 1 N -0.034156 -2.839904 5.533285 0
M  V30 2 C 1.116840 -2.120968 5.057276 0
M  V30 3 C 1.065231 -1.887607 3.558370 0
M  V30 4 C -0.146351 -1.088089 3.162113 0
M  V30 5 C -0.197164 -0.866715 1.701315 0
M  V30 6 C 0.173653 0.348550 1.161587 0
M  V30 7 C 0.137486 0.548796 -0.179252 0
M  V30 8 C 0.520242 1.795934 -0.622667 0
M  V30 9 C 0.993925 2.919436 0.171689 0
M  V30 10 C 1.996190 2.992937 1.114842 0
M  V30 11 C 2.304066 4.131833 1.786200 0
M  V30 12 C 1.590772 5.281785 1.525128 0
M  V30 13 C 0.582479 5.250327 0.590044 0
M  V30 14 O -0.145502 6.426605 0.323802 0
M  V30 15 C 0.260754 4.080665 -0.104055 0
M  V30 16 C 0.465751 1.979600 -2.010266 0
M  V30 17 N 0.071950 1.031238 -2.910509 0
M  V30 18 C -0.289454 -0.166927 -2.422626 0
M  V30 19 O -0.625993 -0.944141 -3.333165 0
M  V30 20 C -0.260053 -0.413402 -1.076792 0
M  V30 21 C -0.634195 -1.628726 -0.575245 0
M  V30 22 C -1.044037 -2.636117 -1.405051 0
M  V30 23 C -1.430671 -3.873439 -0.931005 0
M  V30 24 C -1.881580 -5.008734 -1.735323 0
M  V30 25 C -2.786896 -5.976981 -1.364206 0
M  V30 26 N -2.919489 -6.837781 -2.398434 0
M  V30 27 N -2.149942 -6.478558 -3.416224 0
M  V30 28 C -1.512679 -5.361092 -3.017403 0
M  V30 29 C -1.379550 -4.040936 0.458908 0
M  V30 30 C -0.972873 -3.053302 1.333430 0
M  V30 31 C -0.598784 -1.834691 0.774652 0
M  V30 32 H 0.184289 -3.275322 6.455331 0
M  V30 33 H -0.891732 -2.268593 5.616294 0
M  V30 34 H 2.021432 -2.721306 5.265068 0
M  V30 35 H 1.234512 -1.167227 5.596247 0
M  V30 36 H 1.942752 -1.199832 3.359106 0
M  V30 37 H 1.262510 -2.773688 2.961583 0
M  V30 38 H -1.087328 -1.506485 3.567884 0
M  V30 39 H -0.043044 -0.095617 3.646554 0
M  V30 40 H 0.476577 1.107372 1.864101 0
M  V30 41 H 2.522985 2.060793 1.263098 0
M  V30 42 H 3.110404 4.078932 2.507187 0
M  V30 43 H 1.823172 6.194344 2.050193 0
M  V30 44 H 0.439096 7.189338 -0.050909 0
M  V30 45 H -0.548198 4.165639 -0.816586 0
M  V30 46 H 0.761006 2.959079 -2.412305 0
M  V30 47 H 0.080840 1.311642 -3.930333 0
M  V30 48 H -1.121252 -2.620184 -2.467302 0
M  V30 49 H -3.318602 -6.059111 -0.409835 0
M  V30 50 H -2.071240 -6.983618 -4.340585 0
M  V30 51 H -0.801758 -4.826142 -3.649792 0
M  V30 52 H -1.679702 -5.009310 0.863116 0
M  V30 53 H -0.980625 -3.304279 2.379071 0
M  V30 END ATOM
M  V30 BEGIN BOND
M  V30 1 1 1 2
M  V30 2 1 2 3
M  V30 3 1 3 4
M  V30 4 1 4 5
M  V30 5 2 5 6
M  V30 6 1 6 7
M  V30 7 1 7 8
M  V30 8 1 8 9
M  V30 9 2 9 10
M  V30 10 1 10 11
M  V30 11 2 11 12
M  V30 12 1 12 13
M  V30 13 1 13 14
M  V30 14 2 13 15
M  V30 15 2 8 16
M  V30 16 1 16 17
M  V30 17 1 17 18
M  V30 18 2 18 19
M  V30 19 1 18 20
M  V30 20 1 20 21
M  V30 21 2 21 22
M  V30 22 1 22 23
M  V30 23 1 23 24
M  V30 24 1 24 25
M  V30 25 2 25 26
M  V30 26 1 26 27
M  V30 27 1 27 28
M  V30 28 2 23 29
M  V30 29 1 29 30
M  V30 30 2 30 31
M  V30 31 1 31 5
M  V30 32 2 20 7
M  V30 33 1 31 21
M  V30 34 1 15 9
M  V30 35 2 28 24
M  V30 36 1 1 32
M  V30 37 1 1 33
M  V30 38 1 2 34
M  V30 39 1 2 35
M  V30 40 1 3 36
M  V30 41 1 3 37
M  V30 42 1 4 38
M  V30 43 1 4 39
M  V30 44 1 6 40
M  V30 45 1 10 41
M  V30 46 1 11 42
M  V30 47 1 12 43
M  V30 48 1 14 44
M  V30 49 1 15 45
M  V30 50 1 16 46
M  V30 51 1 17 47
M  V30 52 1 22 48
M  V30 53 1 25 49
M  V30 54 1 27 50
M  V30 55 1 28 51
M  V30 56 1 29 52
M  V30 57 1 30 53
M  V30 END BOND
M  V30 END CTAB
M  END
>  <Dataset>  (493) 
ChEMBL_Kinases

>  <Ligand_Instance>  (493) 
nan

>  <PDB_ID>  (493) 
nan

>  <Standardized_SMILES>  (493) 
NCCCc1cc2c(-c3cccc(O)c3)c[nH]c(=O)c2c2cc(-c3cn[nH]c3)ccc12

>  <Name>  (493) 
nan

>  <Pocket>  (493) 
nan

>  <ATP_Site>  (493) 
nan

>  <Peripheral>  (493) 
nan

>  <Num_H_Atoms_ProtBoundConf>  (493) 
nan

>  <Num_Resolved_Atoms>  (493) 
nan

>  <Num_Not_Resolved_Atoms>  (493) 
nan

$$$$
CHEMBL249429
     RDKit          3D

  0  0  0  0  0  0  0  0  0  0999 V3000
M  V30 BEGIN CTAB
M  V30 COUNTS 40 43 0 0 0
M  V30 BEGIN ATOM
M  V30 1 N 0.769318 -3.670747 2.294496 0
M  V30 2 C 2.196735 -3.676429 2.252071 0
M  V30 3 C 2.751980 -2.278725 2.394844 0
M  V30 4 C 2.211303 -1.456253 1.312147 0
M  V30 5 C 2.903850 -1.411778 0.105218 0
M  V30 6 C 2.468913 -0.749296 -1.020336 0
M  V30 7 C 3.243347 -0.780862 -2.167829 0
M  V30 8 C 2.714063 -0.087880 -3.246455 0
M  V30 9 N 1.539057 0.588586 -3.250517 0
M  V30 10 C 0.845310 0.574460 -2.103368 0
M  V30 11 O -0.215674 1.216265 -2.198055 0
M  V30 12 C 1.272774 -0.075154 -0.980622 0
M  V30 13 C 0.577394 -0.103645 0.195707 0
M  V30 14 C -0.613411 0.579168 0.275831 0
M  V30 15 C -1.350713 0.604533 1.442133 0
M  V30 16 C -2.624819 1.293025 1.641845 0
M  V30 17 C -3.229215 2.023564 0.616329 0
M  V30 18 C -4.404075 2.548561 1.105646 0
M  V30 19 C -4.512760 2.134592 2.433888 0
M  V30 20 N -3.425924 1.393275 2.690289 0
M  V30 21 C -0.869757 -0.074171 2.541430 0
M  V30 22 C 0.324702 -0.774784 2.503159 0
M  V30 23 C 1.003820 -0.756331 1.306556 0
M  V30 24 H 0.373886 -4.179095 1.449939 0
M  V30 25 H 0.421511 -4.106865 3.171531 0
M  V30 26 H 2.551187 -4.148789 1.288380 0
M  V30 27 H 2.594854 -4.355826 3.046805 0
M  V30 28 H 3.849442 -2.349041 2.234565 0
M  V30 29 H 2.640662 -1.920745 3.417251 0
M  V30 30 H 3.868131 -1.941797 0.045208 0
M  V30 31 H 4.186745 -1.302963 -2.217838 0
M  V30 32 H 3.326677 -0.117969 -4.138385 0
M  V30 33 H 1.262410 1.065551 -4.136828 0
M  V30 34 H -1.117956 1.147187 -0.474702 0
M  V30 35 H -2.953511 2.234407 -0.420871 0
M  V30 36 H -5.156745 3.174043 0.622272 0
M  V30 37 H -5.263677 2.308831 3.192119 0
M  V30 38 H -3.183773 0.924159 3.590833 0
M  V30 39 H -1.416117 -0.078052 3.478356 0
M  V30 40 H 0.643535 -1.261458 3.412784 0
M  V30 END ATOM
M  V30 BEGIN BOND
M  V30 1 1 1 2
M  V30 2 1 2 3
M  V30 3 1 3 4
M  V30 4 2 4 5
M  V30 5 1 5 6
M  V30 6 1 6 7
M  V30 7 2 7 8
M  V30 8 1 8 9
M  V30 9 1 9 10
M  V30 10 2 10 11
M  V30 11 1 10 12
M  V30 12 1 12 13
M  V30 13 2 13 14
M  V30 14 1 14 15
M  V30 15 1 15 16
M  V30 16 2 16 17
M  V30 17 1 17 18
M  V30 18 2 18 19
M  V30 19 1 19 20
M  V30 20 2 15 21
M  V30 21 1 21 22
M  V30 22 2 22 23
M  V30 23 1 23 4
M  V30 24 2 12 6
M  V30 25 1 23 13
M  V30 26 1 20 16
M  V30 27 1 1 24
M  V30 28 1 1 25
M  V30 29 1 2 26
M  V30 30 1 2 27
M  V30 31 1 3 28
M  V30 32 1 3 29
M  V30 33 1 5 30
M  V30 34 1 7 31
M  V30 35 1 8 32
M  V30 36 1 9 33
M  V30 37 1 14 34
M  V30 38 1 17 35
M  V30 39 1 18 36
M  V30 40 1 19 37
M  V30 41 1 20 38
M  V30 42 1 21 39
M  V30 43 1 22 40
M  V30 END BOND
M  V30 END CTAB
M  END
>  <Dataset>  (494) 
ChEMBL_Kinases

>  <Ligand_Instance>  (494) 
nan

>  <PDB_ID>  (494) 
nan

>  <Standardized_SMILES>  (494) 
NCCc1cc2cc[nH]c(=O)c2c2cc(-c3ccc[nH]3)ccc12

>  <Name>  (494) 
nan

>  <Pocket>  (494) 
nan

>  <ATP_Site>  (494) 
nan

>  <Peripheral>  (494) 
nan

>  <Num_H_Atoms_ProtBoundConf>  (494) 
nan

>  <Num_Resolved_Atoms>  (494) 
nan

>  <Num_Not_Resolved_Atoms>  (494) 
nan

$$$$
CHEMBL249401
     RDKit          3D

  0  0  0  0  0  0  0  0  0  0999 V3000
M  V30 BEGIN CTAB
M  V30 COUNTS 31 33 0 0 0
M  V30 BEGIN ATOM
M  V30 1 N 0.387668 -5.353119 4.327387 0
M  V30 2 C 0.544384 -4.348269 3.742618 0
M  V30 3 C 0.715605 -3.097543 3.005747 0
M  V30 4 C -0.096701 -3.095106 1.726313 0
M  V30 5 C 0.052456 -1.836125 0.953817 0
M  V30 6 C 0.909041 -1.822518 -0.152537 0
M  V30 7 C 1.125406 -0.697209 -0.920923 0
M  V30 8 C 1.993623 -0.811857 -1.985456 0
M  V30 9 C 2.152172 0.363505 -2.701034 0
M  V30 10 N 1.532747 1.543429 -2.419689 0
M  V30 11 C 0.698437 1.586417 -1.367445 0
M  V30 12 O 0.209005 2.721879 -1.233656 0
M  V30 13 C 0.488467 0.467482 -0.610535 0
M  V30 14 C -0.352516 0.507490 0.451463 0
M  V30 15 C -1.010602 1.659712 0.785286 0
M  V30 16 C -1.879727 1.715876 1.866528 0
M  V30 17 Br -2.850774 3.263758 2.426192 0
M  V30 18 C -2.058883 0.557176 2.600379 0
M  V30 19 C -1.414384 -0.628412 2.298773 0
M  V30 20 C -0.554873 -0.623624 1.204004 0
M  V30 21 H 1.807724 -3.032634 2.717916 0
M  V30 22 H 0.465705 -2.273968 3.699577 0
M  V30 23 H -1.188462 -3.261008 1.974462 0
M  V30 24 H 0.279893 -3.930574 1.110152 0
M  V30 25 H 1.415425 -2.742624 -0.402036 0
M  V30 26 H 2.506560 -1.709190 -2.253803 0
M  V30 27 H 2.829980 0.315492 -3.550000 0
M  V30 28 H 1.766711 2.349738 -3.071963 0
M  V30 29 H -0.972375 2.611640 0.321060 0
M  V30 30 H -2.732080 0.558847 3.455105 0
M  V30 31 H -1.614996 -1.482975 2.917764 0
M  V30 END ATOM
M  V30 BEGIN BOND
M  V30 1 3 1 2
M  V30 2 1 2 3
M  V30 3 1 3 4
M  V30 4 1 4 5
M  V30 5 2 5 6
M  V30 6 1 6 7
M  V30 7 1 7 8
M  V30 8 2 8 9
M  V30 9 1 9 10
M  V30 10 1 10 11
M  V30 11 2 11 12
M  V30 12 1 11 13
M  V30 13 1 13 14
M  V30 14 2 14 15
M  V30 15 1 15 16
M  V30 16 1 16 17
M  V30 17 2 16 18
M  V30 18 1 18 19
M  V30 19 2 19 20
M  V30 20 1 20 5
M  V30 21 2 13 7
M  V30 22 1 20 14
M  V30 23 1 3 21
M  V30 24 1 3 22
M  V30 25 1 4 23
M  V30 26 1 4 24
M  V30 27 1 6 25
M  V30 28 1 8 26
M  V30 29 1 9 27
M  V30 30 1 10 28
M  V30 31 1 15 29
M  V30 32 1 18 30
M  V30 33 1 19 31
M  V30 END BOND
M  V30 END CTAB
M  END
>  <Dataset>  (495) 
ChEMBL_Kinases

>  <Ligand_Instance>  (495) 
nan

>  <PDB_ID>  (495) 
nan

>  <Standardized_SMILES>  (495) 
N#CCCc1cc2cc[nH]c(=O)c2c2cc(Br)ccc12

>  <Name>  (495) 
nan

>  <Pocket>  (495) 
nan

>  <ATP_Site>  (495) 
nan

>  <Peripheral>  (495) 
nan

>  <Num_H_Atoms_ProtBoundConf>  (495) 
nan

>  <Num_Resolved_Atoms>  (495) 
nan

>  <Num_Not_Resolved_Atoms>  (495) 
nan

$$$$
CHEMBL249400
     RDKit          3D

  0  0  0  0  0  0  0  0  0  0999 V3000
M  V30 BEGIN CTAB
M  V30 COUNTS 31 33 0 0 0
M  V30 BEGIN ATOM
M  V30 1 N -0.232772 -5.420011 4.199601 0
M  V30 2 C 0.043219 -4.425043 3.656725 0
M  V30 3 C 0.367142 -3.167664 2.965654 0
M  V30 4 C -0.325571 -3.082419 1.621305 0
M  V30 5 C -0.027137 -1.826342 0.893553 0
M  V30 6 C 0.905346 -1.877115 -0.133630 0
M  V30 7 C 1.223976 -0.728639 -0.830004 0
M  V30 8 C 2.158827 -0.874736 -1.830734 0
M  V30 9 C 2.450251 0.314586 -2.508053 0
M  V30 10 N 1.892912 1.525307 -2.243792 0
M  V30 11 C 0.986662 1.600765 -1.254179 0
M  V30 12 O 0.563392 2.763292 -1.125286 0
M  V30 13 C 0.646949 0.481223 -0.543602 0
M  V30 14 C -0.265159 0.554510 0.453844 0
M  V30 15 C -0.873776 1.737633 0.777768 0
M  V30 16 C -1.808753 1.831024 1.788363 0
M  V30 17 Cl -2.646126 3.291001 2.283889 0
M  V30 18 C -2.101066 0.642374 2.466523 0
M  V30 19 C -1.507263 -0.544652 2.160392 0
M  V30 20 C -0.581640 -0.589538 1.146313 0
M  V30 21 H 1.484156 -3.190981 2.795956 0
M  V30 22 H 0.180231 -2.331227 3.637006 0
M  V30 23 H -1.434013 -3.195573 1.761690 0
M  V30 24 H 0.023992 -3.942997 1.041312 0
M  V30 25 H 1.368871 -2.829127 -0.369725 0
M  V30 26 H 2.634177 -1.787344 -2.091475 0
M  V30 27 H 3.186471 0.231964 -3.305920 0
M  V30 28 H 2.229330 2.327332 -2.856640 0
M  V30 29 H -0.734506 2.697116 0.337492 0
M  V30 30 H -2.844598 0.689163 3.278180 0
M  V30 31 H -1.808889 -1.398197 2.742939 0
M  V30 END ATOM
M  V30 BEGIN BOND
M  V30 1 3 1 2
M  V30 2 1 2 3
M  V30 3 1 3 4
M  V30 4 1 4 5
M  V30 5 2 5 6
M  V30 6 1 6 7
M  V30 7 1 7 8
M  V30 8 2 8 9
M  V30 9 1 9 10
M  V30 10 1 10 11
M  V30 11 2 11 12
M  V30 12 1 11 13
M  V30 13 1 13 14
M  V30 14 2 14 15
M  V30 15 1 15 16
M  V30 16 1 16 17
M  V30 17 2 16 18
M  V30 18 1 18 19
M  V30 19 2 19 20
M  V30 20 1 20 5
M  V30 21 2 13 7
M  V30 22 1 20 14
M  V30 23 1 3 21
M  V30 24 1 3 22
M  V30 25 1 4 23
M  V30 26 1 4 24
M  V30 27 1 6 25
M  V30 28 1 8 26
M  V30 29 1 9 27
M  V30 30 1 10 28
M  V30 31 1 15 29
M  V30 32 1 18 30
M  V30 33 1 19 31
M  V30 END BOND
M  V30 END CTAB
M  END
>  <Dataset>  (496) 
ChEMBL_Kinases

>  <Ligand_Instance>  (496) 
nan

>  <PDB_ID>  (496) 
nan

>  <Standardized_SMILES>  (496) 
N#CCCc1cc2cc[nH]c(=O)c2c2cc(Cl)ccc12

>  <Name>  (496) 
nan

>  <Pocket>  (496) 
nan

>  <ATP_Site>  (496) 
nan

>  <Peripheral>  (496) 
nan

>  <Num_H_Atoms_ProtBoundConf>  (496) 
nan

>  <Num_Resolved_Atoms>  (496) 
nan

>  <Num_Not_Resolved_Atoms>  (496) 
nan

$$$$
CHEMBL249350
     RDKit          3D

  0  0  0  0  0  0  0  0  0  0999 V3000
M  V30 BEGIN CTAB
M  V30 COUNTS 51 54 0 0 0
M  V30 BEGIN ATOM
M  V30 1 N -2.301975 -7.643889 -3.958296 0
M  V30 2 C -0.977602 -7.327636 -4.410004 0
M  V30 3 O -1.197019 -8.353645 -5.033160 0
M  V30 4 C -0.347294 -6.140589 -3.882157 0
M  V30 5 C 0.931944 -5.936672 -4.344670 0
M  V30 6 C 1.625714 -4.823091 -3.906467 0
M  V30 7 C 0.962510 -3.998127 -3.027662 0
M  V30 8 N 1.333000 -2.856174 -2.423198 0
M  V30 9 C 0.362189 -2.377600 -1.640338 0
M  V30 10 C 0.282895 -1.186627 -0.800412 0
M  V30 11 C -0.817081 -0.849577 -0.042416 0
M  V30 12 C -0.851891 0.298944 0.734721 0
M  V30 13 C 0.251025 1.127744 0.746951 0
M  V30 14 O 0.069202 2.233379 1.565939 0
M  V30 15 C 1.001754 3.250421 1.784355 0
M  V30 16 C 0.449234 4.285768 2.731391 0
M  V30 17 N 0.099793 3.787323 4.018196 0
M  V30 18 C 1.137331 3.366489 4.843301 0
M  V30 19 C 0.995370 2.072923 5.550427 0
M  V30 20 C -0.283444 1.333556 5.259528 0
M  V30 21 C -1.423830 2.326908 5.255900 0
M  V30 22 C -1.188617 3.244624 4.103108 0
M  V30 23 C 1.366137 0.812340 -0.003671 0
M  V30 24 C 1.392870 -0.335483 -0.776308 0
M  V30 25 N -0.676416 -3.241301 -1.740604 0
M  V30 26 C -0.321076 -4.240647 -2.589383 0
M  V30 27 C -1.033818 -5.336421 -3.005801 0
M  V30 28 H -2.589054 -7.745765 -2.957802 0
M  V30 29 H -3.271269 -7.873802 -3.668147 0
M  V30 30 H 1.372973 -6.640476 -5.035754 0
M  V30 31 H 2.625096 -4.605350 -4.226789 0
M  V30 32 H 2.245032 -2.351664 -2.506782 0
M  V30 33 H -1.639938 -1.558747 -0.111238 0
M  V30 34 H -1.777881 0.474617 1.298927 0
M  V30 35 H 1.129927 3.759243 0.796840 0
M  V30 36 H 2.009408 2.906046 2.063622 0
M  V30 37 H 1.140481 5.122068 2.849942 0
M  V30 38 H -0.477975 4.680710 2.251131 0
M  V30 39 H 1.314374 4.163371 5.617022 0
M  V30 40 H 2.104450 3.354144 4.276697 0
M  V30 41 H 1.814367 1.364545 5.296505 0
M  V30 42 H 1.031724 2.183644 6.655410 0
M  V30 43 H -0.241781 0.780411 4.315429 0
M  V30 44 H -0.481583 0.613882 6.078644 0
M  V30 45 H -2.363285 1.740936 5.076764 0
M  V30 46 H -1.487763 2.832127 6.235182 0
M  V30 47 H -1.549167 2.729335 3.170002 0
M  V30 48 H -1.916066 4.098287 4.238718 0
M  V30 49 H 2.177107 1.511049 0.065118 0
M  V30 50 H 2.269780 -0.567014 -1.355888 0
M  V30 51 H -2.032157 -5.591243 -2.708163 0
M  V30 END ATOM
M  V30 BEGIN BOND
M  V30 1 1 1 2
M  V30 2 2 2 3
M  V30 3 1 2 4
M  V30 4 2 4 5
M  V30 5 1 5 6
M  V30 6 2 6 7
M  V30 7 1 7 8
M  V30 8 1 8 9
M  V30 9 1 9 10
M  V30 10 2 10 11
M  V30 11 1 11 12
M  V30 12 2 12 13
M  V30 13 1 13 14
M  V30 14 1 14 15
M  V30 15 1 15 16
M  V30 16 1 16 17
M  V30 17 1 17 18
M  V30 18 1 18 19
M  V30 19 1 19 20
M  V30 20 1 20 21
M  V30 21 1 21 22
M  V30 22 1 13 23
M  V30 23 2 23 24
M  V30 24 2 9 25
M  V30 25 1 25 26
M  V30 26 2 26 27
M  V30 27 1 27 4
M  V30 28 1 26 7
M  V30 29 1 24 10
M  V30 30 1 22 17
M  V30 31 1 1 28
M  V30 32 1 1 29
M  V30 33 1 5 30
M  V30 34 1 6 31
M  V30 35 1 8 32
M  V30 36 1 11 33
M  V30 37 1 12 34
M  V30 38 1 15 35
M  V30 39 1 15 36
M  V30 40 1 16 37
M  V30 41 1 16 38
M  V30 42 1 18 39
M  V30 43 1 18 40
M  V30 44 1 19 41
M  V30 45 1 19 42
M  V30 46 1 20 43
M  V30 47 1 20 44
M  V30 48 1 21 45
M  V30 49 1 21 46
M  V30 50 1 22 47
M  V30 51 1 22 48
M  V30 52 1 23 49
M  V30 53 1 24 50
M  V30 54 1 27 51
M  V30 END BOND
M  V30 END CTAB
M  END
>  <Dataset>  (497) 
ChEMBL_Kinases

>  <Ligand_Instance>  (497) 
nan

>  <PDB_ID>  (497) 
nan

>  <Standardized_SMILES>  (497) 
NC(=O)c1ccc2[nH]c(-c3ccc(OCCN4CCCCC4)cc3)nc2c1

>  <Name>  (497) 
nan

>  <Pocket>  (497) 
nan

>  <ATP_Site>  (497) 
nan

>  <Peripheral>  (497) 
nan

>  <Num_H_Atoms_ProtBoundConf>  (497) 
nan

>  <Num_Resolved_Atoms>  (497) 
nan

>  <Num_Not_Resolved_Atoms>  (497) 
nan

$$$$
CHEMBL249347
     RDKit          3D

  0  0  0  0  0  0  0  0  0  0999 V3000
M  V30 BEGIN CTAB
M  V30 COUNTS 68 72 0 0 0
M  V30 BEGIN ATOM
M  V30 1 C 6.032751 2.711294 5.352303 0
M  V30 2 O 5.709696 1.606945 4.526589 0
M  V30 3 C 5.759246 1.711997 3.142374 0
M  V30 4 C 5.408982 0.525536 2.496922 0
M  V30 5 C 5.420210 0.503422 1.105397 0
M  V30 6 C 5.765431 1.613816 0.356173 0
M  V30 7 C 5.781846 1.607584 -1.136201 0
M  V30 8 N 4.481094 2.002484 -1.573482 0
M  V30 9 C 3.402893 1.161407 -1.153716 0
M  V30 10 C 2.124275 1.799320 -1.677829 0
M  V30 11 C 2.084979 1.486051 -3.156010 0
M  V30 12 C 0.931649 2.269176 -3.748702 0
M  V30 13 C -0.357206 1.847422 -3.081119 0
M  V30 14 O -0.596699 0.474813 -3.274181 0
M  V30 15 C -1.682964 -0.215163 -2.791469 0
M  V30 16 C -2.712830 0.315752 -2.042197 0
M  V30 17 C -3.729087 -0.525026 -1.638571 0
M  V30 18 C -3.762272 -1.869702 -1.949581 0
M  V30 19 C -4.862793 -2.722954 -1.496056 0
M  V30 20 N -5.899596 -2.301464 -0.759775 0
M  V30 21 C -6.739957 -3.346331 -0.510882 0
M  V30 22 C -7.920776 -3.351814 0.206105 0
M  V30 23 C -8.522370 -4.594887 0.260240 0
M  V30 24 C -9.776419 -4.718676 0.993921 0
M  V30 25 N -10.412492 -3.638450 1.667716 0
M  V30 26 O -10.592750 -5.643481 1.248680 0
M  V30 27 C -8.033012 -5.744643 -0.325968 0
M  V30 28 C -6.838657 -5.646055 -1.027848 0
M  V30 29 C -6.166231 -4.436727 -1.133396 0
M  V30 30 N -5.019433 -4.038677 -1.730925 0
M  V30 31 C -2.730845 -2.419184 -2.704500 0
M  V30 32 C -1.710013 -1.568868 -3.108462 0
M  V30 33 C 3.397862 1.800037 -3.785460 0
M  V30 34 C 4.385591 2.495560 -2.906661 0
M  V30 35 C 6.111502 2.787981 1.036477 0
M  V30 36 C 6.108209 2.835985 2.421762 0
M  V30 37 H 5.640741 2.532745 6.371536 0
M  V30 38 H 7.157300 2.709247 5.437731 0
M  V30 39 H 5.747508 3.680384 4.938036 0
M  V30 40 H 5.124349 -0.393528 3.016808 0
M  V30 41 H 5.160759 -0.379227 0.527766 0
M  V30 42 H 6.509650 2.349930 -1.485263 0
M  V30 43 H 6.023019 0.577001 -1.471392 0
M  V30 44 H 3.321620 1.131852 -0.050019 0
M  V30 45 H 3.478186 0.114828 -1.498349 0
M  V30 46 H 1.276898 1.286766 -1.189267 0
M  V30 47 H 2.154950 2.889738 -1.522401 0
M  V30 48 H 1.853529 0.415744 -3.276385 0
M  V30 49 H 1.073647 3.351401 -3.527920 0
M  V30 50 H 0.831607 2.142791 -4.827988 0
M  V30 51 H -1.187185 2.374009 -3.631508 0
M  V30 52 H -0.403758 2.157449 -2.033403 0
M  V30 53 H -2.666030 1.368403 -1.811132 0
M  V30 54 H -4.518817 -0.071538 -1.052692 0
M  V30 55 H -8.322591 -2.474686 0.670809 0
M  V30 56 H -11.184779 -3.062723 1.265831 0
M  V30 57 H -10.408948 -3.100915 2.565693 0
M  V30 58 H -8.564277 -6.682925 -0.238577 0
M  V30 59 H -6.415934 -6.528718 -1.506487 0
M  V30 60 H -4.369276 -4.623580 -2.272886 0
M  V30 61 H -2.721423 -3.479149 -2.971200 0
M  V30 62 H -0.917112 -2.039743 -3.700796 0
M  V30 63 H 3.249067 2.425204 -4.691171 0
M  V30 64 H 3.889240 0.851074 -4.146697 0
M  V30 65 H 5.394891 2.378431 -3.392433 0
M  V30 66 H 4.177513 3.603776 -2.949468 0
M  V30 67 H 6.389076 3.683463 0.492530 0
M  V30 68 H 6.365837 3.712873 2.993871 0
M  V30 END ATOM
M  V30 BEGIN BOND
M  V30 1 1 1 2
M  V30 2 1 2 3
M  V30 3 2 3 4
M  V30 4 1 4 5
M  V30 5 2 5 6
M  V30 6 1 6 7
M  V30 7 1 7 8
M  V30 8 1 8 9
M  V30 9 1 9 10
M  V30 10 1 10 11
M  V30 11 1 11 12
M  V30 12 1 12 13
M  V30 13 1 13 14
M  V30 14 1 14 15
M  V30 15 2 15 16
M  V30 16 1 16 17
M  V30 17 2 17 18
M  V30 18 1 18 19
M  V30 19 2 19 20
M  V30 20 1 20 21
M  V30 21 2 21 22
M  V30 22 1 22 23
M  V30 23 1 23 24
M  V30 24 1 24 25
M  V30 25 2 24 26
M  V30 26 2 23 27
M  V30 27 1 27 28
M  V30 28 2 28 29
M  V30 29 1 29 30
M  V30 30 1 18 31
M  V30 31 2 31 32
M  V30 32 1 11 33
M  V30 33 1 33 34
M  V30 34 1 6 35
M  V30 35 2 35 36
M  V30 36 1 36 3
M  V30 37 1 34 8
M  V30 38 1 32 15
M  V30 39 1 30 19
M  V30 40 1 29 21
M  V30 41 1 1 37
M  V30 42 1 1 38
M  V30 43 1 1 39
M  V30 44 1 4 40
M  V30 45 1 5 41
M  V30 46 1 7 42
M  V30 47 1 7 43
M  V30 48 1 9 44
M  V30 49 1 9 45
M  V30 50 1 10 46
M  V30 51 1 10 47
M  V30 52 1 11 48
M  V30 53 1 12 49
M  V30 54 1 12 50
M  V30 55 1 13 51
M  V30 56 1 13 52
M  V30 57 1 16 53
M  V30 58 1 17 54
M  V30 59 1 22 55
M  V30 60 1 25 56
M  V30 61 1 25 57
M  V30 62 1 27 58
M  V30 63 1 28 59
M  V30 64 1 30 60
M  V30 65 1 31 61
M  V30 66 1 32 62
M  V30 67 1 33 63
M  V30 68 1 33 64
M  V30 69 1 34 65
M  V30 70 1 34 66
M  V30 71 1 35 67
M  V30 72 1 36 68
M  V30 END BOND
M  V30 END CTAB
M  END
>  <Dataset>  (498) 
ChEMBL_Kinases

>  <Ligand_Instance>  (498) 
nan

>  <PDB_ID>  (498) 
nan

>  <Standardized_SMILES>  (498) 
COc1ccc(CN2CCC(CCOc3ccc(-c4nc5cc(C(N)=O)ccc5[nH]4)cc3)CC2)cc1

>  <Name>  (498) 
nan

>  <Pocket>  (498) 
nan

>  <ATP_Site>  (498) 
nan

>  <Peripheral>  (498) 
nan

>  <Num_H_Atoms_ProtBoundConf>  (498) 
nan

>  <Num_Resolved_Atoms>  (498) 
nan

>  <Num_Not_Resolved_Atoms>  (498) 
nan

$$$$
CHEMBL249345
     RDKit          3D

  0  0  0  0  0  0  0  0  0  0999 V3000
M  V30 BEGIN CTAB
M  V30 COUNTS 67 71 0 0 0
M  V30 BEGIN ATOM
M  V30 1 C 7.006359 0.746926 1.149098 0
M  V30 2 C 5.937816 1.782088 1.191422 0
M  V30 3 C 5.192022 1.996999 0.049254 0
M  V30 4 C 4.211543 2.974980 0.160058 0
M  V30 5 C 3.910837 3.747237 1.289181 0
M  V30 6 C 2.828895 4.728895 1.163653 0
M  V30 7 N 1.579874 4.149665 1.453699 0
M  V30 8 C 1.333397 3.625150 2.740531 0
M  V30 9 C 0.693576 2.243010 2.517586 0
M  V30 10 C -0.280747 2.322075 1.338768 0
M  V30 11 C 0.381559 1.811846 0.060185 0
M  V30 12 C -0.527562 1.869985 -1.116688 0
M  V30 13 O -1.705699 1.127831 -1.035726 0
M  V30 14 C -1.847862 -0.226481 -0.909895 0
M  V30 15 C -0.999779 -1.308583 -0.829261 0
M  V30 16 C -1.472377 -2.595268 -0.701539 0
M  V30 17 C -2.828737 -2.827213 -0.651817 0
M  V30 18 C -3.308053 -4.199337 -0.518009 0
M  V30 19 N -2.576792 -5.318891 -0.424497 0
M  V30 20 C -3.337967 -6.421481 -0.310514 0
M  V30 21 C -3.005788 -7.766735 -0.190589 0
M  V30 22 C -4.031939 -8.714468 -0.088085 0
M  V30 23 C -3.758165 -10.154864 0.041883 0
M  V30 24 N -2.398380 -10.544625 0.063308 0
M  V30 25 O -4.684147 -11.007248 0.129858 0
M  V30 26 C -5.336955 -8.274058 -0.109910 0
M  V30 27 C -5.638601 -6.930230 -0.230165 0
M  V30 28 C -4.645712 -5.980076 -0.332439 0
M  V30 29 N -4.576940 -4.645290 -0.457589 0
M  V30 30 C -3.752078 -1.779357 -0.727994 0
M  V30 31 C -3.226171 -0.485092 -0.857203 0
M  V30 32 C -0.739420 3.751173 1.156559 0
M  V30 33 C 0.418914 4.701469 0.862255 0
M  V30 34 C 4.701294 3.472802 2.390941 0
M  V30 35 C 5.692276 2.507357 2.332518 0
M  V30 36 H 7.854189 1.090554 1.775313 0
M  V30 37 H 7.310645 0.576660 0.094516 0
M  V30 38 H 6.583337 -0.185523 1.585605 0
M  V30 39 H 5.331678 1.468170 -0.866274 0
M  V30 40 H 3.624010 3.137837 -0.753132 0
M  V30 41 H 3.069819 5.637408 1.760991 0
M  V30 42 H 2.799042 5.086200 0.091511 0
M  V30 43 H 0.559349 4.183682 3.321964 0
M  V30 44 H 2.184719 3.516610 3.420405 0
M  V30 45 H 1.535379 1.564979 2.281156 0
M  V30 46 H 0.087565 1.927006 3.383405 0
M  V30 47 H -1.181906 1.720437 1.530750 0
M  V30 48 H 1.280510 2.462575 -0.162549 0
M  V30 49 H 0.820066 0.826186 0.287339 0
M  V30 50 H -0.723538 2.941533 -1.382199 0
M  V30 51 H 0.084340 1.502770 -2.000275 0
M  V30 52 H 0.019907 -1.007718 -0.887557 0
M  V30 53 H -0.713105 -3.361904 -0.647723 0
M  V30 54 H -1.972662 -8.105847 -0.173065 0
M  V30 55 H -2.018013 -10.317236 -0.886044 0
M  V30 56 H -1.416886 -10.851953 0.152702 0
M  V30 57 H -6.056641 -9.060308 -0.027187 0
M  V30 58 H -6.664269 -6.619238 -0.244342 0
M  V30 59 H -5.418275 -4.011017 -0.504206 0
M  V30 60 H -4.783596 -2.055966 -0.681344 0
M  V30 61 H -4.071299 0.215068 -0.902208 0
M  V30 62 H -1.273577 4.058883 2.086059 0
M  V30 63 H -1.438158 3.799800 0.314705 0
M  V30 64 H 0.519026 4.869064 -0.235374 0
M  V30 65 H 0.107763 5.702936 1.261528 0
M  V30 66 H 4.491112 4.058290 3.269937 0
M  V30 67 H 6.271742 2.349656 3.241533 0
M  V30 END ATOM
M  V30 BEGIN BOND
M  V30 1 1 1 2
M  V30 2 2 2 3
M  V30 3 1 3 4
M  V30 4 2 4 5
M  V30 5 1 5 6
M  V30 6 1 6 7
M  V30 7 1 7 8
M  V30 8 1 8 9
M  V30 9 1 9 10
M  V30 10 1 10 11
M  V30 11 1 11 12
M  V30 12 1 12 13
M  V30 13 1 13 14
M  V30 14 2 14 15
M  V30 15 1 15 16
M  V30 16 2 16 17
M  V30 17 1 17 18
M  V30 18 2 18 19
M  V30 19 1 19 20
M  V30 20 2 20 21
M  V30 21 1 21 22
M  V30 22 1 22 23
M  V30 23 1 23 24
M  V30 24 2 23 25
M  V30 25 2 22 26
M  V30 26 1 26 27
M  V30 27 2 27 28
M  V30 28 1 28 29
M  V30 29 1 17 30
M  V30 30 2 30 31
M  V30 31 1 10 32
M  V30 32 1 32 33
M  V30 33 1 5 34
M  V30 34 2 34 35
M  V30 35 1 35 2
M  V30 36 1 33 7
M  V30 37 1 31 14
M  V30 38 1 29 18
M  V30 39 1 28 20
M  V30 40 1 1 36
M  V30 41 1 1 37
M  V30 42 1 1 38
M  V30 43 1 3 39
M  V30 44 1 4 40
M  V30 45 1 6 41
M  V30 46 1 6 42
M  V30 47 1 8 43
M  V30 48 1 8 44
M  V30 49 1 9 45
M  V30 50 1 9 46
M  V30 51 1 10 47
M  V30 52 1 11 48
M  V30 53 1 11 49
M  V30 54 1 12 50
M  V30 55 1 12 51
M  V30 56 1 15 52
M  V30 57 1 16 53
M  V30 58 1 21 54
M  V30 59 1 24 55
M  V30 60 1 24 56
M  V30 61 1 26 57
M  V30 62 1 27 58
M  V30 63 1 29 59
M  V30 64 1 30 60
M  V30 65 1 31 61
M  V30 66 1 32 62
M  V30 67 1 32 63
M  V30 68 1 33 64
M  V30 69 1 33 65
M  V30 70 1 34 66
M  V30 71 1 35 67
M  V30 END BOND
M  V30 END CTAB
M  END
>  <Dataset>  (499) 
ChEMBL_Kinases

>  <Ligand_Instance>  (499) 
nan

>  <PDB_ID>  (499) 
nan

>  <Standardized_SMILES>  (499) 
Cc1ccc(CN2CCC(CCOc3ccc(-c4nc5cc(C(N)=O)ccc5[nH]4)cc3)CC2)cc1

>  <Name>  (499) 
nan

>  <Pocket>  (499) 
nan

>  <ATP_Site>  (499) 
nan

>  <Peripheral>  (499) 
nan

>  <Num_H_Atoms_ProtBoundConf>  (499) 
nan

>  <Num_Resolved_Atoms>  (499) 
nan

>  <Num_Not_Resolved_Atoms>  (499) 
nan

$$$$
CHEMBL249327
     RDKit          3D

  0  0  0  0  0  0  0  0  0  0999 V3000
M  V30 BEGIN CTAB
M  V30 COUNTS 59 63 0 0 0
M  V30 BEGIN ATOM
M  V30 1 C 3.837137 -3.187630 4.655897 0
M  V30 2 N 4.444896 -1.953623 5.067222 0
M  V30 3 C 5.384283 -1.458216 4.106599 0
M  V30 4 C 3.481364 -0.967623 5.481491 0
M  V30 5 C 2.564359 -0.683992 4.349029 0
M  V30 6 C 2.814776 0.294579 3.420013 0
M  V30 7 C 1.905293 0.489095 2.401844 0
M  V30 8 N 0.755831 -0.228054 2.243782 0
M  V30 9 C -0.233524 -0.165123 1.313772 0
M  V30 10 C -0.199472 0.786017 0.230247 0
M  V30 11 C -0.336358 2.072100 0.770187 0
M  V30 12 C -0.324372 3.195369 -0.056236 0
M  V30 13 N -0.179431 3.001076 -1.361050 0
M  V30 14 C -0.046320 1.746053 -1.882875 0
M  V30 15 N 0.122935 1.596680 -3.283351 0
M  V30 16 C 0.256028 0.426206 -4.088886 0
M  V30 17 C -0.968945 -0.433948 -4.066821 0
M  V30 18 C -1.274725 -1.483801 -3.242851 0
M  V30 19 C -2.475906 -2.140910 -3.404806 0
M  V30 20 C -3.408545 -1.802675 -4.361609 0
M  V30 21 C -3.118980 -0.742127 -5.206540 0
M  V30 22 Cl -4.275790 -0.280576 -6.434615 0
M  V30 23 C -1.906195 -0.096606 -5.025800 0
M  V30 24 N -0.058208 0.651382 -1.080658 0
M  V30 25 C -1.111745 -1.149013 1.706128 0
M  V30 26 C -2.349519 -1.468849 1.007719 0
M  V30 27 C -2.380906 -2.823854 0.667005 0
M  V30 28 C -3.451948 -3.384089 -0.000336 0
M  V30 29 C -4.502855 -2.552681 -0.324064 0
M  V30 30 F -5.614093 -2.953936 -0.973453 0
M  V30 31 C -4.491904 -1.205121 0.004517 0
M  V30 32 C -3.415071 -0.661880 0.670936 0
M  V30 33 N -0.657548 -1.760973 2.816056 0
M  V30 34 C 0.526998 -1.194896 3.178139 0
M  V30 35 C 1.408715 -1.423150 4.211359 0
M  V30 36 H 3.061488 -3.551482 5.327686 0
M  V30 37 H 4.617784 -3.999214 4.632455 0
M  V30 38 H 3.516995 -3.086137 3.589142 0
M  V30 39 H 6.087681 -0.708377 4.522527 0
M  V30 40 H 4.928124 -1.128326 3.161372 0
M  V30 41 H 6.031007 -2.334412 3.815468 0
M  V30 42 H 2.838554 -1.325577 6.311117 0
M  V30 43 H 3.948681 -0.017602 5.789498 0
M  V30 44 H 3.712657 0.906983 3.485139 0
M  V30 45 H 2.162074 1.281475 1.696326 0
M  V30 46 H -0.461630 2.371674 1.818084 0
M  V30 47 H -0.419222 4.211407 0.238824 0
M  V30 48 H 0.158526 2.501959 -3.847224 0
M  V30 49 H 1.120416 -0.203407 -3.697450 0
M  V30 50 H 0.504873 0.654462 -5.133395 0
M  V30 51 H -0.511522 -1.708020 -2.511867 0
M  V30 52 H -2.690539 -2.967848 -2.743962 0
M  V30 53 H -4.342049 -2.346181 -4.455542 0
M  V30 54 H -1.766218 0.720694 -5.733169 0
M  V30 55 H -1.599737 -3.571185 0.877020 0
M  V30 56 H -3.520370 -4.422461 -0.283537 0
M  V30 57 H -5.294446 -0.508017 -0.228243 0
M  V30 58 H -3.265449 0.359291 0.990719 0
M  V30 59 H 1.130935 -2.199849 4.880570 0
M  V30 END ATOM
M  V30 BEGIN BOND
M  V30 1 1 1 2
M  V30 2 1 2 3
M  V30 3 1 2 4
M  V30 4 1 4 5
M  V30 5 1 5 6
M  V30 6 2 6 7
M  V30 7 1 7 8
M  V30 8 1 8 9
M  V30 9 1 9 10
M  V30 10 2 10 11
M  V30 11 1 11 12
M  V30 12 2 12 13
M  V30 13 1 13 14
M  V30 14 1 14 15
M  V30 15 1 15 16
M  V30 16 1 16 17
M  V30 17 2 17 18
M  V30 18 1 18 19
M  V30 19 2 19 20
M  V30 20 1 20 21
M  V30 21 1 21 22
M  V30 22 2 21 23
M  V30 23 2 14 24
M  V30 24 2 9 25
M  V30 25 1 25 26
M  V30 26 2 26 27
M  V30 27 1 27 28
M  V30 28 2 28 29
M  V30 29 1 29 30
M  V30 30 1 29 31
M  V30 31 2 31 32
M  V30 32 1 25 33
M  V30 33 2 33 34
M  V30 34 1 34 35
M  V30 35 2 35 5
M  V30 36 1 34 8
M  V30 37 1 24 10
M  V30 38 1 32 26
M  V30 39 1 23 17
M  V30 40 1 1 36
M  V30 41 1 1 37
M  V30 42 1 1 38
M  V30 43 1 3 39
M  V30 44 1 3 40
M  V30 45 1 3 41
M  V30 46 1 4 42
M  V30 47 1 4 43
M  V30 48 1 6 44
M  V30 49 1 7 45
M  V30 50 1 11 46
M  V30 51 1 12 47
M  V30 52 1 15 48
M  V30 53 1 16 49
M  V30 54 1 16 50
M  V30 55 1 18 51
M  V30 56 1 19 52
M  V30 57 1 20 53
M  V30 58 1 23 54
M  V30 59 1 27 55
M  V30 60 1 28 56
M  V30 61 1 31 57
M  V30 62 1 32 58
M  V30 63 1 35 59
M  V30 END BOND
M  V30 END CTAB
M  END
>  <Dataset>  (500) 
ChEMBL_Kinases

>  <Ligand_Instance>  (500) 
nan

>  <PDB_ID>  (500) 
nan

>  <Standardized_SMILES>  (500) 
CN(C)Cc1ccn2c(-c3ccnc(NCc4cccc(Cl)c4)n3)c(-c3ccc(F)cc3)nc2c1

>  <Name>  (500) 
nan

>  <Pocket>  (500) 
nan

>  <ATP_Site>  (500) 
nan

>  <Peripheral>  (500) 
nan

>  <Num_H_Atoms_ProtBoundConf>  (500) 
nan

>  <Num_Resolved_Atoms>  (500) 
nan

>  <Num_Not_Resolved_Atoms>  (500) 
nan

$$$$
CHEMBL248993
     RDKit          3D

  0  0  0  0  0  0  0  0  0  0999 V3000
M  V30 BEGIN CTAB
M  V30 COUNTS 25 27 0 0 0
M  V30 BEGIN ATOM
M  V30 1 N -1.022434 -3.498268 3.834633 0
M  V30 2 C -0.625943 -2.763543 3.016655 0
M  V30 3 C -0.154878 -1.875849 2.010177 0
M  V30 4 C 0.541881 -2.370823 0.931928 0
M  V30 5 C 0.988358 -1.493713 -0.030148 0
M  V30 6 C 1.682044 -2.030622 -1.093603 0
M  V30 7 C 2.119065 -1.142155 -2.042079 0
M  V30 8 N 1.914857 0.188107 -1.995153 0
M  V30 9 C 1.236603 0.692509 -0.950697 0
M  V30 10 O 1.124333 1.928525 -1.039487 0
M  V30 11 C 0.777224 -0.143828 0.024162 0
M  V30 12 C 0.089639 0.366178 1.083322 0
M  V30 13 C -0.161178 1.704983 1.207995 0
M  V30 14 C -0.855639 2.211764 2.279668 0
M  V30 15 Br -1.263345 4.055034 2.557987 0
M  V30 16 C -1.290271 1.292513 3.231062 0
M  V30 17 C -1.072003 -0.069460 3.167274 0
M  V30 18 C -0.362940 -0.496930 2.052650 0
M  V30 19 H 0.717004 -3.444824 0.876493 0
M  V30 20 H 1.877399 -3.091340 -1.186587 0
M  V30 21 H 2.666505 -1.578002 -2.878553 0
M  V30 22 H 2.315194 0.738484 -2.804162 0
M  V30 23 H 0.122157 2.488625 0.545934 0
M  V30 24 H -1.845646 1.653450 4.098195 0
M  V30 25 H -1.432539 -0.725450 3.932298 0
M  V30 END ATOM
M  V30 BEGIN BOND
M  V30 1 3 1 2
M  V30 2 1 2 3
M  V30 3 2 3 4
M  V30 4 1 4 5
M  V30 5 1 5 6
M  V30 6 2 6 7
M  V30 7 1 7 8
M  V30 8 1 8 9
M  V30 9 2 9 10
M  V30 10 1 9 11
M  V30 11 1 11 12
M  V30 12 2 12 13
M  V30 13 1 13 14
M  V30 14 1 14 15
M  V30 15 2 14 16
M  V30 16 1 16 17
M  V30 17 2 17 18
M  V30 18 1 18 3
M  V30 19 2 11 5
M  V30 20 1 18 12
M  V30 21 1 4 19
M  V30 22 1 6 20
M  V30 23 1 7 21
M  V30 24 1 8 22
M  V30 25 1 13 23
M  V30 26 1 16 24
M  V30 27 1 17 25
M  V30 END BOND
M  V30 END CTAB
M  END
>  <Dataset>  (501) 
ChEMBL_Kinases

>  <Ligand_Instance>  (501) 
nan

>  <PDB_ID>  (501) 
nan

>  <Standardized_SMILES>  (501) 
N#Cc1cc2cc[nH]c(=O)c2c2cc(Br)ccc12

>  <Name>  (501) 
nan

>  <Pocket>  (501) 
nan

>  <ATP_Site>  (501) 
nan

>  <Peripheral>  (501) 
nan

>  <Num_H_Atoms_ProtBoundConf>  (501) 
nan

>  <Num_Resolved_Atoms>  (501) 
nan

>  <Num_Not_Resolved_Atoms>  (501) 
nan

$$$$
CHEMBL248995
     RDKit          3D

  0  0  0  0  0  0  0  0  0  0999 V3000
M  V30 BEGIN CTAB
M  V30 COUNTS 30 32 0 0 0
M  V30 BEGIN ATOM
M  V30 1 C -0.373191 -3.097838 4.935817 0
M  V30 2 O -0.331000 -2.037440 4.016306 0
M  V30 3 C 0.025901 -2.208306 2.699187 0
M  V30 4 O 0.209832 -3.444455 2.829617 0
M  V30 5 C 0.192478 -1.456081 1.498251 0
M  V30 6 C 0.593085 -2.188441 0.400983 0
M  V30 7 C 0.777072 -1.539518 -0.797413 0
M  V30 8 C 1.184543 -2.307846 -1.897092 0
M  V30 9 C 1.356715 -1.616753 -3.077748 0
M  V30 10 N 1.152315 -0.271315 -3.202837 0
M  V30 11 C 0.758715 0.453991 -2.128700 0
M  V30 12 O 0.635389 1.601159 -2.440589 0
M  V30 13 C 0.574053 -0.186008 -0.933745 0
M  V30 14 C 0.176296 0.562432 0.140721 0
M  V30 15 C -0.033440 1.911727 0.034387 0
M  V30 16 C -0.435226 2.655585 1.128246 0
M  V30 17 Cl -0.739327 4.378895 1.138350 0
M  V30 18 C -0.616851 1.975347 2.339183 0
M  V30 19 C -0.403145 0.616758 2.436098 0
M  V30 20 C -0.002860 -0.103319 1.331513 0
M  V30 21 H -0.440551 -2.624020 5.959466 0
M  V30 22 H 0.528056 -3.747130 4.929798 0
M  V30 23 H -1.289049 -3.722290 4.874945 0
M  V30 24 H 0.772189 -3.265491 0.438817 0
M  V30 25 H 1.345829 -3.361348 -1.804098 0
M  V30 26 H 1.670794 -2.241530 -3.902448 0
M  V30 27 H 1.340680 0.061124 -4.195924 0
M  V30 28 H 0.064889 2.520515 -0.790705 0
M  V30 29 H -0.930549 2.511651 3.224568 0
M  V30 30 H -0.560765 0.152805 3.397952 0
M  V30 END ATOM
M  V30 BEGIN BOND
M  V30 1 1 1 2
M  V30 2 1 2 3
M  V30 3 2 3 4
M  V30 4 1 3 5
M  V30 5 2 5 6
M  V30 6 1 6 7
M  V30 7 1 7 8
M  V30 8 2 8 9
M  V30 9 1 9 10
M  V30 10 1 10 11
M  V30 11 2 11 12
M  V30 12 1 11 13
M  V30 13 1 13 14
M  V30 14 2 14 15
M  V30 15 1 15 16
M  V30 16 1 16 17
M  V30 17 2 16 18
M  V30 18 1 18 19
M  V30 19 2 19 20
M  V30 20 1 20 5
M  V30 21 2 13 7
M  V30 22 1 20 14
M  V30 23 1 1 21
M  V30 24 1 1 22
M  V30 25 1 1 23
M  V30 26 1 6 24
M  V30 27 1 8 25
M  V30 28 1 9 26
M  V30 29 1 10 27
M  V30 30 1 15 28
M  V30 31 1 18 29
M  V30 32 1 19 30
M  V30 END BOND
M  V30 END CTAB
M  END
>  <Dataset>  (502) 
ChEMBL_Kinases

>  <Ligand_Instance>  (502) 
nan

>  <PDB_ID>  (502) 
nan

>  <Standardized_SMILES>  (502) 
COC(=O)c1cc2cc[nH]c(=O)c2c2cc(Cl)ccc12

>  <Name>  (502) 
nan

>  <Pocket>  (502) 
nan

>  <ATP_Site>  (502) 
nan

>  <Peripheral>  (502) 
nan

>  <Num_H_Atoms_ProtBoundConf>  (502) 
nan

>  <Num_Resolved_Atoms>  (502) 
nan

>  <Num_Not_Resolved_Atoms>  (502) 
nan

$$$$
CHEMBL249044
     RDKit          3D

  0  0  0  0  0  0  0  0  0  0999 V3000
M  V30 BEGIN CTAB
M  V30 COUNTS 42 45 0 0 0
M  V30 BEGIN ATOM
M  V30 1 N -2.121819 -3.688410 -2.041178 0
M  V30 2 C -1.074352 -3.282856 -1.087151 0
M  V30 3 C 0.284351 -3.493798 -1.629915 0
M  V30 4 C 1.452004 -3.127086 -0.789429 0
M  V30 5 C 1.531699 -1.731785 -0.363537 0
M  V30 6 C 2.269640 -0.918201 -1.236994 0
M  V30 7 C 2.356742 0.442080 -0.983205 0
M  V30 8 C 3.077983 1.253708 -1.845768 0
M  V30 9 Br 3.952738 0.478264 -3.377135 0
M  V30 10 C 3.160290 2.602743 -1.599278 0
M  V30 11 N 2.552452 3.177061 -0.526598 0
M  V30 12 C 1.859289 2.373650 0.295836 0
M  V30 13 O 1.370059 3.056951 1.218119 0
M  V30 14 C 1.747259 1.025531 0.093930 0
M  V30 15 C 1.032955 0.253181 0.947514 0
M  V30 16 C 0.418421 0.788902 2.044970 0
M  V30 17 C -0.300746 0.017730 2.933017 0
M  V30 18 C -0.992909 0.475944 4.132873 0
M  V30 19 C -2.155325 -0.100820 4.653024 0
M  V30 20 N -2.482920 0.584065 5.747765 0
M  V30 21 N -1.646061 1.555337 5.995180 0
M  V30 22 C -0.726965 1.503646 5.015790 0
M  V30 23 C -0.364779 -1.350817 2.645972 0
M  V30 24 C 0.247034 -1.913096 1.543652 0
M  V30 25 C 0.949402 -1.093513 0.692087 0
M  V30 26 H -3.049048 -3.366086 -1.670800 0
M  V30 27 H -2.136972 -4.730502 -2.007541 0
M  V30 28 H -1.268526 -3.941520 -0.206748 0
M  V30 29 H -1.310372 -2.211571 -0.870589 0
M  V30 30 H 0.411980 -4.573466 -1.927070 0
M  V30 31 H 0.324600 -2.965302 -2.630924 0
M  V30 32 H 2.371268 -3.446789 -1.361293 0
M  V30 33 H 1.505264 -3.765880 0.128872 0
M  V30 34 H 2.789502 -1.315350 -2.124061 0
M  V30 35 H 3.730426 3.157724 -2.304795 0
M  V30 36 H 2.702453 4.206143 -0.472424 0
M  V30 37 H 0.398466 1.806053 2.365731 0
M  V30 38 H -2.642306 -0.949019 4.192087 0
M  V30 39 H -1.712313 2.215601 6.798912 0
M  V30 40 H 0.117556 2.161270 4.902059 0
M  V30 41 H -0.922275 -2.001596 3.324385 0
M  V30 42 H 0.158747 -2.960668 1.416368 0
M  V30 END ATOM
M  V30 BEGIN BOND
M  V30 1 1 1 2
M  V30 2 1 2 3
M  V30 3 1 3 4
M  V30 4 1 4 5
M  V30 5 2 5 6
M  V30 6 1 6 7
M  V30 7 1 7 8
M  V30 8 1 8 9
M  V30 9 2 8 10
M  V30 10 1 10 11
M  V30 11 1 11 12
M  V30 12 2 12 13
M  V30 13 1 12 14
M  V30 14 1 14 15
M  V30 15 2 15 16
M  V30 16 1 16 17
M  V30 17 1 17 18
M  V30 18 1 18 19
M  V30 19 2 19 20
M  V30 20 1 20 21
M  V30 21 1 21 22
M  V30 22 2 17 23
M  V30 23 1 23 24
M  V30 24 2 24 25
M  V30 25 1 25 5
M  V30 26 2 14 7
M  V30 27 1 25 15
M  V30 28 2 22 18
M  V30 29 1 1 26
M  V30 30 1 1 27
M  V30 31 1 2 28
M  V30 32 1 2 29
M  V30 33 1 3 30
M  V30 34 1 3 31
M  V30 35 1 4 32
M  V30 36 1 4 33
M  V30 37 1 6 34
M  V30 38 1 10 35
M  V30 39 1 11 36
M  V30 40 1 16 37
M  V30 41 1 19 38
M  V30 42 1 21 39
M  V30 43 1 22 40
M  V30 44 1 23 41
M  V30 45 1 24 42
M  V30 END BOND
M  V30 END CTAB
M  END
>  <Dataset>  (503) 
ChEMBL_Kinases

>  <Ligand_Instance>  (503) 
nan

>  <PDB_ID>  (503) 
nan

>  <Standardized_SMILES>  (503) 
NCCCc1cc2c(Br)c[nH]c(=O)c2c2cc(-c3cn[nH]c3)ccc12

>  <Name>  (503) 
nan

>  <Pocket>  (503) 
nan

>  <ATP_Site>  (503) 
nan

>  <Peripheral>  (503) 
nan

>  <Num_H_Atoms_ProtBoundConf>  (503) 
nan

>  <Num_Resolved_Atoms>  (503) 
nan

>  <Num_Not_Resolved_Atoms>  (503) 
nan

$$$$
CHEMBL249102
     RDKit          3D

  0  0  0  0  0  0  0  0  0  0999 V3000
M  V30 BEGIN CTAB
M  V30 COUNTS 44 47 0 0 0
M  V30 BEGIN ATOM
M  V30 1 C 1.217742 -7.778601 1.008614 0
M  V30 2 O 0.572304 -6.532370 0.833189 0
M  V30 3 C 1.317959 -5.365074 0.918574 0
M  V30 4 C 2.675441 -5.358165 1.169306 0
M  V30 5 C 3.448134 -4.218814 1.260951 0
M  V30 6 C 2.810768 -3.008712 1.088651 0
M  V30 7 C 1.457426 -3.002047 0.838075 0
M  V30 8 C 0.742848 -1.667863 0.645945 0
M  V30 9 C 1.192153 -0.419659 0.673025 0
M  V30 10 C 0.279629 0.541300 0.461058 0
M  V30 11 N 0.576380 1.881554 0.455780 0
M  V30 12 C -0.365788 2.805300 0.239997 0
M  V30 13 N -0.006787 4.200525 0.238118 0
M  V30 14 C 1.334208 4.699608 0.466396 0
M  V30 15 C 1.778961 4.318573 1.858263 0
M  V30 16 N 3.116490 4.793016 2.147257 0
M  V30 17 C -1.708708 2.488417 0.005775 0
M  V30 18 N -2.848716 3.129626 -0.233934 0
M  V30 19 C -3.867664 2.251975 -0.383046 0
M  V30 20 C -3.277105 0.993354 -0.217269 0
M  V30 21 C -3.987668 -0.319988 -0.289767 0
M  V30 22 N -1.965150 1.175970 0.017261 0
M  V30 23 C -0.977958 0.221768 0.242743 0
M  V30 24 S -0.958927 -1.496736 0.323425 0
M  V30 25 C 0.704410 -4.140529 0.750029 0
M  V30 26 H 0.423397 -8.560095 0.941186 0
M  V30 27 H 1.948786 -7.990856 0.201582 0
M  V30 28 H 1.765805 -7.832086 1.975800 0
M  V30 29 H 3.139779 -6.342344 1.299452 0
M  V30 30 H 4.507780 -4.282647 1.459793 0
M  V30 31 H 3.356110 -2.082147 1.147822 0
M  V30 32 H 2.279032 -0.325465 0.869870 0
M  V30 33 H -0.766265 4.915738 0.058935 0
M  V30 34 H 1.339263 5.798138 0.428308 0
M  V30 35 H 2.064397 4.251958 -0.245047 0
M  V30 36 H 1.700950 3.234464 2.015295 0
M  V30 37 H 1.099107 4.885983 2.558180 0
M  V30 38 H 3.790703 4.598496 1.402225 0
M  V30 39 H 3.365647 4.513241 3.104137 0
M  V30 40 H -4.905925 2.484198 -0.585564 0
M  V30 41 H -4.884563 -0.269057 -0.928507 0
M  V30 42 H -4.381900 -0.609037 0.724191 0
M  V30 43 H -3.343311 -1.132211 -0.620486 0
M  V30 44 H -0.361289 -4.119518 0.551998 0
M  V30 END ATOM
M  V30 BEGIN BOND
M  V30 1 1 1 2
M  V30 2 1 2 3
M  V30 3 2 3 4
M  V30 4 1 4 5
M  V30 5 2 5 6
M  V30 6 1 6 7
M  V30 7 1 7 8
M  V30 8 2 8 9
M  V30 9 1 9 10
M  V30 10 1 10 11
M  V30 11 2 11 12
M  V30 12 1 12 13
M  V30 13 1 13 14
M  V30 14 1 14 15
M  V30 15 1 15 16
M  V30 16 1 12 17
M  V30 17 2 17 18
M  V30 18 1 18 19
M  V30 19 2 19 20
M  V30 20 1 20 21
M  V30 21 1 20 22
M  V30 22 1 22 23
M  V30 23 1 23 24
M  V30 24 2 7 25
M  V30 25 1 25 3
M  V30 26 1 24 8
M  V30 27 2 23 10
M  V30 28 1 22 17
M  V30 29 1 1 26
M  V30 30 1 1 27
M  V30 31 1 1 28
M  V30 32 1 4 29
M  V30 33 1 5 30
M  V30 34 1 6 31
M  V30 35 1 9 32
M  V30 36 1 13 33
M  V30 37 1 14 34
M  V30 38 1 14 35
M  V30 39 1 15 36
M  V30 40 1 15 37
M  V30 41 1 16 38
M  V30 42 1 16 39
M  V30 43 1 19 40
M  V30 44 1 21 41
M  V30 45 1 21 42
M  V30 46 1 21 43
M  V30 47 1 25 44
M  V30 END BOND
M  V30 END CTAB
M  END
>  <Dataset>  (504) 
ChEMBL_Kinases

>  <Ligand_Instance>  (504) 
nan

>  <PDB_ID>  (504) 
nan

>  <Standardized_SMILES>  (504) 
COc1cccc(-c2cc3nc(NCCN)c4ncc(C)n4c3s2)c1

>  <Name>  (504) 
nan

>  <Pocket>  (504) 
nan

>  <ATP_Site>  (504) 
nan

>  <Peripheral>  (504) 
nan

>  <Num_H_Atoms_ProtBoundConf>  (504) 
nan

>  <Num_Resolved_Atoms>  (504) 
nan

>  <Num_Not_Resolved_Atoms>  (504) 
nan

$$$$
CHEMBL249103
     RDKit          3D

  0  0  0  0  0  0  0  0  0  0999 V3000
M  V30 BEGIN CTAB
M  V30 COUNTS 44 47 0 0 0
M  V30 BEGIN ATOM
M  V30 1 C -1.473235 -6.807380 4.791165 0
M  V30 2 O -1.413987 -5.411240 4.961252 0
M  V30 3 C -1.063874 -4.516393 3.940674 0
M  V30 4 C -1.080498 -3.184207 4.367698 0
M  V30 5 C -0.745208 -2.229649 3.417197 0
M  V30 6 C -0.415607 -2.587861 2.125772 0
M  V30 7 C -0.080096 -1.543072 1.199101 0
M  V30 8 C -0.011420 -0.218352 1.314702 0
M  V30 9 C 0.341925 0.564983 0.251461 0
M  V30 10 N 0.468187 1.895310 0.160027 0
M  V30 11 C 0.820168 2.523965 -0.940973 0
M  V30 12 N 0.911616 3.939693 -0.921182 0
M  V30 13 C 0.693068 4.892019 0.143047 0
M  V30 14 C 1.682829 4.762762 1.259683 0
M  V30 15 N 1.685924 3.480797 1.921423 0
M  V30 16 C 1.094825 1.836013 -2.123830 0
M  V30 17 N 1.464929 2.177256 -3.369380 0
M  V30 18 C 1.590743 1.063965 -4.130512 0
M  V30 19 C 1.281327 0.008927 -3.300671 0
M  V30 20 C 1.273204 -1.440221 -3.669441 0
M  V30 21 N 0.985922 0.508810 -2.094349 0
M  V30 22 C 0.617446 -0.104429 -0.929451 0
M  V30 23 S 0.375968 -1.859552 -0.538080 0
M  V30 24 C -0.403187 -3.904131 1.718350 0
M  V30 25 C -0.733676 -4.869108 2.648603 0
M  V30 26 H -2.462883 -7.197169 4.530721 0
M  V30 27 H -0.754451 -7.179883 4.021724 0
M  V30 28 H -1.085986 -7.246023 5.754491 0
M  V30 29 H -1.334628 -2.875212 5.372456 0
M  V30 30 H -0.748520 -1.190233 3.715441 0
M  V30 31 H -0.253768 0.199386 2.306420 0
M  V30 32 H 1.189225 4.398881 -1.842564 0
M  V30 33 H 0.737754 5.939595 -0.214670 0
M  V30 34 H -0.367109 4.797870 0.539232 0
M  V30 35 H 1.488718 5.510817 2.071866 0
M  V30 36 H 2.698980 5.037980 0.883267 0
M  V30 37 H 2.657613 3.252191 2.223882 0
M  V30 38 H 0.978341 3.386134 2.653483 0
M  V30 39 H 1.874308 0.993810 -5.175911 0
M  V30 40 H 1.679213 -1.547131 -4.679807 0
M  V30 41 H 1.892248 -1.995895 -2.931143 0
M  V30 42 H 0.239486 -1.836438 -3.691000 0
M  V30 43 H -0.148547 -4.178907 0.721164 0
M  V30 44 H -0.749403 -5.919494 2.416251 0
M  V30 END ATOM
M  V30 BEGIN BOND
M  V30 1 1 1 2
M  V30 2 1 2 3
M  V30 3 2 3 4
M  V30 4 1 4 5
M  V30 5 2 5 6
M  V30 6 1 6 7
M  V30 7 2 7 8
M  V30 8 1 8 9
M  V30 9 1 9 10
M  V30 10 2 10 11
M  V30 11 1 11 12
M  V30 12 1 12 13
M  V30 13 1 13 14
M  V30 14 1 14 15
M  V30 15 1 11 16
M  V30 16 2 16 17
M  V30 17 1 17 18
M  V30 18 2 18 19
M  V30 19 1 19 20
M  V30 20 1 19 21
M  V30 21 1 21 22
M  V30 22 1 22 23
M  V30 23 1 6 24
M  V30 24 2 24 25
M  V30 25 1 25 3
M  V30 26 1 23 7
M  V30 27 2 22 9
M  V30 28 1 21 16
M  V30 29 1 1 26
M  V30 30 1 1 27
M  V30 31 1 1 28
M  V30 32 1 4 29
M  V30 33 1 5 30
M  V30 34 1 8 31
M  V30 35 1 12 32
M  V30 36 1 13 33
M  V30 37 1 13 34
M  V30 38 1 14 35
M  V30 39 1 14 36
M  V30 40 1 15 37
M  V30 41 1 15 38
M  V30 42 1 18 39
M  V30 43 1 20 40
M  V30 44 1 20 41
M  V30 45 1 20 42
M  V30 46 1 24 43
M  V30 47 1 25 44
M  V30 END BOND
M  V30 END CTAB
M  END
>  <Dataset>  (505) 
ChEMBL_Kinases

>  <Ligand_Instance>  (505) 
nan

>  <PDB_ID>  (505) 
nan

>  <Standardized_SMILES>  (505) 
COc1ccc(-c2cc3nc(NCCN)c4ncc(C)n4c3s2)cc1

>  <Name>  (505) 
nan

>  <Pocket>  (505) 
nan

>  <ATP_Site>  (505) 
nan

>  <Peripheral>  (505) 
nan

>  <Num_H_Atoms_ProtBoundConf>  (505) 
nan

>  <Num_Resolved_Atoms>  (505) 
nan

>  <Num_Not_Resolved_Atoms>  (505) 
nan

$$$$
CHEMBL249104
     RDKit          3D

  0  0  0  0  0  0  0  0  0  0999 V3000
M  V30 BEGIN CTAB
M  V30 COUNTS 44 47 0 0 0
M  V30 BEGIN ATOM
M  V30 1 C -2.120845 -3.711441 1.745991 0
M  V30 2 C -1.125130 -3.931986 0.669207 0
M  V30 3 C -0.930436 -5.075839 -0.074414 0
M  V30 4 N 0.076127 -4.799479 -0.921833 0
M  V30 5 C 0.501415 -3.546994 -0.729995 0
M  V30 6 C 1.482804 -2.717932 -1.285436 0
M  V30 7 N 2.306091 -3.232035 -2.322270 0
M  V30 8 C 3.372287 -2.647436 -3.083151 0
M  V30 9 C 2.878487 -1.523593 -3.948724 0
M  V30 10 N 2.284776 -0.440201 -3.245115 0
M  V30 11 N 1.673624 -1.463051 -0.863931 0
M  V30 12 C 0.947646 -0.899717 0.116549 0
M  V30 13 C 1.029438 0.346176 0.639890 0
M  V30 14 C 0.209622 0.709345 1.614873 0
M  V30 15 C 0.083328 1.987377 2.356723 0
M  V30 16 C 0.913694 3.065147 2.068404 0
M  V30 17 C 0.738734 4.224404 2.800273 0
M  V30 18 C -0.217025 4.339964 3.788591 0
M  V30 19 C -1.034005 3.233995 4.050176 0
M  V30 20 C -2.083630 3.340265 5.125196 0
M  V30 21 O -1.461992 2.927013 6.307142 0
M  V30 22 C -0.872732 2.083905 3.336099 0
M  V30 23 S -0.805778 -0.718479 1.913611 0
M  V30 24 C -0.005278 -1.738164 0.639681 0
M  V30 25 N -0.243959 -3.022988 0.250347 0
M  V30 26 H -2.756394 -2.820894 1.580669 0
M  V30 27 H -2.839574 -4.581724 1.766603 0
M  V30 28 H -1.647603 -3.719853 2.764564 0
M  V30 29 H -1.481177 -6.001395 0.014419 0
M  V30 30 H 2.119443 -4.241842 -2.612636 0
M  V30 31 H 4.140083 -2.272432 -2.334528 0
M  V30 32 H 3.899025 -3.351424 -3.730279 0
M  V30 33 H 3.759402 -1.121375 -4.520617 0
M  V30 34 H 2.142209 -1.988879 -4.662767 0
M  V30 35 H 1.382736 -0.167886 -3.667962 0
M  V30 36 H 2.965858 0.334314 -3.120355 0
M  V30 37 H 1.756138 1.103270 0.297899 0
M  V30 38 H 1.648831 2.925802 1.283695 0
M  V30 39 H 1.393009 5.060761 2.566885 0
M  V30 40 H -0.349046 5.237177 4.351745 0
M  V30 41 H -2.510433 4.344560 5.206077 0
M  V30 42 H -2.867121 2.583204 4.840385 0
M  V30 43 H -1.400292 1.953453 6.300592 0
M  V30 44 H -1.554473 1.266087 3.605317 0
M  V30 END ATOM
M  V30 BEGIN BOND
M  V30 1 1 1 2
M  V30 2 2 2 3
M  V30 3 1 3 4
M  V30 4 2 4 5
M  V30 5 1 5 6
M  V30 6 1 6 7
M  V30 7 1 7 8
M  V30 8 1 8 9
M  V30 9 1 9 10
M  V30 10 2 6 11
M  V30 11 1 11 12
M  V30 12 1 12 13
M  V30 13 2 13 14
M  V30 14 1 14 15
M  V30 15 2 15 16
M  V30 16 1 16 17
M  V30 17 2 17 18
M  V30 18 1 18 19
M  V30 19 1 19 20
M  V30 20 1 20 21
M  V30 21 2 19 22
M  V30 22 1 14 23
M  V30 23 1 23 24
M  V30 24 1 24 25
M  V30 25 1 25 2
M  V30 26 1 25 5
M  V30 27 2 24 12
M  V30 28 1 22 15
M  V30 29 1 1 26
M  V30 30 1 1 27
M  V30 31 1 1 28
M  V30 32 1 3 29
M  V30 33 1 7 30
M  V30 34 1 8 31
M  V30 35 1 8 32
M  V30 36 1 9 33
M  V30 37 1 9 34
M  V30 38 1 10 35
M  V30 39 1 10 36
M  V30 40 1 13 37
M  V30 41 1 16 38
M  V30 42 1 17 39
M  V30 43 1 18 40
M  V30 44 1 20 41
M  V30 45 1 20 42
M  V30 46 1 21 43
M  V30 47 1 22 44
M  V30 END BOND
M  V30 END CTAB
M  END
>  <Dataset>  (506) 
ChEMBL_Kinases

>  <Ligand_Instance>  (506) 
nan

>  <PDB_ID>  (506) 
nan

>  <Standardized_SMILES>  (506) 
Cc1cnc2c(NCCN)nc3cc(-c4cccc(CO)c4)sc3n12

>  <Name>  (506) 
nan

>  <Pocket>  (506) 
nan

>  <ATP_Site>  (506) 
nan

>  <Peripheral>  (506) 
nan

>  <Num_H_Atoms_ProtBoundConf>  (506) 
nan

>  <Num_Resolved_Atoms>  (506) 
nan

>  <Num_Not_Resolved_Atoms>  (506) 
nan

$$$$
CHEMBL249141
     RDKit          3D

  0  0  0  0  0  0  0  0  0  0999 V3000
M  V30 BEGIN CTAB
M  V30 COUNTS 31 33 0 0 0
M  V30 BEGIN ATOM
M  V30 1 C -3.871529 -1.061721 1.964724 0
M  V30 2 C -2.434633 -0.644640 1.843623 0
M  V30 3 C -1.496446 -1.656381 1.912659 0
M  V30 4 C -0.193465 -1.258493 1.800988 0
M  V30 5 N 0.839788 -2.237296 1.865728 0
M  V30 6 C 1.178863 -2.864661 0.608110 0
M  V30 7 C 1.613212 -1.826125 -0.358221 0
M  V30 8 C 2.945040 -1.485255 -0.425959 0
M  V30 9 C 3.256638 -0.499074 -1.366055 0
M  V30 10 C 2.239243 0.045600 -2.134547 0
M  V30 11 N 0.968143 -0.325509 -2.022623 0
M  V30 12 C 0.614437 -1.256929 -1.147613 0
M  V30 13 N 0.131883 0.042366 1.634782 0
M  V30 14 N 1.287275 0.659960 1.506305 0
M  V30 15 C 1.111843 1.969007 1.365365 0
M  V30 16 C -0.233927 2.248819 1.400474 0
M  V30 17 Br -1.054052 3.966287 1.246883 0
M  V30 18 C -0.802291 0.988262 1.573266 0
M  V30 19 N -2.116442 0.655757 1.677964 0
M  V30 20 H -4.071928 -1.187924 3.042861 0
M  V30 21 H -4.497637 -0.306263 1.470452 0
M  V30 22 H -3.975299 -2.058857 1.483851 0
M  V30 23 H -1.754500 -2.699349 2.045903 0
M  V30 24 H 1.273766 -2.437600 2.771794 0
M  V30 25 H 1.955479 -3.624996 0.793294 0
M  V30 26 H 0.304919 -3.387743 0.198550 0
M  V30 27 H 3.651909 -1.990185 0.237268 0
M  V30 28 H 4.305517 -0.219184 -1.430098 0
M  V30 29 H 2.501058 0.808895 -2.856658 0
M  V30 30 H -0.420848 -1.587387 -1.029420 0
M  V30 31 H 1.898619 2.706307 1.241816 0
M  V30 END ATOM
M  V30 BEGIN BOND
M  V30 1 1 1 2
M  V30 2 1 2 3
M  V30 3 2 3 4
M  V30 4 1 4 5
M  V30 5 1 5 6
M  V30 6 1 6 7
M  V30 7 2 7 8
M  V30 8 1 8 9
M  V30 9 2 9 10
M  V30 10 1 10 11
M  V30 11 2 11 12
M  V30 12 1 4 13
M  V30 13 1 13 14
M  V30 14 2 14 15
M  V30 15 1 15 16
M  V30 16 1 16 17
M  V30 17 2 16 18
M  V30 18 1 18 19
M  V30 19 2 19 2
M  V30 20 1 12 7
M  V30 21 1 18 13
M  V30 22 1 1 20
M  V30 23 1 1 21
M  V30 24 1 1 22
M  V30 25 1 3 23
M  V30 26 1 5 24
M  V30 27 1 6 25
M  V30 28 1 6 26
M  V30 29 1 8 27
M  V30 30 1 9 28
M  V30 31 1 10 29
M  V30 32 1 12 30
M  V30 33 1 15 31
M  V30 END BOND
M  V30 END CTAB
M  END
>  <Dataset>  (507) 
ChEMBL_Kinases

>  <Ligand_Instance>  (507) 
nan

>  <PDB_ID>  (507) 
nan

>  <Standardized_SMILES>  (507) 
Cc1cc(NCc2cccnc2)n2ncc(Br)c2n1

>  <Name>  (507) 
nan

>  <Pocket>  (507) 
nan

>  <ATP_Site>  (507) 
nan

>  <Peripheral>  (507) 
nan

>  <Num_H_Atoms_ProtBoundConf>  (507) 
nan

>  <Num_Resolved_Atoms>  (507) 
nan

>  <Num_Not_Resolved_Atoms>  (507) 
nan

$$$$
CHEMBL249165
     RDKit          3D

  0  0  0  0  0  0  0  0  0  0999 V3000
M  V30 BEGIN CTAB
M  V30 COUNTS 32 34 0 0 0
M  V30 BEGIN ATOM
M  V30 1 C -1.922331 -2.261709 5.907195 0
M  V30 2 S -0.789595 -3.075936 4.750428 0
M  V30 3 C -0.451218 -2.052930 3.342902 0
M  V30 4 C 0.367937 -2.438430 2.311521 0
M  V30 5 C 0.557724 -1.541107 1.265153 0
M  V30 6 N 1.368711 -1.813639 0.163275 0
M  V30 7 C 1.506288 -2.029932 -1.254475 0
M  V30 8 C 1.085614 -0.825311 -2.028531 0
M  V30 9 C 2.110156 0.120889 -2.111442 0
M  V30 10 C 1.929858 1.313778 -2.799137 0
M  V30 11 C 0.667420 1.449776 -3.370511 0
M  V30 12 N -0.291656 0.531620 -3.275499 0
M  V30 13 C -0.138947 -0.621697 -2.617157 0
M  V30 14 N -0.054007 -0.321955 1.274205 0
M  V30 15 N -0.061150 0.700214 0.419925 0
M  V30 16 C -0.841819 1.680933 0.889436 0
M  V30 17 C -1.378661 1.306094 2.102832 0
M  V30 18 Br -2.551352 2.277801 3.241902 0
M  V30 19 C -0.854181 0.041737 2.296390 0
M  V30 20 N -1.021978 -0.841510 3.290906 0
M  V30 21 H -1.387567 -1.630480 6.655096 0
M  V30 22 H -2.587244 -2.994807 6.392795 0
M  V30 23 H -2.513854 -1.532237 5.295178 0
M  V30 24 H 0.856706 -3.407246 2.314821 0
M  V30 25 H 2.323237 -1.901697 0.637383 0
M  V30 26 H 0.846415 -2.866863 -1.576713 0
M  V30 27 H 2.513437 -2.301825 -1.568403 0
M  V30 28 H 3.089494 0.006916 -1.659138 0
M  V30 29 H 2.684030 2.076975 -2.890190 0
M  V30 30 H 0.513099 2.397170 -3.919037 0
M  V30 31 H -0.841804 -1.423055 -2.484226 0
M  V30 32 H -1.034876 2.634163 0.410488 0
M  V30 END ATOM
M  V30 BEGIN BOND
M  V30 1 1 1 2
M  V30 2 1 2 3
M  V30 3 1 3 4
M  V30 4 2 4 5
M  V30 5 1 5 6
M  V30 6 1 6 7
M  V30 7 1 7 8
M  V30 8 2 8 9
M  V30 9 1 9 10
M  V30 10 2 10 11
M  V30 11 1 11 12
M  V30 12 2 12 13
M  V30 13 1 5 14
M  V30 14 1 14 15
M  V30 15 2 15 16
M  V30 16 1 16 17
M  V30 17 1 17 18
M  V30 18 2 17 19
M  V30 19 1 19 20
M  V30 20 2 20 3
M  V30 21 1 13 8
M  V30 22 1 19 14
M  V30 23 1 1 21
M  V30 24 1 1 22
M  V30 25 1 1 23
M  V30 26 1 4 24
M  V30 27 1 6 25
M  V30 28 1 7 26
M  V30 29 1 7 27
M  V30 30 1 9 28
M  V30 31 1 10 29
M  V30 32 1 11 30
M  V30 33 1 13 31
M  V30 34 1 16 32
M  V30 END BOND
M  V30 END CTAB
M  END
>  <Dataset>  (508) 
ChEMBL_Kinases

>  <Ligand_Instance>  (508) 
nan

>  <PDB_ID>  (508) 
nan

>  <Standardized_SMILES>  (508) 
CSc1cc(NCc2cccnc2)n2ncc(Br)c2n1

>  <Name>  (508) 
nan

>  <Pocket>  (508) 
nan

>  <ATP_Site>  (508) 
nan

>  <Peripheral>  (508) 
nan

>  <Num_H_Atoms_ProtBoundConf>  (508) 
nan

>  <Num_Resolved_Atoms>  (508) 
nan

>  <Num_Not_Resolved_Atoms>  (508) 
nan

$$$$
CHEMBL249326
     RDKit          3D

  0  0  0  0  0  0  0  0  0  0999 V3000
M  V30 BEGIN CTAB
M  V30 COUNTS 59 63 0 0 0
M  V30 BEGIN ATOM
M  V30 1 C 5.426054 -1.763220 3.697994 0
M  V30 2 N 4.619983 -2.199996 4.810961 0
M  V30 3 C 5.480789 -2.393567 5.982530 0
M  V30 4 C 3.620512 -1.245857 5.199629 0
M  V30 5 C 2.659141 -0.921065 4.107045 0
M  V30 6 C 2.852785 0.112739 3.201800 0
M  V30 7 C 1.932176 0.372606 2.208037 0
M  V30 8 N 0.807933 -0.360197 2.069809 0
M  V30 9 C -0.244188 -0.316893 1.198657 0
M  V30 10 C -0.290367 0.678505 0.147688 0
M  V30 11 C -0.365402 1.961359 0.703054 0
M  V30 12 C -0.408268 3.091375 -0.074884 0
M  V30 13 N -0.376219 2.940105 -1.400315 0
M  V30 14 C -0.303130 1.694979 -1.955707 0
M  V30 15 N -0.249035 1.582337 -3.357398 0
M  V30 16 C -0.212497 0.433149 -4.221367 0
M  V30 17 C -1.468738 -0.351934 -4.163121 0
M  V30 18 C -1.814235 -1.401276 -3.358790 0
M  V30 19 C -3.064774 -1.952100 -3.526259 0
M  V30 20 C -3.992231 -1.523523 -4.443393 0
M  V30 21 C -3.660659 -0.465358 -5.263430 0
M  V30 22 F -4.564974 -0.043332 -6.162840 0
M  V30 23 C -2.400362 0.102522 -5.107093 0
M  V30 24 N -0.260561 0.565803 -1.190372 0
M  V30 25 C -1.076264 -1.339188 1.590586 0
M  V30 26 C -2.337532 -1.674123 0.943899 0
M  V30 27 C -2.418473 -2.979543 0.503471 0
M  V30 28 C -3.534404 -3.453321 -0.116667 0
M  V30 29 C -4.562649 -2.552690 -0.272789 0
M  V30 30 F -5.701629 -2.999782 -0.893951 0
M  V30 31 C -4.515539 -1.241987 0.154364 0
M  V30 32 C -3.378937 -0.772025 0.782442 0
M  V30 33 N -0.521870 -1.962935 2.664360 0
M  V30 34 C 0.644660 -1.365142 2.969590 0
M  V30 35 C 1.518063 -1.682963 3.985052 0
M  V30 36 H 4.982768 -2.021907 2.713723 0
M  V30 37 H 6.442546 -2.248566 3.709306 0
M  V30 38 H 5.637452 -0.666524 3.712128 0
M  V30 39 H 5.707051 -1.390711 6.437708 0
M  V30 40 H 6.466904 -2.742326 5.576406 0
M  V30 41 H 5.038655 -3.086163 6.714865 0
M  V30 42 H 3.075120 -1.695966 6.066547 0
M  V30 43 H 4.116071 -0.335721 5.596449 0
M  V30 44 H 3.729889 0.716268 3.278308 0
M  V30 45 H 2.116306 1.188788 1.518535 0
M  V30 46 H -0.397138 2.209050 1.776503 0
M  V30 47 H -0.466059 4.102973 0.310672 0
M  V30 48 H -0.230953 2.486339 -3.916829 0
M  V30 49 H 0.573051 -0.247964 -3.758603 0
M  V30 50 H 0.056097 0.648613 -5.254054 0
M  V30 51 H -1.059763 -1.688091 -2.670689 0
M  V30 52 H -3.337785 -2.773581 -2.902058 0
M  V30 53 H -4.971615 -1.991059 -4.540183 0
M  V30 54 H -2.241968 0.926594 -5.800925 0
M  V30 55 H -1.596977 -3.703337 0.626084 0
M  V30 56 H -3.593804 -4.472774 -0.458368 0
M  V30 57 H -5.319356 -0.527655 0.035899 0
M  V30 58 H -3.204924 0.228138 1.166436 0
M  V30 59 H 1.308139 -2.502814 4.659096 0
M  V30 END ATOM
M  V30 BEGIN BOND
M  V30 1 1 1 2
M  V30 2 1 2 3
M  V30 3 1 2 4
M  V30 4 1 4 5
M  V30 5 1 5 6
M  V30 6 2 6 7
M  V30 7 1 7 8
M  V30 8 1 8 9
M  V30 9 1 9 10
M  V30 10 2 10 11
M  V30 11 1 11 12
M  V30 12 2 12 13
M  V30 13 1 13 14
M  V30 14 1 14 15
M  V30 15 1 15 16
M  V30 16 1 16 17
M  V30 17 2 17 18
M  V30 18 1 18 19
M  V30 19 2 19 20
M  V30 20 1 20 21
M  V30 21 1 21 22
M  V30 22 2 21 23
M  V30 23 2 14 24
M  V30 24 2 9 25
M  V30 25 1 25 26
M  V30 26 2 26 27
M  V30 27 1 27 28
M  V30 28 2 28 29
M  V30 29 1 29 30
M  V30 30 1 29 31
M  V30 31 2 31 32
M  V30 32 1 25 33
M  V30 33 2 33 34
M  V30 34 1 34 35
M  V30 35 2 35 5
M  V30 36 1 34 8
M  V30 37 1 24 10
M  V30 38 1 32 26
M  V30 39 1 23 17
M  V30 40 1 1 36
M  V30 41 1 1 37
M  V30 42 1 1 38
M  V30 43 1 3 39
M  V30 44 1 3 40
M  V30 45 1 3 41
M  V30 46 1 4 42
M  V30 47 1 4 43
M  V30 48 1 6 44
M  V30 49 1 7 45
M  V30 50 1 11 46
M  V30 51 1 12 47
M  V30 52 1 15 48
M  V30 53 1 16 49
M  V30 54 1 16 50
M  V30 55 1 18 51
M  V30 56 1 19 52
M  V30 57 1 20 53
M  V30 58 1 23 54
M  V30 59 1 27 55
M  V30 60 1 28 56
M  V30 61 1 31 57
M  V30 62 1 32 58
M  V30 63 1 35 59
M  V30 END BOND
M  V30 END CTAB
M  END
>  <Dataset>  (509) 
ChEMBL_Kinases

>  <Ligand_Instance>  (509) 
nan

>  <PDB_ID>  (509) 
nan

>  <Standardized_SMILES>  (509) 
CN(C)Cc1ccn2c(-c3ccnc(NCc4cccc(F)c4)n3)c(-c3ccc(F)cc3)nc2c1

>  <Name>  (509) 
nan

>  <Pocket>  (509) 
nan

>  <ATP_Site>  (509) 
nan

>  <Peripheral>  (509) 
nan

>  <Num_H_Atoms_ProtBoundConf>  (509) 
nan

>  <Num_Resolved_Atoms>  (509) 
nan

>  <Num_Not_Resolved_Atoms>  (509) 
nan

$$$$
CHEMBL249236
     RDKit          3D

  0  0  0  0  0  0  0  0  0  0999 V3000
M  V30 BEGIN CTAB
M  V30 COUNTS 50 53 0 0 0
M  V30 BEGIN ATOM
M  V30 1 N 3.406286 -5.122628 3.679016 0
M  V30 2 C 3.782328 -4.604579 2.378684 0
M  V30 3 C 3.209772 -3.188576 2.232946 0
M  V30 4 C 3.571369 -2.592450 0.888077 0
M  V30 5 C 3.006199 -1.261975 0.795045 0
M  V30 6 C 3.837925 -0.157485 1.027738 0
M  V30 7 C 3.318879 1.122631 0.965467 0
M  V30 8 C 4.213867 2.160504 1.209955 0
M  V30 9 C 3.669632 3.426405 1.141656 0
M  V30 10 N 2.359769 3.703127 0.860121 0
M  V30 11 C 1.558793 2.646754 0.635911 0
M  V30 12 O 0.401983 3.045275 0.393932 0
M  V30 13 C 2.002197 1.352673 0.680154 0
M  V30 14 C 1.151682 0.308773 0.445234 0
M  V30 15 C -0.168711 0.521563 0.150949 0
M  V30 16 C -1.031402 -0.532518 -0.095540 0
M  V30 17 C -2.453817 -0.397817 -0.416351 0
M  V30 18 C -3.379136 -1.370979 -0.042401 0
M  V30 19 C -4.720805 -1.206032 -0.364786 0
M  V30 20 C -5.126062 -0.074845 -1.055479 0
M  V30 21 C -6.598374 -0.025424 -1.338420 0
M  V30 22 N -7.227262 0.643552 -0.222441 0
M  V30 23 C -4.238160 0.908725 -1.441615 0
M  V30 24 C -2.907686 0.711421 -1.103426 0
M  V30 25 C -0.466527 -1.804865 -0.023471 0
M  V30 26 C 0.873510 -2.033388 0.274666 0
M  V30 27 C 1.697168 -0.940524 0.514558 0
M  V30 28 H 3.711440 -4.419453 4.379132 0
M  V30 29 H 2.357228 -5.152036 3.720253 0
M  V30 30 H 4.891555 -4.551773 2.352131 0
M  V30 31 H 3.391738 -5.194397 1.530036 0
M  V30 32 H 3.677204 -2.622730 3.069302 0
M  V30 33 H 2.137697 -3.256857 2.427291 0
M  V30 34 H 3.276585 -3.329372 0.148880 0
M  V30 35 H 4.677458 -2.532701 0.855817 0
M  V30 36 H 4.893317 -0.327343 1.257674 0
M  V30 37 H 5.242321 1.999511 1.434109 0
M  V30 38 H 4.368882 4.237490 1.331198 0
M  V30 39 H 2.121883 4.715501 0.849795 0
M  V30 40 H -0.677992 1.453704 0.076426 0
M  V30 41 H -3.011087 -2.246964 0.501111 0
M  V30 42 H -5.403173 -1.985704 -0.054263 0
M  V30 43 H -6.819485 0.587567 -2.247989 0
M  V30 44 H -7.011985 -1.021907 -1.524460 0
M  V30 45 H -7.215666 1.676241 -0.415847 0
M  V30 46 H -6.621166 0.530246 0.634238 0
M  V30 47 H -4.614837 1.765445 -1.975310 0
M  V30 48 H -2.244043 1.501199 -1.423083 0
M  V30 49 H -1.137574 -2.653910 -0.216911 0
M  V30 50 H 1.167804 -3.050510 0.289558 0
M  V30 END ATOM
M  V30 BEGIN BOND
M  V30 1 1 1 2
M  V30 2 1 2 3
M  V30 3 1 3 4
M  V30 4 1 4 5
M  V30 5 2 5 6
M  V30 6 1 6 7
M  V30 7 1 7 8
M  V30 8 2 8 9
M  V30 9 1 9 10
M  V30 10 1 10 11
M  V30 11 2 11 12
M  V30 12 1 11 13
M  V30 13 1 13 14
M  V30 14 2 14 15
M  V30 15 1 15 16
M  V30 16 1 16 17
M  V30 17 2 17 18
M  V30 18 1 18 19
M  V30 19 2 19 20
M  V30 20 1 20 21
M  V30 21 1 21 22
M  V30 22 1 20 23
M  V30 23 2 23 24
M  V30 24 2 16 25
M  V30 25 1 25 26
M  V30 26 2 26 27
M  V30 27 1 27 5
M  V30 28 2 13 7
M  V30 29 1 27 14
M  V30 30 1 24 17
M  V30 31 1 1 28
M  V30 32 1 1 29
M  V30 33 1 2 30
M  V30 34 1 2 31
M  V30 35 1 3 32
M  V30 36 1 3 33
M  V30 37 1 4 34
M  V30 38 1 4 35
M  V30 39 1 6 36
M  V30 40 1 8 37
M  V30 41 1 9 38
M  V30 42 1 10 39
M  V30 43 1 15 40
M  V30 44 1 18 41
M  V30 45 1 19 42
M  V30 46 1 21 43
M  V30 47 1 21 44
M  V30 48 1 22 45
M  V30 49 1 22 46
M  V30 50 1 23 47
M  V30 51 1 24 48
M  V30 52 1 25 49
M  V30 53 1 26 50
M  V30 END BOND
M  V30 END CTAB
M  END
>  <Dataset>  (510) 
ChEMBL_Kinases

>  <Ligand_Instance>  (510) 
nan

>  <PDB_ID>  (510) 
nan

>  <Standardized_SMILES>  (510) 
NCCCc1cc2cc[nH]c(=O)c2c2cc(-c3ccc(CN)cc3)ccc12

>  <Name>  (510) 
nan

>  <Pocket>  (510) 
nan

>  <ATP_Site>  (510) 
nan

>  <Peripheral>  (510) 
nan

>  <Num_H_Atoms_ProtBoundConf>  (510) 
nan

>  <Num_Resolved_Atoms>  (510) 
nan

>  <Num_Not_Resolved_Atoms>  (510) 
nan

$$$$
CHEMBL249237
     RDKit          3D

  0  0  0  0  0  0  0  0  0  0999 V3000
M  V30 BEGIN CTAB
M  V30 COUNTS 58 62 0 0 0
M  V30 BEGIN ATOM
M  V30 1 N -0.122080 0.444247 4.188878 0
M  V30 2 C 0.861455 -0.292058 4.879982 0
M  V30 3 C 1.839370 -1.123491 4.126985 0
M  V30 4 C 2.657300 -0.403237 3.124804 0
M  V30 5 C 3.907145 0.122358 3.357041 0
M  V30 6 C 4.528319 0.855348 2.336542 0
M  V30 7 C 5.735534 1.398364 2.599941 0
M  V30 8 C 6.330204 2.153958 1.596996 0
M  V30 9 N 5.713070 2.337883 0.388942 0
M  V30 10 C 4.521864 1.803178 0.131162 0
M  V30 11 O 4.168606 2.101136 -1.015623 0
M  V30 12 C 3.959469 1.072337 1.121419 0
M  V30 13 C 2.732150 0.541723 0.919839 0
M  V30 14 C 2.061859 0.725352 -0.238576 0
M  V30 15 C 0.934005 0.476528 -0.877763 0
M  V30 16 C -0.288701 0.206410 -1.555710 0
M  V30 17 C -1.535841 0.697629 -1.067549 0
M  V30 18 C -2.817182 0.423131 -1.422567 0
M  V30 19 C -2.748303 -0.494781 -2.428482 0
M  V30 20 C -4.084987 -1.158440 -2.750786 0
M  V30 21 N -4.013777 -2.435845 -2.118057 0
M  V30 22 C -3.549934 -2.497593 -0.767154 0
M  V30 23 C -2.735737 -3.812826 -0.724275 0
M  V30 24 O -3.566592 -4.800494 -1.210740 0
M  V30 25 C -4.894038 -4.510072 -1.297717 0
M  V30 26 C -5.168727 -3.272232 -2.203720 0
M  V30 27 C -1.687149 -1.099177 -3.067204 0
M  V30 28 C -0.427656 -0.706225 -2.584345 0
M  V30 29 C 0.404352 -0.302272 0.329271 0
M  V30 30 C 0.862297 -0.656809 1.636406 0
M  V30 31 C 2.116208 -0.176718 1.911629 0
M  V30 32 H 0.139995 1.328790 3.734239 0
M  V30 33 H -0.984891 -0.006514 3.886173 0
M  V30 34 H 0.312196 -1.021737 5.543063 0
M  V30 35 H 1.430535 0.415726 5.537928 0
M  V30 36 H 1.463812 -2.114268 3.779466 0
M  V30 37 H 2.608683 -1.445157 4.915327 0
M  V30 38 H 4.359186 -0.046372 4.325971 0
M  V30 39 H 6.211171 1.234608 3.562699 0
M  V30 40 H 7.292270 2.563558 1.861226 0
M  V30 41 H 6.322974 2.923239 -0.218937 0
M  V30 42 H 2.373092 1.270924 -1.151607 0
M  V30 43 H -1.355829 1.432795 -0.270254 0
M  V30 44 H -3.641841 0.897360 -0.946162 0
M  V30 45 H -4.249585 -1.295409 -3.811320 0
M  V30 46 H -4.882660 -0.564711 -2.308731 0
M  V30 47 H -2.962264 -1.676122 -0.424948 0
M  V30 48 H -4.372616 -2.692689 -0.044132 0
M  V30 49 H -2.296685 -3.954921 0.247058 0
M  V30 50 H -1.923790 -3.639701 -1.458379 0
M  V30 51 H -5.414556 -4.407225 -0.323046 0
M  V30 52 H -5.370546 -5.381388 -1.807549 0
M  V30 53 H -6.085431 -2.806066 -1.769961 0
M  V30 54 H -5.278049 -3.635142 -3.223547 0
M  V30 55 H -1.830657 -1.804849 -3.864722 0
M  V30 56 H 0.435890 -1.132902 -3.026820 0
M  V30 57 H -0.621303 -0.832936 0.437400 0
M  V30 58 H 0.373004 -1.264055 2.387261 0
M  V30 END ATOM
M  V30 BEGIN BOND
M  V30 1 1 1 2
M  V30 2 1 2 3
M  V30 3 1 3 4
M  V30 4 2 4 5
M  V30 5 1 5 6
M  V30 6 1 6 7
M  V30 7 2 7 8
M  V30 8 1 8 9
M  V30 9 1 9 10
M  V30 10 2 10 11
M  V30 11 1 10 12
M  V30 12 1 12 13
M  V30 13 2 13 14
M  V30 14 1 14 15
M  V30 15 1 15 16
M  V30 16 2 16 17
M  V30 17 1 17 18
M  V30 18 2 18 19
M  V30 19 1 19 20
M  V30 20 1 20 21
M  V30 21 1 21 22
M  V30 22 1 22 23
M  V30 23 1 23 24
M  V30 24 1 24 25
M  V30 25 1 25 26
M  V30 26 1 19 27
M  V30 27 2 27 28
M  V30 28 2 15 29
M  V30 29 1 29 30
M  V30 30 2 30 31
M  V30 31 1 31 4
M  V30 32 2 12 6
M  V30 33 1 31 13
M  V30 34 1 28 16
M  V30 35 1 26 21
M  V30 36 1 1 32
M  V30 37 1 1 33
M  V30 38 1 2 34
M  V30 39 1 2 35
M  V30 40 1 3 36
M  V30 41 1 3 37
M  V30 42 1 5 38
M  V30 43 1 7 39
M  V30 44 1 8 40
M  V30 45 1 9 41
M  V30 46 1 14 42
M  V30 47 1 17 43
M  V30 48 1 18 44
M  V30 49 1 20 45
M  V30 50 1 20 46
M  V30 51 1 22 47
M  V30 52 1 22 48
M  V30 53 1 23 49
M  V30 54 1 23 50
M  V30 55 1 25 51
M  V30 56 1 25 52
M  V30 57 1 26 53
M  V30 58 1 26 54
M  V30 59 1 27 55
M  V30 60 1 28 56
M  V30 61 1 29 57
M  V30 62 1 30 58
M  V30 END BOND
M  V30 END CTAB
M  END
>  <Dataset>  (511) 
ChEMBL_Kinases

>  <Ligand_Instance>  (511) 
nan

>  <PDB_ID>  (511) 
nan

>  <Standardized_SMILES>  (511) 
NCCc1cc2cc[nH]c(=O)c2c2cc(-c3ccc(CN4CCOCC4)cc3)ccc12

>  <Name>  (511) 
nan

>  <Pocket>  (511) 
nan

>  <ATP_Site>  (511) 
nan

>  <Peripheral>  (511) 
nan

>  <Num_H_Atoms_ProtBoundConf>  (511) 
nan

>  <Num_Resolved_Atoms>  (511) 
nan

>  <Num_Not_Resolved_Atoms>  (511) 
nan

$$$$
CHEMBL249238
     RDKit          3D

  0  0  0  0  0  0  0  0  0  0999 V3000
M  V30 BEGIN CTAB
M  V30 COUNTS 53 55 0 0 0
M  V30 BEGIN ATOM
M  V30 1 C 2.549133 -4.518998 5.666241 0
M  V30 2 N 1.655624 -3.468287 6.081825 0
M  V30 3 C 0.503096 -4.113066 6.701700 0
M  V30 4 C 1.214715 -2.683871 4.955085 0
M  V30 5 C 2.288172 -1.851229 4.320395 0
M  V30 6 N 1.834224 -1.065468 3.188173 0
M  V30 7 C 1.278173 -1.603392 2.002396 0
M  V30 8 O 1.180720 -2.876388 1.952443 0
M  V30 9 C 0.820010 -0.817689 0.859804 0
M  V30 10 C 0.892779 0.579791 0.794485 0
M  V30 11 C 0.465364 1.326430 -0.277573 0
M  V30 12 C -0.075116 0.677242 -1.372332 0
M  V30 13 C -0.448408 1.514147 -2.393383 0
M  V30 14 C -0.471035 2.980414 -2.489046 0
M  V30 15 C -1.757391 3.549323 -1.966767 0
M  V30 16 C -2.090511 3.247698 -0.548386 0
M  V30 17 N -3.376454 3.894897 -0.219287 0
M  V30 18 C -0.965440 0.844243 -3.511043 0
M  V30 19 C -1.076780 -0.531561 -3.545088 0
M  V30 20 C -1.599068 -1.125155 -4.684687 0
M  V30 21 C -1.692645 -2.499963 -4.673305 0
M  V30 22 N -1.303011 -3.255636 -3.619945 0
M  V30 23 C -0.801448 -2.628198 -2.535064 0
M  V30 24 O -0.497565 -3.471762 -1.670097 0
M  V30 25 C -0.672524 -1.269338 -2.459801 0
M  V30 26 C -0.161814 -0.679477 -1.347786 0
M  V30 27 C 0.272111 -1.401292 -0.265118 0
M  V30 28 H 3.344608 -4.229734 4.983695 0
M  V30 29 H 2.987983 -4.961340 6.605603 0
M  V30 30 H 1.949643 -5.345816 5.208647 0
M  V30 31 H -0.426816 -3.630518 6.308911 0
M  V30 32 H 0.565547 -4.122996 7.800284 0
M  V30 33 H 0.429021 -5.176751 6.361677 0
M  V30 34 H 0.391605 -2.001298 5.305199 0
M  V30 35 H 0.751612 -3.336800 4.177101 0
M  V30 36 H 2.610569 -1.118533 5.111864 0
M  V30 37 H 3.193352 -2.445776 4.061274 0
M  V30 38 H 1.901130 -0.023989 3.199203 0
M  V30 39 H 1.314690 1.106742 1.646567 0
M  V30 40 H 0.584181 2.381949 -0.225016 0
M  V30 41 H -0.386668 3.299228 -3.570222 0
M  V30 42 H 0.325962 3.473859 -1.887080 0
M  V30 43 H -1.635513 4.681305 -2.010562 0
M  V30 44 H -2.613553 3.342421 -2.657182 0
M  V30 45 H -1.361741 3.642117 0.181111 0
M  V30 46 H -2.239127 2.168046 -0.323724 0
M  V30 47 H -3.394917 4.032878 0.823613 0
M  V30 48 H -4.158249 3.310225 -0.546831 0
M  V30 49 H -1.295602 1.388889 -4.388586 0
M  V30 50 H -1.911791 -0.530280 -5.529569 0
M  V30 51 H -2.100537 -2.928647 -5.568015 0
M  V30 52 H -1.439034 -4.278396 -3.768053 0
M  V30 53 H 0.234800 -2.464177 -0.176146 0
M  V30 END ATOM
M  V30 BEGIN BOND
M  V30 1 1 1 2
M  V30 2 1 2 3
M  V30 3 1 2 4
M  V30 4 1 4 5
M  V30 5 1 5 6
M  V30 6 1 6 7
M  V30 7 2 7 8
M  V30 8 1 7 9
M  V30 9 2 9 10
M  V30 10 1 10 11
M  V30 11 2 11 12
M  V30 12 1 12 13
M  V30 13 1 13 14
M  V30 14 1 14 15
M  V30 15 1 15 16
M  V30 16 1 16 17
M  V30 17 2 13 18
M  V30 18 1 18 19
M  V30 19 1 19 20
M  V30 20 2 20 21
M  V30 21 1 21 22
M  V30 22 1 22 23
M  V30 23 2 23 24
M  V30 24 1 23 25
M  V30 25 1 25 26
M  V30 26 2 26 27
M  V30 27 1 27 9
M  V30 28 1 26 12
M  V30 29 2 25 19
M  V30 30 1 1 28
M  V30 31 1 1 29
M  V30 32 1 1 30
M  V30 33 1 3 31
M  V30 34 1 3 32
M  V30 35 1 3 33
M  V30 36 1 4 34
M  V30 37 1 4 35
M  V30 38 1 5 36
M  V30 39 1 5 37
M  V30 40 1 6 38
M  V30 41 1 10 39
M  V30 42 1 11 40
M  V30 43 1 14 41
M  V30 44 1 14 42
M  V30 45 1 15 43
M  V30 46 1 15 44
M  V30 47 1 16 45
M  V30 48 1 16 46
M  V30 49 1 17 47
M  V30 50 1 17 48
M  V30 51 1 18 49
M  V30 52 1 20 50
M  V30 53 1 21 51
M  V30 54 1 22 52
M  V30 55 1 27 53
M  V30 END BOND
M  V30 END CTAB
M  END
>  <Dataset>  (512) 
ChEMBL_Kinases

>  <Ligand_Instance>  (512) 
nan

>  <PDB_ID>  (512) 
nan

>  <Standardized_SMILES>  (512) 
CN(C)CCNC(=O)c1ccc2c(CCCN)cc3cc[nH]c(=O)c3c2c1

>  <Name>  (512) 
nan

>  <Pocket>  (512) 
nan

>  <ATP_Site>  (512) 
nan

>  <Peripheral>  (512) 
nan

>  <Num_H_Atoms_ProtBoundConf>  (512) 
nan

>  <Num_Resolved_Atoms>  (512) 
nan

>  <Num_Not_Resolved_Atoms>  (512) 
nan

$$$$
CHEMBL249240
     RDKit          3D

  0  0  0  0  0  0  0  0  0  0999 V3000
M  V30 BEGIN CTAB
M  V30 COUNTS 52 56 0 0 0
M  V30 BEGIN ATOM
M  V30 1 N 2.390083 -1.279045 -0.788951 0
M  V30 2 C 3.421227 -1.968341 -0.040348 0
M  V30 3 C 2.869019 -2.854586 1.055460 0
M  V30 4 C 2.080124 -2.082554 2.061678 0
M  V30 5 C 0.902841 -1.374307 1.499084 0
M  V30 6 C 0.990546 -0.005541 1.256989 0
M  V30 7 C -0.090527 0.660292 0.722140 0
M  V30 8 C 0.084035 2.011316 0.521110 0
M  V30 9 C 1.270461 2.808885 0.761811 0
M  V30 10 C 2.518374 2.498378 0.263437 0
M  V30 11 C 3.652657 3.271031 0.514745 0
M  V30 12 C 3.532365 4.408227 1.301214 0
M  V30 13 C 2.260300 4.704274 1.794958 0
M  V30 14 C 1.125559 3.936449 1.547421 0
M  V30 15 C -1.027517 2.666793 -0.013574 0
M  V30 16 N -2.208241 2.077163 -0.330714 0
M  V30 17 C -2.318457 0.756266 -0.113610 0
M  V30 18 O -3.438243 0.325648 -0.439939 0
M  V30 19 C -1.275916 0.040645 0.408024 0
M  V30 20 C -1.375675 -1.301599 0.640908 0
M  V30 21 C -2.533364 -1.973664 0.351185 0
M  V30 22 C -2.668770 -3.329646 0.577826 0
M  V30 23 C -3.874779 -4.129394 0.295102 0
M  V30 24 C -4.357642 -5.248765 0.942883 0
M  V30 25 N -5.502693 -5.603129 0.287501 0
M  V30 26 N -5.725671 -4.755452 -0.713362 0
M  V30 27 C -4.732106 -3.821954 -0.741340 0
M  V30 28 C -1.588103 -4.000769 1.113746 0
M  V30 29 C -0.423016 -3.322589 1.404895 0
M  V30 30 C -0.299481 -1.963885 1.172501 0
M  V30 31 H 2.889361 -0.734260 -1.524791 0
M  V30 32 H 1.772328 -1.975215 -1.251023 0
M  V30 33 H 4.017623 -2.547085 -0.767800 0
M  V30 34 H 4.080324 -1.219771 0.469034 0
M  V30 35 H 3.751810 -3.274904 1.589290 0
M  V30 36 H 2.351747 -3.676783 0.556711 0
M  V30 37 H 1.764451 -2.794691 2.874899 0
M  V30 38 H 2.767102 -1.320757 2.504851 0
M  V30 39 H 1.913281 0.473607 1.514735 0
M  V30 40 H 2.679330 1.638562 -0.360856 0
M  V30 41 H 4.623585 3.005323 0.111279 0
M  V30 42 H 4.380336 5.036307 1.521785 0
M  V30 43 H 2.228983 5.616889 2.411212 0
M  V30 44 H 0.195732 4.266922 1.984122 0
M  V30 45 H -0.947667 3.751105 -0.195614 0
M  V30 46 H -2.968472 2.697527 -0.730565 0
M  V30 47 H -3.435955 -1.583323 -0.061077 0
M  V30 48 H -3.827939 -5.647550 1.781994 0
M  V30 49 H -6.530900 -4.774016 -1.394115 0
M  V30 50 H -4.701409 -3.010957 -1.487225 0
M  V30 51 H -1.661636 -5.068328 1.304674 0
M  V30 52 H 0.364938 -3.905293 1.819388 0
M  V30 END ATOM
M  V30 BEGIN BOND
M  V30 1 1 1 2
M  V30 2 1 2 3
M  V30 3 1 3 4
M  V30 4 1 4 5
M  V30 5 2 5 6
M  V30 6 1 6 7
M  V30 7 1 7 8
M  V30 8 1 8 9
M  V30 9 2 9 10
M  V30 10 1 10 11
M  V30 11 2 11 12
M  V30 12 1 12 13
M  V30 13 2 13 14
M  V30 14 2 8 15
M  V30 15 1 15 16
M  V30 16 1 16 17
M  V30 17 2 17 18
M  V30 18 1 17 19
M  V30 19 1 19 20
M  V30 20 2 20 21
M  V30 21 1 21 22
M  V30 22 1 22 23
M  V30 23 1 23 24
M  V30 24 2 24 25
M  V30 25 1 25 26
M  V30 26 1 26 27
M  V30 27 2 22 28
M  V30 28 1 28 29
M  V30 29 2 29 30
M  V30 30 1 30 5
M  V30 31 2 19 7
M  V30 32 1 30 20
M  V30 33 1 14 9
M  V30 34 2 27 23
M  V30 35 1 1 31
M  V30 36 1 1 32
M  V30 37 1 2 33
M  V30 38 1 2 34
M  V30 39 1 3 35
M  V30 40 1 3 36
M  V30 41 1 4 37
M  V30 42 1 4 38
M  V30 43 1 6 39
M  V30 44 1 10 40
M  V30 45 1 11 41
M  V30 46 1 12 42
M  V30 47 1 13 43
M  V30 48 1 14 44
M  V30 49 1 15 45
M  V30 50 1 16 46
M  V30 51 1 21 47
M  V30 52 1 24 48
M  V30 53 1 26 49
M  V30 54 1 27 50
M  V30 55 1 28 51
M  V30 56 1 29 52
M  V30 END BOND
M  V30 END CTAB
M  END
>  <Dataset>  (513) 
ChEMBL_Kinases

>  <Ligand_Instance>  (513) 
nan

>  <PDB_ID>  (513) 
nan

>  <Standardized_SMILES>  (513) 
NCCCc1cc2c(-c3ccccc3)c[nH]c(=O)c2c2cc(-c3cn[nH]c3)ccc12

>  <Name>  (513) 
nan

>  <Pocket>  (513) 
nan

>  <ATP_Site>  (513) 
nan

>  <Peripheral>  (513) 
nan

>  <Num_H_Atoms_ProtBoundConf>  (513) 
nan

>  <Num_Resolved_Atoms>  (513) 
nan

>  <Num_Not_Resolved_Atoms>  (513) 
nan

$$$$
CHEMBL249241
     RDKit          3D

  0  0  0  0  0  0  0  0  0  0999 V3000
M  V30 BEGIN CTAB
M  V30 COUNTS 53 57 0 0 0
M  V30 BEGIN ATOM
M  V30 1 N 1.154294 -1.447964 5.571508 0
M  V30 2 C 2.181297 -0.892222 4.743229 0
M  V30 3 C 1.773514 -1.073135 3.275420 0
M  V30 4 C 0.484031 -0.389648 2.955751 0
M  V30 5 C 0.038105 -0.528182 1.560613 0
M  V30 6 C 0.264326 0.558989 0.741385 0
M  V30 7 C -0.113367 0.488888 -0.576596 0
M  V30 8 C 0.126689 1.597471 -1.381684 0
M  V30 9 C 0.759110 2.769779 -0.804466 0
M  V30 10 C 2.139153 2.691699 -0.904876 0
M  V30 11 C 2.959777 3.701483 -0.416316 0
M  V30 12 C 2.391180 4.805879 0.181563 0
M  V30 13 C 1.016172 4.878665 0.278770 0
M  V30 14 C 0.214150 3.871280 -0.209336 0
M  V30 15 O -1.183694 3.837594 -0.166562 0
M  V30 16 C -0.254209 1.518181 -2.701711 0
M  V30 17 N -0.848447 0.420230 -3.255807 0
M  V30 18 C -1.061667 -0.627841 -2.442384 0
M  V30 19 O -1.605798 -1.543586 -3.087263 0
M  V30 20 C -0.706547 -0.612843 -1.120251 0
M  V30 21 C -0.941422 -1.699134 -0.334231 0
M  V30 22 C -1.537908 -2.825152 -0.833716 0
M  V30 23 C -1.772255 -3.913619 -0.019802 0
M  V30 24 C -2.399996 -5.156435 -0.454589 0
M  V30 25 C -3.379412 -5.372689 -1.431456 0
M  V30 26 N -3.677789 -6.680284 -1.513940 0
M  V30 27 N -2.928825 -7.341518 -0.623644 0
M  V30 28 C -2.146930 -6.432671 0.028670 0
M  V30 29 C -1.385721 -3.820901 1.300351 0
M  V30 30 C -0.783091 -2.700738 1.831618 0
M  V30 31 C -0.561497 -1.622187 0.982527 0
M  V30 32 H 0.742081 -0.775683 6.241254 0
M  V30 33 H 0.478328 -2.062560 5.103475 0
M  V30 34 H 3.169179 -1.354935 4.863034 0
M  V30 35 H 2.216616 0.193813 4.950937 0
M  V30 36 H 2.603443 -0.666848 2.642512 0
M  V30 37 H 1.785651 -2.164119 3.092497 0
M  V30 38 H 0.583861 0.666807 3.268233 0
M  V30 39 H -0.301592 -0.814898 3.626216 0
M  V30 40 H 0.739146 1.470777 1.131444 0
M  V30 41 H 2.717136 1.877852 -1.352060 0
M  V30 42 H 4.049394 3.678926 -0.475115 0
M  V30 43 H 2.990466 5.621381 0.578804 0
M  V30 44 H 0.492796 5.708788 0.731896 0
M  V30 45 H -1.703013 4.097542 0.665535 0
M  V30 46 H -0.047660 2.402697 -3.285968 0
M  V30 47 H -1.074013 0.522145 -4.270729 0
M  V30 48 H -1.876289 -3.011293 -1.825925 0
M  V30 49 H -3.754647 -4.497393 -1.971847 0
M  V30 50 H -2.944785 -8.372513 -0.461750 0
M  V30 51 H -1.426002 -6.644902 0.811791 0
M  V30 52 H -1.554426 -4.655043 1.966666 0
M  V30 53 H -0.512827 -2.693913 2.863924 0
M  V30 END ATOM
M  V30 BEGIN BOND
M  V30 1 1 1 2
M  V30 2 1 2 3
M  V30 3 1 3 4
M  V30 4 1 4 5
M  V30 5 2 5 6
M  V30 6 1 6 7
M  V30 7 1 7 8
M  V30 8 1 8 9
M  V30 9 2 9 10
M  V30 10 1 10 11
M  V30 11 2 11 12
M  V30 12 1 12 13
M  V30 13 2 13 14
M  V30 14 1 14 15
M  V30 15 2 8 16
M  V30 16 1 16 17
M  V30 17 1 17 18
M  V30 18 2 18 19
M  V30 19 1 18 20
M  V30 20 1 20 21
M  V30 21 2 21 22
M  V30 22 1 22 23
M  V30 23 1 23 24
M  V30 24 1 24 25
M  V30 25 2 25 26
M  V30 26 1 26 27
M  V30 27 1 27 28
M  V30 28 2 23 29
M  V30 29 1 29 30
M  V30 30 2 30 31
M  V30 31 1 31 5
M  V30 32 2 20 7
M  V30 33 1 31 21
M  V30 34 1 14 9
M  V30 35 2 28 24
M  V30 36 1 1 32
M  V30 37 1 1 33
M  V30 38 1 2 34
M  V30 39 1 2 35
M  V30 40 1 3 36
M  V30 41 1 3 37
M  V30 42 1 4 38
M  V30 43 1 4 39
M  V30 44 1 6 40
M  V30 45 1 10 41
M  V30 46 1 11 42
M  V30 47 1 12 43
M  V30 48 1 13 44
M  V30 49 1 15 45
M  V30 50 1 16 46
M  V30 51 1 17 47
M  V30 52 1 22 48
M  V30 53 1 25 49
M  V30 54 1 27 50
M  V30 55 1 28 51
M  V30 56 1 29 52
M  V30 57 1 30 53
M  V30 END BOND
M  V30 END CTAB
M  END
>  <Dataset>  (514) 
ChEMBL_Kinases

>  <Ligand_Instance>  (514) 
nan

>  <PDB_ID>  (514) 
nan

>  <Standardized_SMILES>  (514) 
NCCCc1cc2c(-c3ccccc3O)c[nH]c(=O)c2c2cc(-c3cn[nH]c3)ccc12

>  <Name>  (514) 
nan

>  <Pocket>  (514) 
nan

>  <ATP_Site>  (514) 
nan

>  <Peripheral>  (514) 
nan

>  <Num_H_Atoms_ProtBoundConf>  (514) 
nan

>  <Num_Resolved_Atoms>  (514) 
nan

>  <Num_Not_Resolved_Atoms>  (514) 
nan

$$$$
CHEMBL249254
     RDKit          3D

  0  0  0  0  0  0  0  0  0  0999 V3000
M  V30 BEGIN CTAB
M  V30 COUNTS 41 44 0 0 0
M  V30 BEGIN ATOM
M  V30 1 O 1.124108 -3.325141 3.881766 0
M  V30 2 C 0.869067 -3.977761 2.819127 0
M  V30 3 N 0.678109 -5.393647 2.729399 0
M  V30 4 C 1.136024 -5.901298 1.426804 0
M  V30 5 C 0.282599 -5.287484 0.339320 0
M  V30 6 C 0.487356 -3.819430 0.383275 0
M  V30 7 N 0.419646 -3.014107 -0.662548 0
M  V30 8 C 0.650353 -1.781846 -0.209894 0
M  V30 9 C 0.755502 -0.406061 -0.611269 0
M  V30 10 C 0.502374 -0.544815 -2.037090 0
M  V30 11 C 0.461183 0.456896 -3.043923 0
M  V30 12 N 0.693429 1.720875 -2.592773 0
M  V30 13 C 0.939745 1.942379 -1.267717 0
M  V30 14 N 1.206146 3.135961 -0.580353 0
M  V30 15 C 1.443269 3.411320 0.794366 0
M  V30 16 C 0.294190 3.029865 1.687534 0
M  V30 17 C 0.176355 1.789855 2.305696 0
M  V30 18 C -0.912178 1.520689 3.098833 0
M  V30 19 C -1.896818 2.438981 3.305615 0
M  V30 20 C -1.802134 3.679315 2.701852 0
M  V30 21 C -0.708788 3.987181 1.888381 0
M  V30 22 N 0.844874 0.764330 -0.953190 0
M  V30 23 C 0.866336 -1.848890 1.163529 0
M  V30 24 C 0.767608 -3.169343 1.592000 0
M  V30 25 H 0.254100 -5.820538 3.590942 0
M  V30 26 H 0.953608 -6.994457 1.377501 0
M  V30 27 H 2.196485 -5.678998 1.235176 0
M  V30 28 H -0.788086 -5.464212 0.656401 0
M  V30 29 H 0.489377 -5.730530 -0.630578 0
M  V30 30 H 0.237402 -3.156025 -1.671775 0
M  V30 31 H 0.277836 -1.450555 -2.705642 0
M  V30 32 H 0.271457 0.384658 -4.144091 0
M  V30 33 H 1.212269 3.914243 -1.292233 0
M  V30 34 H 1.590538 4.500958 0.928158 0
M  V30 35 H 2.391255 2.955760 1.189512 0
M  V30 36 H 1.013968 1.176698 2.062087 0
M  V30 37 H -0.880150 0.506388 3.524021 0
M  V30 38 H -2.728958 2.164250 3.940583 0
M  V30 39 H -2.579018 4.381653 2.876928 0
M  V30 40 H -0.726994 4.987390 1.459100 0
M  V30 41 H 1.089390 -1.180561 2.000251 0
M  V30 END ATOM
M  V30 BEGIN BOND
M  V30 1 2 1 2
M  V30 2 1 2 3
M  V30 3 1 3 4
M  V30 4 1 4 5
M  V30 5 1 5 6
M  V30 6 1 6 7
M  V30 7 1 7 8
M  V30 8 1 8 9
M  V30 9 2 9 10
M  V30 10 1 10 11
M  V30 11 2 11 12
M  V30 12 1 12 13
M  V30 13 1 13 14
M  V30 14 1 14 15
M  V30 15 1 15 16
M  V30 16 2 16 17
M  V30 17 1 17 18
M  V30 18 2 18 19
M  V30 19 1 19 20
M  V30 20 2 20 21
M  V30 21 2 13 22
M  V30 22 2 8 23
M  V30 23 1 23 24
M  V30 24 1 24 2
M  V30 25 2 24 6
M  V30 26 1 22 9
M  V30 27 1 21 16
M  V30 28 1 3 25
M  V30 29 1 4 26
M  V30 30 1 4 27
M  V30 31 1 5 28
M  V30 32 1 5 29
M  V30 33 1 7 30
M  V30 34 1 10 31
M  V30 35 1 11 32
M  V30 36 1 14 33
M  V30 37 1 15 34
M  V30 38 1 15 35
M  V30 39 1 17 36
M  V30 40 1 18 37
M  V30 41 1 19 38
M  V30 42 1 20 39
M  V30 43 1 21 40
M  V30 44 1 23 41
M  V30 END BOND
M  V30 END CTAB
M  END
>  <Dataset>  (515) 
ChEMBL_Kinases

>  <Ligand_Instance>  (515) 
nan

>  <PDB_ID>  (515) 
nan

>  <Standardized_SMILES>  (515) 
O=C1NCCc2[nH]c(-c3ccnc(NCc4ccccc4)n3)cc21

>  <Name>  (515) 
nan

>  <Pocket>  (515) 
nan

>  <ATP_Site>  (515) 
nan

>  <Peripheral>  (515) 
nan

>  <Num_H_Atoms_ProtBoundConf>  (515) 
nan

>  <Num_Resolved_Atoms>  (515) 
nan

>  <Num_Not_Resolved_Atoms>  (515) 
nan

$$$$
CHEMBL249279
     RDKit          3D

  0  0  0  0  0  0  0  0  0  0999 V3000
M  V30 BEGIN CTAB
M  V30 COUNTS 45 48 0 0 0
M  V30 BEGIN ATOM
M  V30 1 C 0.099156 -4.980480 4.309729 0
M  V30 2 N -1.103115 -4.994516 3.509919 0
M  V30 3 C -1.295721 -4.045289 2.447587 0
M  V30 4 N -0.339527 -3.153090 2.216697 0
M  V30 5 C -0.459705 -2.223345 1.220890 0
M  V30 6 C 0.426113 -1.263126 0.877255 0
M  V30 7 C 0.140719 -0.448101 -0.116077 0
M  V30 8 C 0.822582 0.691728 -0.772483 0
M  V30 9 C 0.211038 1.338730 -1.826100 0
M  V30 10 C 0.878411 2.411375 -2.421595 0
M  V30 11 C 2.114210 2.755818 -1.913898 0
M  V30 12 C 2.713780 2.086635 -0.847018 0
M  V30 13 C 4.062638 2.604561 -0.432029 0
M  V30 14 N 3.906784 3.640310 0.567600 0
M  V30 15 C 3.594873 3.461342 1.933135 0
M  V30 16 C 3.459158 4.612433 2.868192 0
M  V30 17 O 3.415558 2.338921 2.434292 0
M  V30 18 C 2.056645 1.030995 -0.260961 0
M  V30 19 S -1.461514 -0.968308 -0.689451 0
M  V30 20 C -1.619425 -2.320866 0.532623 0
M  V30 21 N -2.630183 -3.227695 0.741341 0
M  V30 22 C -3.796911 -3.365658 0.088898 0
M  V30 23 C -4.325961 -2.571739 -1.050185 0
M  V30 24 C -4.403278 -4.430442 0.726682 0
M  V30 25 N -3.589789 -4.870629 1.708787 0
M  V30 26 C -2.475280 -4.123189 1.726466 0
M  V30 27 H 0.965528 -5.002500 3.595642 0
M  V30 28 H 0.135140 -5.853524 4.970375 0
M  V30 29 H 0.148381 -4.068027 4.932792 0
M  V30 30 H -1.832998 -5.708562 3.718797 0
M  V30 31 H 1.385828 -1.078923 1.345202 0
M  V30 32 H -0.751588 1.059991 -2.210480 0
M  V30 33 H 0.445612 2.961070 -3.256840 0
M  V30 34 H 2.618863 3.594732 -2.391747 0
M  V30 35 H 4.538004 1.740605 0.112210 0
M  V30 36 H 4.666401 2.944909 -1.266323 0
M  V30 37 H 4.036977 4.628566 0.257401 0
M  V30 38 H 3.465332 5.563357 2.278352 0
M  V30 39 H 2.523110 4.548477 3.471790 0
M  V30 40 H 4.364526 4.657231 3.511028 0
M  V30 41 H 2.542497 0.530681 0.561271 0
M  V30 42 H -4.006610 -2.949672 -2.027895 0
M  V30 43 H -5.432139 -2.576795 -0.978614 0
M  V30 44 H -3.998208 -1.508060 -0.951439 0
M  V30 45 H -5.387079 -4.842938 0.468325 0
M  V30 END ATOM
M  V30 BEGIN BOND
M  V30 1 1 1 2
M  V30 2 1 2 3
M  V30 3 2 3 4
M  V30 4 1 4 5
M  V30 5 1 5 6
M  V30 6 2 6 7
M  V30 7 1 7 8
M  V30 8 2 8 9
M  V30 9 1 9 10
M  V30 10 2 10 11
M  V30 11 1 11 12
M  V30 12 1 12 13
M  V30 13 1 13 14
M  V30 14 1 14 15
M  V30 15 1 15 16
M  V30 16 2 15 17
M  V30 17 2 12 18
M  V30 18 1 7 19
M  V30 19 1 19 20
M  V30 20 1 20 21
M  V30 21 1 21 22
M  V30 22 1 22 23
M  V30 23 2 22 24
M  V30 24 1 24 25
M  V30 25 2 25 26
M  V30 26 1 26 3
M  V30 27 2 20 5
M  V30 28 1 26 21
M  V30 29 1 18 8
M  V30 30 1 1 27
M  V30 31 1 1 28
M  V30 32 1 1 29
M  V30 33 1 2 30
M  V30 34 1 6 31
M  V30 35 1 9 32
M  V30 36 1 10 33
M  V30 37 1 11 34
M  V30 38 1 13 35
M  V30 39 1 13 36
M  V30 40 1 14 37
M  V30 41 1 16 38
M  V30 42 1 16 39
M  V30 43 1 16 40
M  V30 44 1 18 41
M  V30 45 1 23 42
M  V30 46 1 23 43
M  V30 47 1 23 44
M  V30 48 1 24 45
M  V30 END BOND
M  V30 END CTAB
M  END
>  <Dataset>  (516) 
ChEMBL_Kinases

>  <Ligand_Instance>  (516) 
nan

>  <PDB_ID>  (516) 
nan

>  <Standardized_SMILES>  (516) 
CNc1nc2cc(-c3cccc(CNC(C)=O)c3)sc2n2c(C)cnc12

>  <Name>  (516) 
nan

>  <Pocket>  (516) 
nan

>  <ATP_Site>  (516) 
nan

>  <Peripheral>  (516) 
nan

>  <Num_H_Atoms_ProtBoundConf>  (516) 
nan

>  <Num_Resolved_Atoms>  (516) 
nan

>  <Num_Not_Resolved_Atoms>  (516) 
nan

$$$$
CHEMBL249280
     RDKit          3D

  0  0  0  0  0  0  0  0  0  0999 V3000
M  V30 BEGIN CTAB
M  V30 COUNTS 45 48 0 0 0
M  V30 BEGIN ATOM
M  V30 1 C -1.765071 -4.626389 4.171250 0
M  V30 2 N -1.963990 -5.044211 2.803755 0
M  V30 3 C -1.618058 -4.225587 1.678078 0
M  V30 4 N -1.088149 -3.024085 1.954560 0
M  V30 5 C -0.734315 -2.190095 0.930335 0
M  V30 6 C -0.193408 -0.958569 1.019038 0
M  V30 7 C 0.091402 -0.279835 -0.088226 0
M  V30 8 C 0.669603 1.046605 -0.374520 0
M  V30 9 C 0.823317 1.431340 -1.675595 0
M  V30 10 C 1.374962 2.694857 -1.871859 0
M  V30 11 C 1.745693 3.513079 -0.823880 0
M  V30 12 C 1.552418 3.038399 0.465665 0
M  V30 13 C 1.937878 3.887324 1.620410 0
M  V30 14 N 3.315207 3.582243 1.944854 0
M  V30 15 S 3.871309 4.523409 3.287980 0
M  V30 16 N 2.935161 4.177262 4.719784 0
M  V30 17 O 5.284312 4.151198 3.632877 0
M  V30 18 O 3.797667 5.987622 3.010620 0
M  V30 19 C 1.010462 1.795102 0.733911 0
M  V30 20 S -0.398096 -1.361656 -1.413245 0
M  V30 21 C -0.973037 -2.701748 -0.323167 0
M  V30 22 N -1.511478 -3.922505 -0.607528 0
M  V30 23 C -1.771249 -4.483762 -1.800312 0
M  V30 24 C -1.557281 -3.959696 -3.171975 0
M  V30 25 C -2.306648 -5.713426 -1.480320 0
M  V30 26 N -2.347100 -5.840946 -0.137061 0
M  V30 27 C -1.850627 -4.722936 0.414370 0
M  V30 28 H -1.648260 -5.482193 4.841138 0
M  V30 29 H -0.837323 -4.003058 4.198521 0
M  V30 30 H -2.644942 -4.026076 4.525674 0
M  V30 31 H -2.379513 -5.988232 2.660269 0
M  V30 32 H 0.047192 -0.433763 1.934610 0
M  V30 33 H 0.556879 0.845916 -2.528222 0
M  V30 34 H 1.512007 3.034196 -2.892356 0
M  V30 35 H 2.167029 4.479136 -1.012017 0
M  V30 36 H 1.255429 3.698719 2.472475 0
M  V30 37 H 1.860861 4.943315 1.284468 0
M  V30 38 H 3.939091 3.835392 1.152404 0
M  V30 39 H 3.106007 3.194717 5.036778 0
M  V30 40 H 1.920339 4.277919 4.481579 0
M  V30 41 H 0.869702 1.447379 1.749964 0
M  V30 42 H -0.763887 -3.189824 -3.215536 0
M  V30 43 H -1.335460 -4.803055 -3.885605 0
M  V30 44 H -2.471580 -3.484160 -3.570710 0
M  V30 45 H -2.655621 -6.492325 -2.133088 0
M  V30 END ATOM
M  V30 BEGIN BOND
M  V30 1 1 1 2
M  V30 2 1 2 3
M  V30 3 2 3 4
M  V30 4 1 4 5
M  V30 5 1 5 6
M  V30 6 2 6 7
M  V30 7 1 7 8
M  V30 8 2 8 9
M  V30 9 1 9 10
M  V30 10 2 10 11
M  V30 11 1 11 12
M  V30 12 1 12 13
M  V30 13 1 13 14
M  V30 14 1 14 15
M  V30 15 1 15 16
M  V30 16 2 15 17
M  V30 17 2 15 18
M  V30 18 2 12 19
M  V30 19 1 7 20
M  V30 20 1 20 21
M  V30 21 1 21 22
M  V30 22 1 22 23
M  V30 23 1 23 24
M  V30 24 2 23 25
M  V30 25 1 25 26
M  V30 26 2 26 27
M  V30 27 1 27 3
M  V30 28 2 21 5
M  V30 29 1 27 22
M  V30 30 1 19 8
M  V30 31 1 1 28
M  V30 32 1 1 29
M  V30 33 1 1 30
M  V30 34 1 2 31
M  V30 35 1 6 32
M  V30 36 1 9 33
M  V30 37 1 10 34
M  V30 38 1 11 35
M  V30 39 1 13 36
M  V30 40 1 13 37
M  V30 41 1 14 38
M  V30 42 1 16 39
M  V30 43 1 16 40
M  V30 44 1 19 41
M  V30 45 1 24 42
M  V30 46 1 24 43
M  V30 47 1 24 44
M  V30 48 1 25 45
M  V30 END BOND
M  V30 END CTAB
M  END
>  <Dataset>  (517) 
ChEMBL_Kinases

>  <Ligand_Instance>  (517) 
nan

>  <PDB_ID>  (517) 
nan

>  <Standardized_SMILES>  (517) 
CNc1nc2cc(-c3cccc(CNS(N)(=O)=O)c3)sc2n2c(C)cnc12

>  <Name>  (517) 
nan

>  <Pocket>  (517) 
nan

>  <ATP_Site>  (517) 
nan

>  <Peripheral>  (517) 
nan

>  <Num_H_Atoms_ProtBoundConf>  (517) 
nan

>  <Num_Resolved_Atoms>  (517) 
nan

>  <Num_Not_Resolved_Atoms>  (517) 
nan

$$$$
CHEMBL249224
     RDKit          3D

  0  0  0  0  0  0  0  0  0  0999 V3000
M  V30 BEGIN CTAB
M  V30 COUNTS 42 45 0 0 0
M  V30 BEGIN ATOM
M  V30 1 N -1.913068 -5.392762 -1.298538 0
M  V30 2 C -0.611254 -5.086502 -0.754673 0
M  V30 3 C -0.404616 -3.568744 -0.727036 0
M  V30 4 C 0.963507 -3.294933 -0.152169 0
M  V30 5 C 1.206568 -1.830031 -0.100834 0
M  V30 6 C 1.985352 -1.298946 -1.115862 0
M  V30 7 C 2.260210 0.050380 -1.179434 0
M  V30 8 C 3.042500 0.515548 -2.215085 0
M  V30 9 C 3.282650 1.871667 -2.223841 0
M  V30 10 N 2.811294 2.761825 -1.301644 0
M  V30 11 C 2.056298 2.265380 -0.314590 0
M  V30 12 O 1.684499 3.161061 0.461964 0
M  V30 13 C 1.777303 0.933652 -0.242128 0
M  V30 14 C 1.012955 0.411721 0.754686 0
M  V30 15 C 0.503138 1.236190 1.724001 0
M  V30 16 C -0.278013 0.757191 2.764448 0
M  V30 17 C -0.872051 1.540697 3.846314 0
M  V30 18 C -2.059444 1.259504 4.495856 0
M  V30 19 N -2.184039 2.265005 5.410828 0
M  V30 20 N -1.153818 3.090072 5.322628 0
M  V30 21 C -0.281754 2.693726 4.352353 0
M  V30 22 C -0.529049 -0.609157 2.789531 0
M  V30 23 C -0.039229 -1.479744 1.837847 0
M  V30 24 C 0.729709 -0.925616 0.833698 0
M  V30 25 H -2.442864 -5.926047 -0.547806 0
M  V30 26 H -2.448582 -4.513916 -1.456736 0
M  V30 27 H 0.121177 -5.463951 -1.520435 0
M  V30 28 H -0.428955 -5.509941 0.246257 0
M  V30 29 H -1.210441 -3.070977 -0.168381 0
M  V30 30 H -0.461159 -3.272213 -1.805050 0
M  V30 31 H 1.735405 -3.789001 -0.755888 0
M  V30 32 H 1.029044 -3.739604 0.868484 0
M  V30 33 H 2.405139 -1.945735 -1.898190 0
M  V30 34 H 3.452814 -0.123495 -2.984400 0
M  V30 35 H 3.898607 2.232616 -3.040028 0
M  V30 36 H 3.088173 3.769616 -1.453980 0
M  V30 37 H 0.604882 2.292600 1.842927 0
M  V30 38 H -2.692908 0.408993 4.269922 0
M  V30 39 H -1.016992 3.940064 5.917275 0
M  V30 40 H 0.641849 3.158268 4.048350 0
M  V30 41 H -1.135418 -1.039682 3.583205 0
M  V30 42 H -0.264527 -2.527324 1.917864 0
M  V30 END ATOM
M  V30 BEGIN BOND
M  V30 1 1 1 2
M  V30 2 1 2 3
M  V30 3 1 3 4
M  V30 4 1 4 5
M  V30 5 2 5 6
M  V30 6 1 6 7
M  V30 7 1 7 8
M  V30 8 2 8 9
M  V30 9 1 9 10
M  V30 10 1 10 11
M  V30 11 2 11 12
M  V30 12 1 11 13
M  V30 13 1 13 14
M  V30 14 2 14 15
M  V30 15 1 15 16
M  V30 16 1 16 17
M  V30 17 1 17 18
M  V30 18 2 18 19
M  V30 19 1 19 20
M  V30 20 1 20 21
M  V30 21 2 16 22
M  V30 22 1 22 23
M  V30 23 2 23 24
M  V30 24 1 24 5
M  V30 25 2 13 7
M  V30 26 1 24 14
M  V30 27 2 21 17
M  V30 28 1 1 25
M  V30 29 1 1 26
M  V30 30 1 2 27
M  V30 31 1 2 28
M  V30 32 1 3 29
M  V30 33 1 3 30
M  V30 34 1 4 31
M  V30 35 1 4 32
M  V30 36 1 6 33
M  V30 37 1 8 34
M  V30 38 1 9 35
M  V30 39 1 10 36
M  V30 40 1 15 37
M  V30 41 1 18 38
M  V30 42 1 20 39
M  V30 43 1 21 40
M  V30 44 1 22 41
M  V30 45 1 23 42
M  V30 END BOND
M  V30 END CTAB
M  END
>  <Dataset>  (518) 
ChEMBL_Kinases

>  <Ligand_Instance>  (518) 
nan

>  <PDB_ID>  (518) 
nan

>  <Standardized_SMILES>  (518) 
NCCCc1cc2cc[nH]c(=O)c2c2cc(-c3cn[nH]c3)ccc12

>  <Name>  (518) 
nan

>  <Pocket>  (518) 
nan

>  <ATP_Site>  (518) 
nan

>  <Peripheral>  (518) 
nan

>  <Num_H_Atoms_ProtBoundConf>  (518) 
nan

>  <Num_Resolved_Atoms>  (518) 
nan

>  <Num_Not_Resolved_Atoms>  (518) 
nan

$$$$
CHEMBL257834
     RDKit          3D

  0  0  0  0  0  0  0  0  0  0999 V3000
M  V30 BEGIN CTAB
M  V30 COUNTS 75 80 0 0 0
M  V30 BEGIN ATOM
M  V30 1 C 2.895700 -3.603843 -1.120003 0
M  V30 2 C 2.755704 -2.090617 -0.842943 0
M  V30 3 C 2.097482 -2.014342 0.529070 0
M  V30 4 C 1.827388 -1.552359 -1.891998 0
M  V30 5 C 4.129541 -1.523462 -0.846958 0
M  V30 6 N 4.196659 -0.148772 -0.594514 0
M  V30 7 C 3.745017 0.801868 -1.500296 0
M  V30 8 C 4.325097 2.188258 -1.338126 0
M  V30 9 C 4.562997 2.589597 0.069364 0
M  V30 10 N 3.412873 2.717512 0.901465 0
M  V30 11 C 3.054561 3.708670 1.854005 0
M  V30 12 O 3.817027 4.675226 2.075152 0
M  V30 13 C 1.789843 3.635123 2.607935 0
M  V30 14 C 1.572972 4.593119 3.620961 0
M  V30 15 S -0.071387 4.123786 4.245391 0
M  V30 16 C -0.198039 2.704484 3.030475 0
M  V30 17 N -1.445303 1.921897 3.108758 0
M  V30 18 C -1.663086 0.888032 2.177494 0
M  V30 19 O -0.737551 0.700875 1.313449 0
M  V30 20 C -2.845565 0.039167 2.131633 0
M  V30 21 C -3.770597 0.107213 3.151203 0
M  V30 22 C -4.901700 -0.681024 3.084061 0
M  V30 23 C -5.062762 -1.510218 1.991981 0
M  V30 24 C -6.086878 -2.372637 1.697352 0
M  V30 25 C -5.782251 -2.966163 0.493004 0
M  V30 26 N -4.590051 -2.502992 0.013613 0
M  V30 27 C -4.168736 -1.615487 0.946740 0
M  V30 28 C -3.055909 -0.807215 1.064961 0
M  V30 29 C -4.082255 -2.973628 -1.226587 0
M  V30 30 C -3.039206 -4.028745 -1.073333 0
M  V30 31 C -2.040114 -3.008407 -1.618258 0
M  V30 32 C -3.165625 -2.122417 -2.036864 0
M  V30 33 C -5.259411 -3.361175 -2.136808 0
M  V30 34 N -5.999767 -4.403156 -1.472972 0
M  V30 35 C -6.592913 -3.970630 -0.226760 0
M  V30 36 O -7.690294 -4.406626 0.202168 0
M  V30 37 N 0.807900 2.760173 2.437946 0
M  V30 38 C 5.447081 1.482478 0.676087 0
M  V30 39 C 4.586494 0.243145 0.714480 0
M  V30 40 H 1.944367 -4.034023 -0.797300 0
M  V30 41 H 3.165913 -3.767249 -2.160701 0
M  V30 42 H 3.668573 -3.995734 -0.402117 0
M  V30 43 H 1.812630 -0.960783 0.781011 0
M  V30 44 H 2.779552 -2.366770 1.325635 0
M  V30 45 H 1.204799 -2.682615 0.545691 0
M  V30 46 H 1.173990 -2.407649 -2.253958 0
M  V30 47 H 2.397340 -1.157969 -2.734055 0
M  V30 48 H 1.096707 -0.847224 -1.438557 0
M  V30 49 H 4.696550 -2.090946 -0.041101 0
M  V30 50 H 4.625704 -1.847411 -1.801004 0
M  V30 51 H 2.653176 0.900922 -1.529148 0
M  V30 52 H 4.061008 0.490455 -2.543608 0
M  V30 53 H 3.685949 2.889839 -1.926754 0
M  V30 54 H 5.325681 2.202883 -1.849337 0
M  V30 55 H 5.119568 3.553029 0.099177 0
M  V30 56 H 2.682763 1.949765 0.803174 0
M  V30 57 H 2.146480 5.438624 4.024758 0
M  V30 58 H -2.170443 2.085193 3.804285 0
M  V30 59 H -3.685140 0.739954 4.017042 0
M  V30 60 H -5.660065 -0.654475 3.878928 0
M  V30 61 H -6.968723 -2.543677 2.311921 0
M  V30 62 H -2.308984 -0.822250 0.316343 0
M  V30 63 H -3.193451 -4.922704 -1.693942 0
M  V30 64 H -2.836714 -4.321630 -0.008861 0
M  V30 65 H -1.451065 -3.502688 -2.446716 0
M  V30 66 H -1.319041 -2.644274 -0.882692 0
M  V30 67 H -3.120969 -1.052934 -1.869670 0
M  V30 68 H -3.291001 -2.243803 -3.158839 0
M  V30 69 H -5.829724 -2.423808 -2.298210 0
M  V30 70 H -4.837034 -3.663409 -3.123308 0
M  V30 71 H -6.176122 -5.415920 -1.754482 0
M  V30 72 H 6.220660 1.309447 -0.113591 0
M  V30 73 H 5.856209 1.776196 1.651549 0
M  V30 74 H 3.725116 0.337628 1.413794 0
M  V30 75 H 5.186923 -0.601814 1.143162 0
M  V30 END ATOM
M  V30 BEGIN BOND
M  V30 1 1 1 2
M  V30 2 1 2 3
M  V30 3 1 2 4
M  V30 4 1 2 5
M  V30 5 1 5 6
M  V30 6 1 6 7
M  V30 7 1 7 8
M  V30 8 1 8 9
M  V30 9 1 9 10
M  V30 10 1 10 11
M  V30 11 2 11 12
M  V30 12 1 11 13
M  V30 13 2 13 14
M  V30 14 1 14 15
M  V30 15 1 15 16
M  V30 16 1 16 17
M  V30 17 1 17 18
M  V30 18 2 18 19
M  V30 19 1 18 20
M  V30 20 2 20 21
M  V30 21 1 21 22
M  V30 22 2 22 23
M  V30 23 1 23 24
M  V30 24 2 24 25
M  V30 25 1 25 26
M  V30 26 1 26 27
M  V30 27 2 27 28
M  V30 28 1 26 29
M  V30 29 1 29 30
M  V30 30 1 30 31
M  V30 31 1 31 32
M  V30 32 1 29 33
M  V30 33 1 33 34
M  V30 34 1 34 35
M  V30 35 2 35 36
M  V30 36 2 16 37
M  V30 37 1 9 38
M  V30 38 1 38 39
M  V30 39 1 39 6
M  V30 40 1 37 13
M  V30 41 1 28 20
M  V30 42 1 32 29
M  V30 43 1 27 23
M  V30 44 1 35 25
M  V30 45 1 1 40
M  V30 46 1 1 41
M  V30 47 1 1 42
M  V30 48 1 3 43
M  V30 49 1 3 44
M  V30 50 1 3 45
M  V30 51 1 4 46
M  V30 52 1 4 47
M  V30 53 1 4 48
M  V30 54 1 5 49
M  V30 55 1 5 50
M  V30 56 1 7 51
M  V30 57 1 7 52
M  V30 58 1 8 53
M  V30 59 1 8 54
M  V30 60 1 9 55
M  V30 61 1 10 56
M  V30 62 1 14 57
M  V30 63 1 17 58
M  V30 64 1 21 59
M  V30 65 1 22 60
M  V30 66 1 24 61
M  V30 67 1 28 62
M  V30 68 1 30 63
M  V30 69 1 30 64
M  V30 70 1 31 65
M  V30 71 1 31 66
M  V30 72 1 32 67
M  V30 73 1 32 68
M  V30 74 1 33 69
M  V30 75 1 33 70
M  V30 76 1 34 71
M  V30 77 1 38 72
M  V30 78 1 38 73
M  V30 79 1 39 74
M  V30 80 1 39 75
M  V30 END BOND
M  V30 END CTAB
M  END
>  <Dataset>  (519) 
ChEMBL_Kinases

>  <Ligand_Instance>  (519) 
nan

>  <PDB_ID>  (519) 
nan

>  <Standardized_SMILES>  (519) 
CC(C)(C)CN1CCC(NC(=O)c2csc(NC(=O)c3ccc4cc5n(c4c3)C3(CCC3)CNC5=O)n2)CC1

>  <Name>  (519) 
nan

>  <Pocket>  (519) 
nan

>  <ATP_Site>  (519) 
nan

>  <Peripheral>  (519) 
nan

>  <Num_H_Atoms_ProtBoundConf>  (519) 
nan

>  <Num_Resolved_Atoms>  (519) 
nan

>  <Num_Not_Resolved_Atoms>  (519) 
nan

$$$$
CHEMBL257769
     RDKit          3D

  0  0  0  0  0  0  0  0  0  0999 V3000
M  V30 BEGIN CTAB
M  V30 COUNTS 53 57 0 0 0
M  V30 BEGIN ATOM
M  V30 1 C 5.472538 -3.394069 4.462101 0
M  V30 2 O 4.858266 -2.103880 4.445805 0
M  V30 3 C 4.801493 -1.437662 3.218664 0
M  V30 4 C 4.219053 -0.188887 3.146195 0
M  V30 5 C 4.121688 0.544470 1.958577 0
M  V30 6 C 4.652426 -0.054340 0.816589 0
M  V30 7 S 4.611763 0.728931 -0.748202 0
M  V30 8 O 5.778637 0.283559 -1.557621 0
M  V30 9 O 4.721343 2.234101 -0.571864 0
M  V30 10 N 3.164118 0.317709 -1.604591 0
M  V30 11 C 1.859764 0.626881 -1.141582 0
M  V30 12 C 1.595656 1.883696 -0.638179 0
M  V30 13 C 0.326761 2.184678 -0.187701 0
M  V30 14 C -0.727751 1.301522 -0.202086 0
M  V30 15 C -2.060043 1.630985 0.275529 0
M  V30 16 C -2.331799 2.879435 0.778245 0
M  V30 17 C -3.597147 3.178870 1.227260 0
M  V30 18 N -4.579700 2.277015 1.186718 0
M  V30 19 C -4.326754 1.053352 0.697652 0
M  V30 20 N -5.392500 0.116868 0.667930 0
M  V30 21 C -5.493658 -1.214764 0.238750 0
M  V30 22 C -6.603234 -2.008505 0.269611 0
M  V30 23 C -6.658632 -3.289971 -0.154844 0
M  V30 24 C -5.559389 -3.933590 -0.675946 0
M  V30 25 N -5.375342 -5.157665 -1.146133 0
M  V30 26 C -4.436325 -5.653546 -1.572783 0
M  V30 27 S -3.145903 -4.235304 -1.438822 0
M  V30 28 C -4.411048 -3.136587 -0.716277 0
M  V30 29 C -4.371605 -1.821588 -0.275964 0
M  V30 30 N -3.090868 0.778811 0.265243 0
M  V30 31 C -0.404033 0.065484 -0.714671 0
M  V30 32 C 0.840423 -0.305480 -1.182469 0
M  V30 33 C 5.232851 -1.292237 0.874117 0
M  V30 34 C 5.311818 -1.987669 2.062853 0
M  V30 35 H 5.526099 -3.779196 5.490984 0
M  V30 36 H 4.860794 -4.055116 3.783421 0
M  V30 37 H 6.499821 -3.357851 4.068276 0
M  V30 38 H 3.814385 0.248186 4.060638 0
M  V30 39 H 3.670617 1.514982 1.894859 0
M  V30 40 H 3.139722 -0.186633 -2.522546 0
M  V30 41 H 2.400142 2.589862 -0.616083 0
M  V30 42 H 0.212345 3.184044 0.186423 0
M  V30 43 H -1.620944 3.677836 0.857652 0
M  V30 44 H -3.849634 4.164522 1.634540 0
M  V30 45 H -6.335220 0.443320 1.037838 0
M  V30 46 H -7.512960 -1.538092 0.679513 0
M  V30 47 H -7.621295 -3.795562 -0.065277 0
M  V30 48 H -4.544169 -6.796945 -1.935552 0
M  V30 49 H -3.392667 -1.415753 -0.404188 0
M  V30 50 H -1.139935 -0.718280 -0.782147 0
M  V30 51 H 1.055955 -1.278907 -1.575370 0
M  V30 52 H 5.662287 -1.817112 0.040554 0
M  V30 53 H 5.757854 -2.967912 2.171963 0
M  V30 END ATOM
M  V30 BEGIN BOND
M  V30 1 1 1 2
M  V30 2 1 2 3
M  V30 3 2 3 4
M  V30 4 1 4 5
M  V30 5 2 5 6
M  V30 6 1 6 7
M  V30 7 2 7 8
M  V30 8 2 7 9
M  V30 9 1 7 10
M  V30 10 1 10 11
M  V30 11 2 11 12
M  V30 12 1 12 13
M  V30 13 2 13 14
M  V30 14 1 14 15
M  V30 15 2 15 16
M  V30 16 1 16 17
M  V30 17 2 17 18
M  V30 18 1 18 19
M  V30 19 1 19 20
M  V30 20 1 20 21
M  V30 21 2 21 22
M  V30 22 1 22 23
M  V30 23 2 23 24
M  V30 24 1 24 25
M  V30 25 2 25 26
M  V30 26 1 26 27
M  V30 27 1 27 28
M  V30 28 2 28 29
M  V30 29 2 19 30
M  V30 30 1 14 31
M  V30 31 2 31 32
M  V30 32 1 6 33
M  V30 33 2 33 34
M  V30 34 1 34 3
M  V30 35 1 32 11
M  V30 36 1 30 15
M  V30 37 1 29 21
M  V30 38 1 28 24
M  V30 39 1 1 35
M  V30 40 1 1 36
M  V30 41 1 1 37
M  V30 42 1 4 38
M  V30 43 1 5 39
M  V30 44 1 10 40
M  V30 45 1 12 41
M  V30 46 1 13 42
M  V30 47 1 16 43
M  V30 48 1 17 44
M  V30 49 1 20 45
M  V30 50 1 22 46
M  V30 51 1 23 47
M  V30 52 1 26 48
M  V30 53 1 29 49
M  V30 54 1 31 50
M  V30 55 1 32 51
M  V30 56 1 33 52
M  V30 57 1 34 53
M  V30 END BOND
M  V30 END CTAB
M  END
>  <Dataset>  (520) 
ChEMBL_Kinases

>  <Ligand_Instance>  (520) 
nan

>  <PDB_ID>  (520) 
nan

>  <Standardized_SMILES>  (520) 
COc1ccc(S(=O)(=O)Nc2ccc(-c3ccnc(Nc4ccc5ncsc5c4)n3)cc2)cc1

>  <Name>  (520) 
nan

>  <Pocket>  (520) 
nan

>  <ATP_Site>  (520) 
nan

>  <Peripheral>  (520) 
nan

>  <Num_H_Atoms_ProtBoundConf>  (520) 
nan

>  <Num_Resolved_Atoms>  (520) 
nan

>  <Num_Not_Resolved_Atoms>  (520) 
nan

$$$$
CHEMBL257736
     RDKit          3D

  0  0  0  0  0  0  0  0  0  0999 V3000
M  V30 BEGIN CTAB
M  V30 COUNTS 76 81 0 0 0
M  V30 BEGIN ATOM
M  V30 1 C -4.914442 -3.244982 -0.764876 0
M  V30 2 C -3.788286 -2.404345 -1.250459 0
M  V30 3 N -2.653184 -3.096559 -1.782252 0
M  V30 4 C -2.027855 -3.761941 -0.657548 0
M  V30 5 C -0.796825 -4.557718 -1.031002 0
M  V30 6 C -2.990419 -4.029699 -2.832414 0
M  V30 7 C -3.756324 -3.337955 -3.950939 0
M  V30 8 N -2.506202 -2.693789 -4.294631 0
M  V30 9 C -2.373139 -1.371522 -4.787869 0
M  V30 10 O -3.443707 -0.698083 -4.947894 0
M  V30 11 C -1.210372 -0.590174 -5.164056 0
M  V30 12 C -0.766393 -0.318512 -6.435513 0
M  V30 13 C 0.370420 0.435958 -6.629543 0
M  V30 14 C 1.116217 0.954557 -5.605039 0
M  V30 15 C 0.705364 0.704891 -4.288740 0
M  V30 16 N 1.466891 1.209302 -3.226216 0
M  V30 17 C 1.361577 1.436725 -1.832049 0
M  V30 18 N 1.431136 2.661337 -1.307828 0
M  V30 19 C 1.348102 2.935660 0.002081 0
M  V30 20 N 1.184470 1.828561 0.705966 0
M  V30 21 C 1.115188 0.633934 0.210925 0
M  V30 22 C 0.949882 -0.477586 1.043633 0
M  V30 23 C 0.937932 -1.499361 0.117320 0
M  V30 24 N 1.083585 -1.006359 -1.137655 0
M  V30 25 N 1.193889 0.311041 -1.078712 0
M  V30 26 C 0.865665 0.003981 2.462656 0
M  V30 27 C 0.390917 -0.964012 3.461288 0
M  V30 28 C -0.008490 -0.513986 4.794844 0
M  V30 29 C 0.815160 0.101882 5.816561 0
M  V30 30 C 1.380580 1.419778 5.507494 0
M  V30 31 O 1.546779 2.031421 4.435285 0
M  V30 32 N 1.945040 2.729063 5.227537 0
M  V30 33 C 2.143958 3.374705 3.961533 0
M  V30 34 C 3.447773 3.908137 3.968550 0
M  V30 35 C 4.057146 4.564240 2.885183 0
M  V30 36 C 3.318450 4.703455 1.698757 0
M  V30 37 C 2.055402 4.164926 1.748801 0
M  V30 38 C 1.449308 3.530011 2.792254 0
M  V30 39 N 1.464283 4.265896 0.457569 0
M  V30 40 C -0.434046 -0.052804 -4.162798 0
M  V30 41 C -1.884026 -3.942887 -3.901109 0
M  V30 42 H -5.598437 -2.545346 -0.193488 0
M  V30 43 H -5.513768 -3.711892 -1.569882 0
M  V30 44 H -4.639756 -4.013185 -0.050476 0
M  V30 45 H -4.163884 -1.591480 -1.906361 0
M  V30 46 H -3.387417 -1.857565 -0.339654 0
M  V30 47 H -2.668531 -4.428731 -0.089404 0
M  V30 48 H -1.678998 -2.955250 0.029563 0
M  V30 49 H -0.475866 -5.040093 -0.060183 0
M  V30 50 H 0.061422 -3.924791 -1.311284 0
M  V30 51 H -1.019933 -5.389552 -1.707978 0
M  V30 52 H -3.309758 -5.030288 -2.558468 0
M  V30 53 H -4.088295 -4.052015 -4.739673 0
M  V30 54 H -4.579901 -2.688464 -3.606668 0
M  V30 55 H -1.360279 -0.734072 -7.242082 0
M  V30 56 H 0.711962 0.645744 -7.657734 0
M  V30 57 H 2.016122 1.553024 -5.734756 0
M  V30 58 H 2.440668 1.543710 -3.435221 0
M  V30 59 H 0.822972 -2.466781 0.542263 0
M  V30 60 H 0.257341 0.896338 2.444111 0
M  V30 61 H 1.926621 0.291351 2.755061 0
M  V30 62 H 1.162612 -1.808016 3.579506 0
M  V30 63 H -0.480996 -1.543470 3.024706 0
M  V30 64 H -0.989076 0.108341 4.628642 0
M  V30 65 H -0.521184 -1.443984 5.276307 0
M  V30 66 H 0.253578 0.166687 6.817866 0
M  V30 67 H 1.677692 -0.593306 6.068523 0
M  V30 68 H 2.244431 3.277867 6.124726 0
M  V30 69 H 4.163548 3.884120 4.806374 0
M  V30 70 H 5.082361 4.965383 2.922838 0
M  V30 71 H 3.713263 5.206395 0.801286 0
M  V30 72 H 0.451138 3.190476 2.669984 0
M  V30 73 H 1.211595 5.123023 -0.034854 0
M  V30 74 H -0.727069 -0.226066 -3.121981 0
M  V30 75 H -0.875541 -3.836020 -3.516135 0
M  V30 76 H -2.054568 -4.704123 -4.684476 0
M  V30 END ATOM
M  V30 BEGIN BOND
M  V30 1 1 1 2
M  V30 2 1 2 3
M  V30 3 1 3 4
M  V30 4 1 4 5
M  V30 5 1 3 6
M  V30 6 1 6 7
M  V30 7 1 7 8
M  V30 8 1 8 9
M  V30 9 2 9 10
M  V30 10 1 9 11
M  V30 11 2 11 12
M  V30 12 1 12 13
M  V30 13 2 13 14
M  V30 14 1 14 15
M  V30 15 1 15 16
M  V30 16 1 16 17
M  V30 17 2 17 18
M  V30 18 1 18 19
M  V30 19 2 19 20
M  V30 20 1 20 21
M  V30 21 2 21 22
M  V30 22 1 22 23
M  V30 23 2 23 24
M  V30 24 1 24 25
M  V30 25 1 22 26
M  V30 26 1 26 27
M  V30 27 1 27 28
M  V30 28 1 28 29
M  V30 29 1 29 30
M  V30 30 2 30 31
M  V30 31 1 30 32
M  V30 32 1 32 33
M  V30 33 2 33 34
M  V30 34 1 34 35
M  V30 35 2 35 36
M  V30 36 1 36 37
M  V30 37 2 37 38
M  V30 38 1 37 39
M  V30 39 2 15 40
M  V30 40 1 8 41
M  V30 41 1 41 6
M  V30 42 1 40 11
M  V30 43 1 25 17
M  V30 44 1 38 33
M  V30 45 1 39 19
M  V30 46 1 25 21
M  V30 47 1 1 42
M  V30 48 1 1 43
M  V30 49 1 1 44
M  V30 50 1 2 45
M  V30 51 1 2 46
M  V30 52 1 4 47
M  V30 53 1 4 48
M  V30 54 1 5 49
M  V30 55 1 5 50
M  V30 56 1 5 51
M  V30 57 1 6 52
M  V30 58 1 7 53
M  V30 59 1 7 54
M  V30 60 1 12 55
M  V30 61 1 13 56
M  V30 62 1 14 57
M  V30 63 1 16 58
M  V30 64 1 23 59
M  V30 65 1 26 60
M  V30 66 1 26 61
M  V30 67 1 27 62
M  V30 68 1 27 63
M  V30 69 1 28 64
M  V30 70 1 28 65
M  V30 71 1 29 66
M  V30 72 1 29 67
M  V30 73 1 32 68
M  V30 74 1 34 69
M  V30 75 1 35 70
M  V30 76 1 36 71
M  V30 77 1 38 72
M  V30 78 1 39 73
M  V30 79 1 40 74
M  V30 80 1 41 75
M  V30 81 1 41 76
M  V30 END BOND
M  V30 END CTAB
M  END
>  <Dataset>  (521) 
ChEMBL_Kinases

>  <Ligand_Instance>  (521) 
nan

>  <PDB_ID>  (521) 
nan

>  <Standardized_SMILES>  (521) 
CCN(CC)C1CN(C(=O)c2cccc(Nc3nc4nc5c(cnn35)CCCCC(=O)Nc3cccc(c3)N4)c2)C1

>  <Name>  (521) 
nan

>  <Pocket>  (521) 
nan

>  <ATP_Site>  (521) 
nan

>  <Peripheral>  (521) 
nan

>  <Num_H_Atoms_ProtBoundConf>  (521) 
nan

>  <Num_Resolved_Atoms>  (521) 
nan

>  <Num_Not_Resolved_Atoms>  (521) 
nan

$$$$
CHEMBL257512
     RDKit          3D

  0  0  0  0  0  0  0  0  0  0999 V3000
M  V30 BEGIN CTAB
M  V30 COUNTS 59 63 0 0 0
M  V30 BEGIN ATOM
M  V30 1 C 3.160475 -0.047417 6.740593 0
M  V30 2 O 1.846466 0.172573 6.334814 0
M  V30 3 C 1.461806 0.227342 4.991414 0
M  V30 4 C 2.533733 0.030978 4.112712 0
M  V30 5 C 2.274710 0.063481 2.766997 0
M  V30 6 C 1.017732 0.278805 2.245236 0
M  V30 7 C 0.017311 0.463200 3.170188 0
M  V30 8 C 0.164143 0.450604 4.537580 0
M  V30 9 O -0.678680 0.608449 5.585812 0
M  V30 10 C -2.028023 0.838638 5.644273 0
M  V30 11 C -2.914239 -0.193737 5.056048 0
M  V30 12 C -3.516880 -0.338070 3.826769 0
M  V30 13 C -4.290556 -1.444881 3.560900 0
M  V30 14 N -4.508645 -2.419858 4.431435 0
M  V30 15 C -3.947572 -2.328772 5.639482 0
M  V30 16 C -3.158717 -1.237103 5.962411 0
M  V30 17 N 0.479002 0.359333 0.938786 0
M  V30 18 C 1.162720 -0.164039 -0.220248 0
M  V30 19 C 0.291137 -0.186376 -1.288886 0
M  V30 20 C 0.760716 -0.662143 -2.512986 0
M  V30 21 C -0.032053 -0.753188 -3.737338 0
M  V30 22 C -1.043322 0.183141 -3.977832 0
M  V30 23 C -1.739836 0.019420 -5.157202 0
M  V30 24 C -1.543103 -0.959412 -6.109174 0
M  V30 25 N -2.299207 -1.057951 -7.289210 0 CHG=1 VAL=4
M  V30 26 O -3.470549 -0.643310 -7.390529 0
M  V30 27 O -1.675921 -1.651473 -8.370390 0 CHG=-1 VAL=1
M  V30 28 C -0.521413 -1.871391 -5.823753 0
M  V30 29 O -0.299301 -2.866533 -6.760819 0
M  V30 30 C 0.654875 -3.874650 -6.690276 0
M  V30 31 C 0.209210 -1.751325 -4.651410 0
M  V30 32 C 2.067902 -1.090475 -2.615095 0
M  V30 33 C 2.960930 -1.079720 -1.564797 0
M  V30 34 C 2.463502 -0.603103 -0.368571 0
M  V30 35 C 3.519923 -0.655236 0.637304 0
M  V30 36 O 4.640604 -1.190403 0.353976 0
M  V30 37 N 3.450604 -0.149318 1.985581 0
M  V30 38 H 3.304153 0.094153 7.832913 0
M  V30 39 H 3.479870 -1.086039 6.514216 0
M  V30 40 H 3.853945 0.683760 6.231799 0
M  V30 41 H 3.557583 -0.146421 4.402187 0
M  V30 42 H -0.982630 0.640877 2.859655 0
M  V30 43 H -2.239615 1.808325 5.095107 0
M  V30 44 H -2.397315 1.059886 6.686008 0
M  V30 45 H -3.296488 0.499649 3.184033 0
M  V30 46 H -4.704465 -1.430835 2.554470 0
M  V30 47 H -4.146658 -3.142643 6.324324 0
M  V30 48 H -2.769109 -1.294942 6.973010 0
M  V30 49 H -0.443417 0.807122 0.774333 0
M  V30 50 H -0.736343 0.137139 -1.259222 0
M  V30 51 H -1.273751 0.984685 -3.294950 0
M  V30 52 H -2.533412 0.757388 -5.342882 0
M  V30 53 H 0.503763 -4.585927 -5.867957 0
M  V30 54 H 1.705889 -3.498027 -6.771502 0
M  V30 55 H 0.517101 -4.491741 -7.625596 0
M  V30 56 H 0.981170 -2.490312 -4.498266 0
M  V30 57 H 2.484022 -1.473849 -3.560498 0
M  V30 58 H 3.984187 -1.418729 -1.658493 0
M  V30 59 H 4.350906 0.095462 2.463066 0
M  V30 END ATOM
M  V30 BEGIN BOND
M  V30 1 1 1 2
M  V30 2 1 2 3
M  V30 3 2 3 4
M  V30 4 1 4 5
M  V30 5 2 5 6
M  V30 6 1 6 7
M  V30 7 2 7 8
M  V30 8 1 8 9
M  V30 9 1 9 10
M  V30 10 1 10 11
M  V30 11 2 11 12
M  V30 12 1 12 13
M  V30 13 2 13 14
M  V30 14 1 14 15
M  V30 15 2 15 16
M  V30 16 1 6 17
M  V30 17 1 17 18
M  V30 18 2 18 19
M  V30 19 1 19 20
M  V30 20 1 20 21
M  V30 21 2 21 22
M  V30 22 1 22 23
M  V30 23 2 23 24
M  V30 24 1 24 25
M  V30 25 2 25 26
M  V30 26 1 25 27
M  V30 27 1 24 28
M  V30 28 1 28 29
M  V30 29 1 29 30
M  V30 30 2 28 31
M  V30 31 2 20 32
M  V30 32 1 32 33
M  V30 33 2 33 34
M  V30 34 1 34 35
M  V30 35 2 35 36
M  V30 36 1 35 37
M  V30 37 1 8 3
M  V30 38 1 16 11
M  V30 39 1 34 18
M  V30 40 1 37 5
M  V30 41 1 31 21
M  V30 42 1 1 38
M  V30 43 1 1 39
M  V30 44 1 1 40
M  V30 45 1 4 41
M  V30 46 1 7 42
M  V30 47 1 10 43
M  V30 48 1 10 44
M  V30 49 1 12 45
M  V30 50 1 13 46
M  V30 51 1 15 47
M  V30 52 1 16 48
M  V30 53 1 17 49
M  V30 54 1 19 50
M  V30 55 1 22 51
M  V30 56 1 23 52
M  V30 57 1 30 53
M  V30 58 1 30 54
M  V30 59 1 30 55
M  V30 60 1 31 56
M  V30 61 1 32 57
M  V30 62 1 33 58
M  V30 63 1 37 59
M  V30 END BOND
M  V30 END CTAB
M  END
>  <Dataset>  (522) 
ChEMBL_Kinases

>  <Ligand_Instance>  (522) 
nan

>  <PDB_ID>  (522) 
nan

>  <Standardized_SMILES>  (522) 
COc1cc2c(cc1OCc1ccncc1)Nc1cc(-c3ccc([N+](=O)[O-])c(OC)c3)ccc1C(=O)N2

>  <Name>  (522) 
nan

>  <Pocket>  (522) 
nan

>  <ATP_Site>  (522) 
nan

>  <Peripheral>  (522) 
nan

>  <Num_H_Atoms_ProtBoundConf>  (522) 
nan

>  <Num_Resolved_Atoms>  (522) 
nan

>  <Num_Not_Resolved_Atoms>  (522) 
nan

$$$$
CHEMBL257441
     RDKit          3D

  0  0  0  0  0  0  0  0  0  0999 V3000
M  V30 BEGIN CTAB
M  V30 COUNTS 72 77 0 0 0
M  V30 BEGIN ATOM
M  V30 1 C 6.236471 -3.276559 4.745007 0
M  V30 2 N 4.839302 -3.397040 4.357571 0
M  V30 3 C 3.858517 -3.723075 5.378064 0
M  V30 4 C 4.444614 -3.201955 3.022070 0
M  V30 5 N 3.567830 -2.234496 2.699755 0
M  V30 6 C 3.151684 -1.999528 1.435956 0
M  V30 7 C 2.204087 -0.930425 1.202355 0
M  V30 8 C 0.929398 -0.907580 1.758174 0
M  V30 9 C 0.078725 0.142579 1.493220 0
M  V30 10 C 0.436513 1.199608 0.683493 0
M  V30 11 C -0.388111 2.372183 0.324183 0
M  V30 12 N -1.138561 2.211163 -0.901540 0
M  V30 13 C -2.006386 1.082489 -0.779598 0
M  V30 14 C -3.238418 1.512486 -0.014409 0
M  V30 15 C -4.146238 2.207375 -1.040400 0
M  V30 16 N -4.946667 1.206499 -1.701165 0
M  V30 17 C -5.070272 0.644915 -2.913287 0
M  V30 18 O -4.323074 1.009586 -3.849672 0
M  V30 19 N -6.033761 -0.286689 -2.964708 0
M  V30 20 C -6.538757 -0.308105 -1.718802 0
M  V30 21 C -7.574136 -1.130083 -1.287362 0
M  V30 22 C -7.995706 -1.047959 0.023299 0
M  V30 23 C -7.360784 -0.144015 0.847606 0
M  V30 24 C -6.343878 0.657624 0.408430 0
M  V30 25 C -5.886798 0.604710 -0.914039 0
M  V30 26 C -3.222160 2.968585 -1.954149 0
M  V30 27 C -1.956406 3.376095 -1.182001 0
M  V30 28 C 1.716187 1.177998 0.124801 0
M  V30 29 C 2.602799 0.125741 0.375093 0
M  V30 30 C 3.644218 -2.788555 0.401066 0
M  V30 31 C 3.160235 -2.491268 -0.949999 0
M  V30 32 C 1.777798 -2.687126 -1.059688 0
M  V30 33 C 1.155295 -2.452025 -2.268569 0
M  V30 34 C 1.871897 -2.026789 -3.372593 0
M  V30 35 C 3.233227 -1.842247 -3.234507 0
M  V30 36 C 3.890958 -2.067214 -2.041423 0
M  V30 37 C 4.547677 -3.790281 0.709433 0
M  V30 38 C 4.942034 -3.991986 2.010545 0
M  V30 39 C 5.886337 -5.050231 2.277137 0
M  V30 40 N 6.660061 -5.905211 2.507284 0
M  V30 41 H 6.411674 -2.410006 5.428395 0
M  V30 42 H 6.561761 -4.207251 5.233192 0
M  V30 43 H 6.847960 -3.061519 3.826396 0
M  V30 44 H 3.197097 -4.566840 5.101804 0
M  V30 45 H 3.182757 -2.820090 5.424205 0
M  V30 46 H 4.310104 -3.828307 6.367614 0
M  V30 47 H 0.616441 -1.720962 2.398005 0
M  V30 48 H -0.904444 0.178037 1.916929 0
M  V30 49 H 0.237052 3.306394 0.263355 0
M  V30 50 H -1.093184 2.545450 1.175924 0
M  V30 51 H -2.308858 0.768341 -1.825111 0
M  V30 52 H -1.524130 0.169600 -0.374538 0
M  V30 53 H -3.700674 0.575659 0.356116 0
M  V30 54 H -3.059365 2.242947 0.772980 0
M  V30 55 H -4.782801 2.944823 -0.489906 0
M  V30 56 H -6.253234 -0.816196 -3.841310 0
M  V30 57 H -8.068506 -1.837383 -1.938826 0
M  V30 58 H -8.792851 -1.678956 0.360783 0
M  V30 59 H -7.677235 -0.061187 1.889663 0
M  V30 60 H -5.857201 1.354347 1.048393 0
M  V30 61 H -3.700335 3.954605 -2.221843 0
M  V30 62 H -2.855553 2.434229 -2.824126 0
M  V30 63 H -1.379499 4.020477 -1.877642 0
M  V30 64 H -2.191942 3.982312 -0.293369 0
M  V30 65 H 2.122440 1.949568 -0.530904 0
M  V30 66 H 3.593088 0.110912 -0.058491 0
M  V30 67 H 1.106369 -3.015144 -0.277714 0
M  V30 68 H 0.075049 -2.586878 -2.419213 0
M  V30 69 H 1.422089 -1.833959 -4.328666 0
M  V30 70 H 3.840470 -1.510133 -4.068858 0
M  V30 71 H 4.942293 -1.949270 -1.846109 0
M  V30 72 H 4.899682 -4.370950 -0.113126 0
M  V30 END ATOM
M  V30 BEGIN BOND
M  V30 1 1 1 2
M  V30 2 1 2 3
M  V30 3 1 2 4
M  V30 4 2 4 5
M  V30 5 1 5 6
M  V30 6 1 6 7
M  V30 7 2 7 8
M  V30 8 1 8 9
M  V30 9 2 9 10
M  V30 10 1 10 11
M  V30 11 1 11 12
M  V30 12 1 12 13
M  V30 13 1 13 14
M  V30 14 1 14 15
M  V30 15 1 15 16
M  V30 16 1 16 17
M  V30 17 2 17 18
M  V30 18 1 17 19
M  V30 19 1 19 20
M  V30 20 2 20 21
M  V30 21 1 21 22
M  V30 22 2 22 23
M  V30 23 1 23 24
M  V30 24 2 24 25
M  V30 25 1 15 26
M  V30 26 1 26 27
M  V30 27 1 10 28
M  V30 28 2 28 29
M  V30 29 2 6 30
M  V30 30 1 30 31
M  V30 31 2 31 32
M  V30 32 1 32 33
M  V30 33 2 33 34
M  V30 34 1 34 35
M  V30 35 2 35 36
M  V30 36 1 30 37
M  V30 37 2 37 38
M  V30 38 1 38 39
M  V30 39 3 39 40
M  V30 40 1 38 4
M  V30 41 1 29 7
M  V30 42 1 36 31
M  V30 43 1 27 12
M  V30 44 1 25 16
M  V30 45 1 25 20
M  V30 46 1 1 41
M  V30 47 1 1 42
M  V30 48 1 1 43
M  V30 49 1 3 44
M  V30 50 1 3 45
M  V30 51 1 3 46
M  V30 52 1 8 47
M  V30 53 1 9 48
M  V30 54 1 11 49
M  V30 55 1 11 50
M  V30 56 1 13 51
M  V30 57 1 13 52
M  V30 58 1 14 53
M  V30 59 1 14 54
M  V30 60 1 15 55
M  V30 61 1 19 56
M  V30 62 1 21 57
M  V30 63 1 22 58
M  V30 64 1 23 59
M  V30 65 1 24 60
M  V30 66 1 26 61
M  V30 67 1 26 62
M  V30 68 1 27 63
M  V30 69 1 27 64
M  V30 70 1 28 65
M  V30 71 1 29 66
M  V30 72 1 32 67
M  V30 73 1 33 68
M  V30 74 1 34 69
M  V30 75 1 35 70
M  V30 76 1 36 71
M  V30 77 1 37 72
M  V30 END BOND
M  V30 END CTAB
M  END
>  <Dataset>  (523) 
ChEMBL_Kinases

>  <Ligand_Instance>  (523) 
nan

>  <PDB_ID>  (523) 
nan

>  <Standardized_SMILES>  (523) 
CN(C)c1nc(-c2ccc(CN3CCC(n4c(=O)[nH]c5ccccc54)CC3)cc2)c(-c2ccccc2)cc1C#N

>  <Name>  (523) 
nan

>  <Pocket>  (523) 
nan

>  <ATP_Site>  (523) 
nan

>  <Peripheral>  (523) 
nan

>  <Num_H_Atoms_ProtBoundConf>  (523) 
nan

>  <Num_Resolved_Atoms>  (523) 
nan

>  <Num_Not_Resolved_Atoms>  (523) 
nan

$$$$
CHEMBL257402
     RDKit          3D

  0  0  0  0  0  0  0  0  0  0999 V3000
M  V30 BEGIN CTAB
M  V30 COUNTS 50 54 0 0 0
M  V30 BEGIN ATOM
M  V30 1 O -0.557448 -4.926907 2.250909 0
M  V30 2 S -0.106248 -4.866451 0.813919 0
M  V30 3 O 0.888776 -5.952861 0.579024 0
M  V30 4 C 0.647155 -3.329102 0.471412 0
M  V30 5 C 0.232263 -2.200367 1.158101 0
M  V30 6 C 0.829056 -0.986807 0.885726 0
M  V30 7 C 1.831354 -0.808152 -0.040581 0
M  V30 8 C 2.445521 0.480381 -0.310898 0
M  V30 9 C 3.439587 0.625456 -1.237675 0
M  V30 10 C 3.994139 1.844325 -1.467773 0
M  V30 11 N 3.560551 2.905341 -0.780058 0
M  V30 12 C 2.586073 2.813167 0.141073 0
M  V30 13 N 2.201249 3.997879 0.812715 0
M  V30 14 C 1.230672 4.232759 1.812493 0
M  V30 15 C 0.941110 5.423507 2.393338 0
M  V30 16 C -0.008882 5.607243 3.360265 0
M  V30 17 C -0.763859 4.556197 3.826868 0
M  V30 18 N -1.718755 4.595491 4.762129 0
M  V30 19 C -2.346832 3.661201 5.135197 0
M  V30 20 S -1.628416 2.229924 4.078118 0
M  V30 21 C -0.494415 3.302096 3.249545 0
M  V30 22 C 0.483190 3.175056 2.270154 0
M  V30 23 N 2.086973 1.605222 0.320188 0
M  V30 24 C 2.219077 -1.944350 -0.702822 0
M  V30 25 C 1.648321 -3.179476 -0.461119 0
M  V30 26 N -1.483857 -5.146588 -0.195032 0
M  V30 27 C -2.507108 -4.163503 0.000960 0
M  V30 28 C -3.842550 -4.901477 -0.129402 0
M  V30 29 S -3.857265 -5.509004 -1.858203 0
M  V30 30 C -2.210834 -5.120525 -2.540803 0
M  V30 31 C -1.102742 -5.385343 -1.549797 0
M  V30 32 H -0.547222 -2.316044 1.884355 0
M  V30 33 H 0.455192 -0.171333 1.453668 0
M  V30 34 H 3.829202 -0.178698 -1.818010 0
M  V30 35 H 4.793246 2.033456 -2.194503 0
M  V30 36 H 2.700621 4.902162 0.556808 0
M  V30 37 H 1.534039 6.283060 2.035482 0
M  V30 38 H -0.112761 6.629074 3.718575 0
M  V30 39 H -3.136886 3.650201 5.898034 0
M  V30 40 H 0.533426 2.159227 1.965333 0
M  V30 41 H 2.977268 -1.967333 -1.443403 0
M  V30 42 H 1.951150 -4.089219 -0.983986 0
M  V30 43 H -2.473414 -3.399607 -0.795455 0
M  V30 44 H -2.430797 -3.705736 1.010500 0
M  V30 45 H -4.698520 -4.220074 0.007746 0
M  V30 46 H -3.835100 -5.758077 0.582016 0
M  V30 47 H -2.153481 -4.046700 -2.838478 0
M  V30 48 H -2.020247 -5.746018 -3.440785 0
M  V30 49 H -0.205417 -4.841549 -1.854703 0
M  V30 50 H -0.894632 -6.492561 -1.621898 0
M  V30 END ATOM
M  V30 BEGIN BOND
M  V30 1 2 1 2
M  V30 2 2 2 3
M  V30 3 1 2 4
M  V30 4 2 4 5
M  V30 5 1 5 6
M  V30 6 2 6 7
M  V30 7 1 7 8
M  V30 8 2 8 9
M  V30 9 1 9 10
M  V30 10 2 10 11
M  V30 11 1 11 12
M  V30 12 1 12 13
M  V30 13 1 13 14
M  V30 14 2 14 15
M  V30 15 1 15 16
M  V30 16 2 16 17
M  V30 17 1 17 18
M  V30 18 2 18 19
M  V30 19 1 19 20
M  V30 20 1 20 21
M  V30 21 2 21 22
M  V30 22 2 12 23
M  V30 23 1 7 24
M  V30 24 2 24 25
M  V30 25 1 2 26
M  V30 26 1 26 27
M  V30 27 1 27 28
M  V30 28 1 28 29
M  V30 29 1 29 30
M  V30 30 1 30 31
M  V30 31 1 25 4
M  V30 32 1 31 26
M  V30 33 1 23 8
M  V30 34 1 22 14
M  V30 35 1 21 17
M  V30 36 1 5 32
M  V30 37 1 6 33
M  V30 38 1 9 34
M  V30 39 1 10 35
M  V30 40 1 13 36
M  V30 41 1 15 37
M  V30 42 1 16 38
M  V30 43 1 19 39
M  V30 44 1 22 40
M  V30 45 1 24 41
M  V30 46 1 25 42
M  V30 47 1 27 43
M  V30 48 1 27 44
M  V30 49 1 28 45
M  V30 50 1 28 46
M  V30 51 1 30 47
M  V30 52 1 30 48
M  V30 53 1 31 49
M  V30 54 1 31 50
M  V30 END BOND
M  V30 END CTAB
M  END
>  <Dataset>  (524) 
ChEMBL_Kinases

>  <Ligand_Instance>  (524) 
nan

>  <PDB_ID>  (524) 
nan

>  <Standardized_SMILES>  (524) 
O=S(=O)(c1ccc(-c2ccnc(Nc3ccc4ncsc4c3)n2)cc1)N1CCSCC1

>  <Name>  (524) 
nan

>  <Pocket>  (524) 
nan

>  <ATP_Site>  (524) 
nan

>  <Peripheral>  (524) 
nan

>  <Num_H_Atoms_ProtBoundConf>  (524) 
nan

>  <Num_Resolved_Atoms>  (524) 
nan

>  <Num_Not_Resolved_Atoms>  (524) 
nan

$$$$
CHEMBL257317
     RDKit          3D

  0  0  0  0  0  0  0  0  0  0999 V3000
M  V30 BEGIN CTAB
M  V30 COUNTS 52 55 0 0 0
M  V30 BEGIN ATOM
M  V30 1 C 4.907170 -5.046752 1.301070 0
M  V30 2 C 5.510854 -3.664075 1.061979 0
M  V30 3 C 4.370956 -2.725408 0.816090 0
M  V30 4 C 4.086648 -2.295369 -0.464953 0
M  V30 5 C 3.028842 -1.429036 -0.664768 0
M  V30 6 C 2.300425 -1.032002 0.439721 0
M  V30 7 C 2.555465 -1.443038 1.745812 0
M  V30 8 C 3.616811 -2.308028 1.919909 0
M  V30 9 O 3.947995 -2.772605 3.184148 0
M  V30 10 C 3.280249 -2.434870 4.362442 0
M  V30 11 N 1.165463 -0.138759 0.445583 0
M  V30 12 C 0.256652 0.101326 -0.642149 0
M  V30 13 C -0.970316 0.567987 -0.193579 0
M  V30 14 C -2.016280 0.872742 -1.041850 0
M  V30 15 C -3.299590 1.364007 -0.539600 0
M  V30 16 C -4.144786 2.237079 -1.225201 0
M  V30 17 C -5.326828 2.611326 -0.616405 0
M  V30 18 C -5.680615 2.143933 0.638561 0
M  V30 19 N -6.895885 2.523920 1.272877 0 CHG=1 VAL=4
M  V30 20 O -7.455774 3.602899 1.033118 0
M  V30 21 O -7.593438 1.784768 2.200282 0 CHG=-1 VAL=1
M  V30 22 C -4.857497 1.268655 1.352608 0
M  V30 23 O -5.171582 0.783310 2.597245 0
M  V30 24 C -4.355237 -0.100801 3.334943 0
M  V30 25 C -3.672380 0.910728 0.710111 0
M  V30 26 C -1.784223 0.688236 -2.399656 0
M  V30 27 C -0.577361 0.225028 -2.898296 0
M  V30 28 C 0.438554 -0.065375 -2.000509 0
M  V30 29 C 1.672778 -0.547786 -2.638462 0
M  V30 30 O 1.672876 -0.485269 -3.896338 0
M  V30 31 N 2.849170 -1.068122 -2.029522 0
M  V30 32 H 4.009104 -4.907769 1.941001 0
M  V30 33 H 4.512696 -5.461015 0.332069 0
M  V30 34 H 5.599926 -5.743665 1.780782 0
M  V30 35 H 5.943948 -3.370752 2.042523 0
M  V30 36 H 6.232895 -3.669567 0.248628 0
M  V30 37 H 4.661466 -2.610506 -1.324180 0
M  V30 38 H 1.940796 -1.089147 2.559180 0
M  V30 39 H 2.401671 -3.110857 4.470745 0
M  V30 40 H 3.954085 -2.526798 5.257181 0
M  V30 41 H 2.885456 -1.375968 4.351981 0
M  V30 42 H 0.971021 0.393886 1.320992 0
M  V30 43 H -1.078493 0.688107 0.894626 0
M  V30 44 H -3.824466 2.563996 -2.182932 0
M  V30 45 H -5.995596 3.287433 -1.133289 0
M  V30 46 H -3.524301 0.402449 3.859558 0
M  V30 47 H -4.948894 -0.604104 4.127055 0
M  V30 48 H -3.925612 -0.905918 2.707111 0
M  V30 49 H -3.045022 0.237565 1.265639 0
M  V30 50 H -2.552867 0.905112 -3.117059 0
M  V30 51 H -0.399813 0.082478 -3.953306 0
M  V30 52 H 3.687225 -1.210152 -2.629825 0
M  V30 END ATOM
M  V30 BEGIN BOND
M  V30 1 1 1 2
M  V30 2 1 2 3
M  V30 3 2 3 4
M  V30 4 1 4 5
M  V30 5 2 5 6
M  V30 6 1 6 7
M  V30 7 2 7 8
M  V30 8 1 8 9
M  V30 9 1 9 10
M  V30 10 1 6 11
M  V30 11 1 11 12
M  V30 12 2 12 13
M  V30 13 1 13 14
M  V30 14 1 14 15
M  V30 15 2 15 16
M  V30 16 1 16 17
M  V30 17 2 17 18
M  V30 18 1 18 19
M  V30 19 2 19 20
M  V30 20 1 19 21
M  V30 21 1 18 22
M  V30 22 1 22 23
M  V30 23 1 23 24
M  V30 24 2 22 25
M  V30 25 2 14 26
M  V30 26 1 26 27
M  V30 27 2 27 28
M  V30 28 1 28 29
M  V30 29 2 29 30
M  V30 30 1 29 31
M  V30 31 1 8 3
M  V30 32 1 28 12
M  V30 33 1 31 5
M  V30 34 1 25 15
M  V30 35 1 1 32
M  V30 36 1 1 33
M  V30 37 1 1 34
M  V30 38 1 2 35
M  V30 39 1 2 36
M  V30 40 1 4 37
M  V30 41 1 7 38
M  V30 42 1 10 39
M  V30 43 1 10 40
M  V30 44 1 10 41
M  V30 45 1 11 42
M  V30 46 1 13 43
M  V30 47 1 16 44
M  V30 48 1 17 45
M  V30 49 1 24 46
M  V30 50 1 24 47
M  V30 51 1 24 48
M  V30 52 1 25 49
M  V30 53 1 26 50
M  V30 54 1 27 51
M  V30 55 1 31 52
M  V30 END BOND
M  V30 END CTAB
M  END
>  <Dataset>  (525) 
ChEMBL_Kinases

>  <Ligand_Instance>  (525) 
nan

>  <PDB_ID>  (525) 
nan

>  <Standardized_SMILES>  (525) 
CCc1cc2c(cc1OC)Nc1cc(-c3ccc([N+](=O)[O-])c(OC)c3)ccc1C(=O)N2

>  <Name>  (525) 
nan

>  <Pocket>  (525) 
nan

>  <ATP_Site>  (525) 
nan

>  <Peripheral>  (525) 
nan

>  <Num_H_Atoms_ProtBoundConf>  (525) 
nan

>  <Num_Resolved_Atoms>  (525) 
nan

>  <Num_Not_Resolved_Atoms>  (525) 
nan

$$$$
CHEMBL257219
     RDKit          3D

  0  0  0  0  0  0  0  0  0  0999 V3000
M  V30 BEGIN CTAB
M  V30 COUNTS 79 84 0 0 0
M  V30 BEGIN ATOM
M  V30 1 C 0.307624 -4.893112 2.051225 0
M  V30 2 C 1.233250 -4.752974 0.877632 0
M  V30 3 N 0.631616 -4.183263 -0.293438 0
M  V30 4 C -0.329408 -4.961552 -0.968589 0
M  V30 5 C -1.638149 -5.141715 -0.241001 0
M  V30 6 C 1.697974 -3.632629 -1.074052 0
M  V30 7 C 2.749266 -4.646213 -1.473733 0
M  V30 8 C 3.246623 -4.112696 -2.826078 0
M  V30 9 N 2.678774 -2.798557 -2.943948 0
M  V30 10 C 3.256511 -1.643389 -3.504712 0
M  V30 11 O 4.410178 -1.664804 -4.004730 0
M  V30 12 C 2.867663 -0.264514 -3.705191 0
M  V30 13 C 2.734963 0.390104 -4.917906 0
M  V30 14 C 2.384890 1.719741 -5.020735 0
M  V30 15 C 2.159303 2.416717 -3.840726 0
M  V30 16 C 2.273643 1.817170 -2.587771 0
M  V30 17 N 2.010770 2.761663 -1.589681 0
M  V30 18 C 0.944134 2.727142 -0.658077 0
M  V30 19 N 0.778871 3.632327 0.362279 0
M  V30 20 C -0.302906 3.545417 1.150790 0
M  V30 21 N -1.200258 2.591807 0.926976 0
M  V30 22 C -1.099570 1.687841 -0.038863 0
M  V30 23 C -1.901503 0.654903 -0.403480 0
M  V30 24 C -1.227460 0.080271 -1.490256 0
M  V30 25 N -0.105244 0.795315 -1.684694 0
M  V30 26 N -0.025698 1.767936 -0.810557 0
M  V30 27 C -3.194083 0.137423 0.188151 0
M  V30 28 C -3.907423 1.139455 1.017632 0
M  V30 29 C -4.970265 0.668322 1.926943 0
M  V30 30 C -4.513975 -0.325787 2.973215 0
M  V30 31 C -3.378421 0.143844 3.789007 0
M  V30 32 O -2.718052 1.107202 3.395809 0
M  V30 33 N -2.261396 0.596899 4.602656 0
M  V30 34 C -1.363099 1.677653 4.253057 0
M  V30 35 C -0.118804 1.415300 4.844078 0
M  V30 36 C 1.023526 2.174498 4.632947 0
M  V30 37 C 0.996221 3.287464 3.777506 0
M  V30 38 C -0.267123 3.466092 3.240450 0
M  V30 39 C -1.419132 2.746917 3.432570 0
M  V30 40 N -0.167176 4.486598 2.204478 0
M  V30 41 C 2.627700 0.483884 -2.555531 0
M  V30 42 C 1.344747 -2.964714 -2.342089 0
M  V30 43 H 0.823174 -4.584866 3.000923 0
M  V30 44 H -0.582626 -4.258432 1.962568 0
M  V30 45 H 0.034432 -5.985397 2.174512 0
M  V30 46 H 2.111944 -4.117261 1.214258 0
M  V30 47 H 1.679229 -5.749756 0.596983 0
M  V30 48 H -0.583472 -4.520547 -1.954156 0
M  V30 49 H 0.079370 -6.005596 -1.126041 0
M  V30 50 H -2.027444 -4.174015 0.139786 0
M  V30 51 H -2.349560 -5.548267 -1.030593 0
M  V30 52 H -1.622381 -5.908542 0.540723 0
M  V30 53 H 2.236819 -2.850350 -0.441248 0
M  V30 54 H 2.351432 -5.661571 -1.586390 0
M  V30 55 H 3.572868 -4.633781 -0.726096 0
M  V30 56 H 2.816241 -4.773837 -3.597189 0
M  V30 57 H 4.332548 -4.099554 -2.797912 0
M  V30 58 H 2.922133 -0.186397 -5.805015 0
M  V30 59 H 2.307500 2.172621 -6.007863 0
M  V30 60 H 1.893990 3.453836 -4.048129 0
M  V30 61 H 2.635586 3.585026 -1.478038 0
M  V30 62 H -1.446816 -0.766568 -2.144906 0
M  V30 63 H -3.116929 -0.819462 0.678492 0
M  V30 64 H -3.840934 -0.040399 -0.769824 0
M  V30 65 H -4.524402 1.774639 0.219079 0
M  V30 66 H -3.309348 1.922839 1.443183 0
M  V30 67 H -5.461519 1.548218 2.431503 0
M  V30 68 H -5.789262 0.198395 1.348307 0
M  V30 69 H -4.094244 -1.193115 2.371015 0
M  V30 70 H -5.353493 -0.706808 3.567516 0
M  V30 71 H -2.155038 0.036283 5.494488 0
M  V30 72 H 0.075630 0.578016 5.523386 0
M  V30 73 H 1.973619 1.952119 5.101952 0
M  V30 74 H 1.805528 3.953706 3.541989 0
M  V30 75 H -2.225510 3.214030 2.888517 0
M  V30 76 H -0.015987 5.459776 2.278195 0
M  V30 77 H 2.689118 0.127900 -1.530567 0
M  V30 78 H 0.734053 -3.551613 -3.038683 0
M  V30 79 H 0.895100 -1.951535 -2.202483 0
M  V30 END ATOM
M  V30 BEGIN BOND
M  V30 1 1 1 2
M  V30 2 1 2 3
M  V30 3 1 3 4
M  V30 4 1 4 5
M  V30 5 1 3 6
M  V30 6 1 6 7
M  V30 7 1 7 8
M  V30 8 1 8 9
M  V30 9 1 9 10
M  V30 10 2 10 11
M  V30 11 1 10 12
M  V30 12 2 12 13
M  V30 13 1 13 14
M  V30 14 2 14 15
M  V30 15 1 15 16
M  V30 16 1 16 17
M  V30 17 1 17 18
M  V30 18 2 18 19
M  V30 19 1 19 20
M  V30 20 2 20 21
M  V30 21 1 21 22
M  V30 22 2 22 23
M  V30 23 1 23 24
M  V30 24 2 24 25
M  V30 25 1 25 26
M  V30 26 1 23 27
M  V30 27 1 27 28
M  V30 28 1 28 29
M  V30 29 1 29 30
M  V30 30 1 30 31
M  V30 31 2 31 32
M  V30 32 1 31 33
M  V30 33 1 33 34
M  V30 34 2 34 35
M  V30 35 1 35 36
M  V30 36 2 36 37
M  V30 37 1 37 38
M  V30 38 2 38 39
M  V30 39 1 38 40
M  V30 40 2 16 41
M  V30 41 1 9 42
M  V30 42 1 42 6
M  V30 43 1 41 12
M  V30 44 1 26 18
M  V30 45 1 39 34
M  V30 46 1 40 20
M  V30 47 1 26 22
M  V30 48 1 1 43
M  V30 49 1 1 44
M  V30 50 1 1 45
M  V30 51 1 2 46
M  V30 52 1 2 47
M  V30 53 1 4 48
M  V30 54 1 4 49
M  V30 55 1 5 50
M  V30 56 1 5 51
M  V30 57 1 5 52
M  V30 58 1 6 53
M  V30 59 1 7 54
M  V30 60 1 7 55
M  V30 61 1 8 56
M  V30 62 1 8 57
M  V30 63 1 13 58
M  V30 64 1 14 59
M  V30 65 1 15 60
M  V30 66 1 17 61
M  V30 67 1 24 62
M  V30 68 1 27 63
M  V30 69 1 27 64
M  V30 70 1 28 65
M  V30 71 1 28 66
M  V30 72 1 29 67
M  V30 73 1 29 68
M  V30 74 1 30 69
M  V30 75 1 30 70
M  V30 76 1 33 71
M  V30 77 1 35 72
M  V30 78 1 36 73
M  V30 79 1 37 74
M  V30 80 1 39 75
M  V30 81 1 40 76
M  V30 82 1 41 77
M  V30 83 1 42 78
M  V30 84 1 42 79
M  V30 END BOND
M  V30 END CTAB
M  END
>  <Dataset>  (526) 
ChEMBL_Kinases

>  <Ligand_Instance>  (526) 
nan

>  <PDB_ID>  (526) 
nan

>  <Standardized_SMILES>  (526) 
CCN(CC)C1CCN(C(=O)c2cccc(Nc3nc4nc5c(cnn35)CCCCC(=O)Nc3cccc(c3)N4)c2)C1

>  <Name>  (526) 
nan

>  <Pocket>  (526) 
nan

>  <ATP_Site>  (526) 
nan

>  <Peripheral>  (526) 
nan

>  <Num_H_Atoms_ProtBoundConf>  (526) 
nan

>  <Num_Resolved_Atoms>  (526) 
nan

>  <Num_Not_Resolved_Atoms>  (526) 
nan

$$$$
CHEMBL257167
     RDKit          3D

  0  0  0  0  0  0  0  0  0  0999 V3000
M  V30 BEGIN CTAB
M  V30 COUNTS 29 30 0 0 0
M  V30 BEGIN ATOM
M  V30 1 N -1.774841 -1.779979 5.745350 0
M  V30 2 C -1.107684 -1.465936 4.528424 0
M  V30 3 O -0.093377 -0.848483 4.953042 0
M  V30 4 N -1.546193 -1.800746 3.242048 0
M  V30 5 C -0.766388 -1.416772 2.094037 0
M  V30 6 S -0.998620 0.135153 1.245172 0
M  V30 7 C 0.264251 -0.134700 0.023048 0
M  V30 8 C 0.623150 0.787687 -1.038258 0
M  V30 9 C 1.615710 0.511502 -1.953245 0
M  V30 10 C 1.900367 1.443261 -2.938134 0
M  V30 11 C 1.228478 2.641274 -3.041294 0
M  V30 12 F 1.553766 3.512194 -4.028235 0
M  V30 13 C 0.235978 2.894333 -2.109848 0
M  V30 14 C -0.061822 1.981085 -1.123462 0
M  V30 15 C 0.750658 -1.336840 0.337160 0
M  V30 16 C 0.256794 -2.043233 1.395322 0
M  V30 17 C 0.715974 -3.362325 1.823522 0
M  V30 18 N 1.765154 -4.052462 1.141176 0
M  V30 19 O 0.156724 -3.882197 2.821656 0
M  V30 20 H -2.136814 -1.168600 6.515105 0
M  V30 21 H -2.055282 -2.707758 6.145417 0
M  V30 22 H -2.455073 -2.331602 3.225797 0
M  V30 23 H 2.112130 -0.441786 -1.828348 0
M  V30 24 H 2.690119 1.192518 -3.644039 0
M  V30 25 H -0.315405 3.836181 -2.165000 0
M  V30 26 H -0.838319 2.191365 -0.403527 0
M  V30 27 H 1.566110 -1.742239 -0.286795 0
M  V30 28 H 2.498338 -4.376276 1.824203 0
M  V30 29 H 1.939011 -4.287018 0.148401 0
M  V30 END ATOM
M  V30 BEGIN BOND
M  V30 1 1 1 2
M  V30 2 2 2 3
M  V30 3 1 2 4
M  V30 4 1 4 5
M  V30 5 1 5 6
M  V30 6 1 6 7
M  V30 7 1 7 8
M  V30 8 2 8 9
M  V30 9 1 9 10
M  V30 10 2 10 11
M  V30 11 1 11 12
M  V30 12 1 11 13
M  V30 13 2 13 14
M  V30 14 2 7 15
M  V30 15 1 15 16
M  V30 16 1 16 17
M  V30 17 1 17 18
M  V30 18 2 17 19
M  V30 19 2 16 5
M  V30 20 1 14 8
M  V30 21 1 1 20
M  V30 22 1 1 21
M  V30 23 1 4 22
M  V30 24 1 9 23
M  V30 25 1 10 24
M  V30 26 1 13 25
M  V30 27 1 14 26
M  V30 28 1 15 27
M  V30 29 1 18 28
M  V30 30 1 18 29
M  V30 END BOND
M  V30 END CTAB
M  END
>  <Dataset>  (527) 
ChEMBL_Kinases

>  <Ligand_Instance>  (527) 
nan

>  <PDB_ID>  (527) 
nan

>  <Standardized_SMILES>  (527) 
NC(=O)Nc1sc(-c2ccc(F)cc2)cc1C(N)=O

>  <Name>  (527) 
nan

>  <Pocket>  (527) 
nan

>  <ATP_Site>  (527) 
nan

>  <Peripheral>  (527) 
nan

>  <Num_H_Atoms_ProtBoundConf>  (527) 
nan

>  <Num_Resolved_Atoms>  (527) 
nan

>  <Num_Not_Resolved_Atoms>  (527) 
nan

$$$$
CHEMBL257067
     RDKit          3D

  0  0  0  0  0  0  0  0  0  0999 V3000
M  V30 BEGIN CTAB
M  V30 COUNTS 53 56 0 0 0
M  V30 BEGIN ATOM
M  V30 1 C 6.796878 -2.508415 0.157623 0
M  V30 2 O 5.910469 -2.084703 1.166276 0
M  V30 3 C 4.659520 -1.539213 0.959372 0
M  V30 4 C 4.176365 -1.365579 -0.320597 0
M  V30 5 C 2.899986 -0.807522 -0.440755 0
M  V30 6 C 2.175504 -0.454204 0.697141 0
M  V30 7 C 2.694940 -0.643275 1.980063 0
M  V30 8 C 3.972098 -1.200941 2.116870 0
M  V30 9 C 4.557054 -1.412549 3.469687 0
M  V30 10 C 5.588419 -0.356244 3.801896 0
M  V30 11 O 6.651294 -0.303908 2.937077 0
M  V30 12 N 0.851641 0.121227 0.773018 0
M  V30 13 C -0.200617 -0.084619 -0.188253 0
M  V30 14 C -1.439718 0.097639 0.438279 0
M  V30 15 C -2.556385 -0.072951 -0.355693 0
M  V30 16 C -3.854772 0.113699 0.292154 0
M  V30 17 C -4.008380 1.016118 1.324008 0
M  V30 18 C -5.244003 1.176380 1.929338 0
M  V30 19 C -6.288528 0.408867 1.461885 0
M  V30 20 N -7.557855 0.581863 2.093364 0 CHG=1 VAL=4
M  V30 21 O -8.477518 -0.267410 2.275037 0
M  V30 22 O -8.061715 1.747975 2.654618 0 CHG=-1 VAL=1
M  V30 23 C -6.195948 -0.507647 0.435715 0
M  V30 24 O -7.322110 -1.217137 0.059720 0
M  V30 25 C -7.340374 -2.177149 -0.973316 0
M  V30 26 C -4.948896 -0.644039 -0.147766 0
M  V30 27 C -2.442244 -0.409362 -1.711123 0
M  V30 28 C -1.181623 -0.580004 -2.289677 0
M  V30 29 C -0.050777 -0.415463 -1.518832 0
M  V30 30 C 1.177183 -0.628927 -2.275307 0
M  V30 31 O 1.065472 -0.793133 -3.507640 0
M  V30 32 N 2.526531 -0.683414 -1.829252 0
M  V30 33 H 6.600700 -3.541293 -0.157433 0
M  V30 34 H 6.698749 -1.859224 -0.756282 0
M  V30 35 H 7.866496 -2.384688 0.458835 0
M  V30 36 H 4.720368 -1.630940 -1.196296 0
M  V30 37 H 2.095911 -0.352643 2.829035 0
M  V30 38 H 3.735113 -1.286116 4.213357 0
M  V30 39 H 5.009747 -2.420995 3.564717 0
M  V30 40 H 5.905088 -0.548060 4.850118 0
M  V30 41 H 5.115839 0.644572 3.792456 0
M  V30 42 H 6.635609 0.478756 2.330245 0
M  V30 43 H 0.669151 0.727558 1.601040 0
M  V30 44 H -1.455661 0.354919 1.486235 0
M  V30 45 H -3.142064 1.604807 1.658448 0
M  V30 46 H -5.340914 1.889291 2.736257 0
M  V30 47 H -6.468262 -2.867736 -0.908837 0
M  V30 48 H -8.261592 -2.809694 -0.863539 0
M  V30 49 H -7.359985 -1.747794 -1.991732 0
M  V30 50 H -4.854967 -1.370506 -0.968391 0
M  V30 51 H -3.352877 -0.526781 -2.271312 0
M  V30 52 H -1.081879 -0.837023 -3.324374 0
M  V30 53 H 3.319603 -0.636352 -2.479872 0
M  V30 END ATOM
M  V30 BEGIN BOND
M  V30 1 1 1 2
M  V30 2 1 2 3
M  V30 3 2 3 4
M  V30 4 1 4 5
M  V30 5 2 5 6
M  V30 6 1 6 7
M  V30 7 2 7 8
M  V30 8 1 8 9
M  V30 9 1 9 10
M  V30 10 1 10 11
M  V30 11 1 6 12
M  V30 12 1 12 13
M  V30 13 2 13 14
M  V30 14 1 14 15
M  V30 15 1 15 16
M  V30 16 2 16 17
M  V30 17 1 17 18
M  V30 18 2 18 19
M  V30 19 1 19 20
M  V30 20 2 20 21
M  V30 21 1 20 22
M  V30 22 1 19 23
M  V30 23 1 23 24
M  V30 24 1 24 25
M  V30 25 2 23 26
M  V30 26 2 15 27
M  V30 27 1 27 28
M  V30 28 2 28 29
M  V30 29 1 29 30
M  V30 30 2 30 31
M  V30 31 1 30 32
M  V30 32 1 8 3
M  V30 33 1 29 13
M  V30 34 1 32 5
M  V30 35 1 26 16
M  V30 36 1 1 33
M  V30 37 1 1 34
M  V30 38 1 1 35
M  V30 39 1 4 36
M  V30 40 1 7 37
M  V30 41 1 9 38
M  V30 42 1 9 39
M  V30 43 1 10 40
M  V30 44 1 10 41
M  V30 45 1 11 42
M  V30 46 1 12 43
M  V30 47 1 14 44
M  V30 48 1 17 45
M  V30 49 1 18 46
M  V30 50 1 25 47
M  V30 51 1 25 48
M  V30 52 1 25 49
M  V30 53 1 26 50
M  V30 54 1 27 51
M  V30 55 1 28 52
M  V30 56 1 32 53
M  V30 END BOND
M  V30 END CTAB
M  END
>  <Dataset>  (528) 
ChEMBL_Kinases

>  <Ligand_Instance>  (528) 
nan

>  <PDB_ID>  (528) 
nan

>  <Standardized_SMILES>  (528) 
COc1cc2c(cc1CCO)Nc1cc(-c3ccc([N+](=O)[O-])c(OC)c3)ccc1C(=O)N2

>  <Name>  (528) 
nan

>  <Pocket>  (528) 
nan

>  <ATP_Site>  (528) 
nan

>  <Peripheral>  (528) 
nan

>  <Num_H_Atoms_ProtBoundConf>  (528) 
nan

>  <Num_Resolved_Atoms>  (528) 
nan

>  <Num_Not_Resolved_Atoms>  (528) 
nan

$$$$
CHEMBL256713
     RDKit          3D

  0  0  0  0  0  0  0  0  0  0999 V3000
M  V30 BEGIN CTAB
M  V30 COUNTS 49 52 0 0 0
M  V30 BEGIN ATOM
M  V30 1 C 1.601947 -3.486737 -0.374128 0
M  V30 2 O 0.844253 -2.483437 0.232034 0
M  V30 3 C 1.309162 -1.276754 0.669397 0
M  V30 4 C 2.623511 -0.865827 0.573439 0
M  V30 5 C 3.089802 0.349315 1.014288 0
M  V30 6 N 4.442063 0.735042 0.898420 0
M  V30 7 C 5.481817 -0.077478 0.301502 0
M  V30 8 C 6.009243 0.700789 -0.884606 0
M  V30 9 O 5.451799 1.967348 -0.980437 0
M  V30 10 C 5.562809 2.711476 0.162029 0
M  V30 11 C 4.970134 1.999613 1.362465 0
M  V30 12 C 2.133707 1.160979 1.577257 0
M  V30 13 C 0.805664 0.805060 1.700531 0
M  V30 14 C 0.370286 -0.424587 1.246692 0
M  V30 15 N -0.993766 -0.821620 1.359055 0
M  V30 16 C -1.761207 -0.449347 0.220274 0
M  V30 17 O -1.115118 0.156153 -0.674669 0
M  V30 18 C -3.183704 -0.750966 0.109889 0
M  V30 19 C -3.840983 -0.347444 -1.034373 0
M  V30 20 C -5.195246 -0.591651 -1.226356 0
M  V30 21 C -5.886733 -1.263547 -0.222663 0
M  V30 22 C -5.216665 -1.653832 0.901402 0
M  V30 23 C -5.906191 -2.365360 1.985771 0
M  V30 24 C -7.254248 -2.698987 1.974615 0
M  V30 25 C -7.444906 -3.349154 3.186570 0
M  V30 26 N -6.265007 -3.370648 3.827256 0
M  V30 27 N -5.311918 -2.782185 3.125539 0
M  V30 28 N -3.905921 -1.406513 1.065206 0
M  V30 29 H 2.157977 -4.030602 0.416379 0
M  V30 30 H 2.376440 -3.025554 -1.038988 0
M  V30 31 H 0.989807 -4.231667 -0.918450 0
M  V30 32 H 3.246830 -1.593510 0.118341 0
M  V30 33 H 5.175846 -1.076098 -0.004477 0
M  V30 34 H 6.332885 -0.098427 1.037188 0
M  V30 35 H 5.684697 0.162590 -1.798823 0
M  V30 36 H 7.112919 0.695507 -0.918633 0
M  V30 37 H 4.967291 3.650610 -0.022780 0
M  V30 38 H 6.585934 3.085842 0.372840 0
M  V30 39 H 4.275906 2.638943 1.893280 0
M  V30 40 H 5.849161 1.749366 2.029372 0
M  V30 41 H 2.344489 2.124835 1.960034 0
M  V30 42 H 0.054495 1.450069 2.145982 0
M  V30 43 H -1.447374 -1.328307 2.153378 0
M  V30 44 H -3.273008 0.182328 -1.813897 0
M  V30 45 H -5.639317 -0.243509 -2.151195 0
M  V30 46 H -6.946723 -1.456557 -0.369246 0
M  V30 47 H -7.943361 -2.471021 1.167062 0
M  V30 48 H -8.405464 -3.746294 3.499078 0
M  V30 49 H -4.321116 -2.665696 3.392753 0
M  V30 END ATOM
M  V30 BEGIN BOND
M  V30 1 1 1 2
M  V30 2 1 2 3
M  V30 3 2 3 4
M  V30 4 1 4 5
M  V30 5 1 5 6
M  V30 6 1 6 7
M  V30 7 1 7 8
M  V30 8 1 8 9
M  V30 9 1 9 10
M  V30 10 1 10 11
M  V30 11 2 5 12
M  V30 12 1 12 13
M  V30 13 2 13 14
M  V30 14 1 14 15
M  V30 15 1 15 16
M  V30 16 2 16 17
M  V30 17 1 16 18
M  V30 18 2 18 19
M  V30 19 1 19 20
M  V30 20 2 20 21
M  V30 21 1 21 22
M  V30 22 1 22 23
M  V30 23 2 23 24
M  V30 24 1 24 25
M  V30 25 2 25 26
M  V30 26 1 26 27
M  V30 27 2 22 28
M  V30 28 1 14 3
M  V30 29 1 28 18
M  V30 30 1 11 6
M  V30 31 1 27 23
M  V30 32 1 1 29
M  V30 33 1 1 30
M  V30 34 1 1 31
M  V30 35 1 4 32
M  V30 36 1 7 33
M  V30 37 1 7 34
M  V30 38 1 8 35
M  V30 39 1 8 36
M  V30 40 1 10 37
M  V30 41 1 10 38
M  V30 42 1 11 39
M  V30 43 1 11 40
M  V30 44 1 12 41
M  V30 45 1 13 42
M  V30 46 1 15 43
M  V30 47 1 19 44
M  V30 48 1 20 45
M  V30 49 1 21 46
M  V30 50 1 24 47
M  V30 51 1 25 48
M  V30 52 1 27 49
M  V30 END BOND
M  V30 END CTAB
M  END
>  <Dataset>  (529) 
ChEMBL_Kinases

>  <Ligand_Instance>  (529) 
nan

>  <PDB_ID>  (529) 
nan

>  <Standardized_SMILES>  (529) 
COc1cc(N2CCOCC2)ccc1NC(=O)c1cccc(-c2ccn[nH]2)n1

>  <Name>  (529) 
nan

>  <Pocket>  (529) 
nan

>  <ATP_Site>  (529) 
nan

>  <Peripheral>  (529) 
nan

>  <Num_H_Atoms_ProtBoundConf>  (529) 
nan

>  <Num_Resolved_Atoms>  (529) 
nan

>  <Num_Not_Resolved_Atoms>  (529) 
nan

$$$$
CHEMBL256684
     RDKit          3D

  0  0  0  0  0  0  0  0  0  0999 V3000
M  V30 BEGIN CTAB
M  V30 COUNTS 57 61 0 0 0
M  V30 BEGIN ATOM
M  V30 1 C 1.139517 -6.403394 -0.451426 0
M  V30 2 C 1.172112 -5.061913 0.171066 0
M  V30 3 N 1.861181 -4.694544 1.254646 0
M  V30 4 C 1.639568 -3.388831 1.520816 0
M  V30 5 C 2.087947 -2.519065 2.498214 0
M  V30 6 C 1.698588 -1.200429 2.544559 0
M  V30 7 C 0.828620 -0.741685 1.574532 0
M  V30 8 C 0.317125 0.622402 1.476325 0
M  V30 9 N 0.974703 1.783157 1.299247 0
M  V30 10 C 0.157717 2.827706 1.260451 0
M  V30 11 C 0.420282 4.251349 1.089455 0
M  V30 12 C -0.595198 5.202919 1.078624 0
M  V30 13 F -1.875869 4.792483 1.233050 0
M  V30 14 C -0.359777 6.551888 0.917553 0
M  V30 15 C 0.920326 7.019185 0.757458 0
M  V30 16 C 1.946274 6.117938 0.762158 0
M  V30 17 C 1.678218 4.790679 0.923826 0
M  V30 18 F 2.753076 3.967456 0.915976 0
M  V30 19 N -1.063627 2.326018 1.417158 0
M  V30 20 C -1.010630 0.988627 1.551803 0
M  V30 21 C -2.160028 0.107899 1.741342 0
M  V30 22 C -2.090289 -0.550197 2.969457 0
M  V30 23 C -3.081010 -1.439784 3.359737 0
M  V30 24 C -4.141468 -1.662695 2.506889 0
M  V30 25 C -4.209849 -1.012792 1.294762 0
M  V30 26 C -3.226026 -0.127073 0.903150 0
M  V30 27 C 0.354696 -1.594035 0.570354 0
M  V30 28 C 0.761955 -2.930549 0.540337 0
M  V30 29 N 0.488641 -3.976256 -0.277908 0
M  V30 30 C -0.396435 -3.848591 -1.410863 0
M  V30 31 C 0.341117 -3.447787 -2.668616 0
M  V30 32 C -0.664891 -3.340113 -3.792231 0
M  V30 33 C 1.335149 -4.509468 -3.086086 0
M  V30 34 H 2.101110 -6.570474 -0.966640 0
M  V30 35 H 1.075353 -7.138244 0.378443 0
M  V30 36 H 0.249748 -6.553929 -1.091736 0
M  V30 37 H 2.769592 -2.863096 3.264841 0
M  V30 38 H 2.022909 -0.487801 3.287408 0
M  V30 39 H 2.012534 1.824272 1.206191 0
M  V30 40 H -1.177795 7.259393 0.915282 0
M  V30 41 H 1.098352 8.074804 0.631961 0
M  V30 42 H 2.937575 6.524913 0.633486 0
M  V30 43 H -1.292759 -0.443222 3.716469 0
M  V30 44 H -3.056141 -1.970489 4.313372 0
M  V30 45 H -4.917559 -2.356617 2.807215 0
M  V30 46 H -5.013858 -1.154049 0.599882 0
M  V30 47 H -3.162725 0.439842 -0.010181 0
M  V30 48 H -0.324413 -1.277449 -0.204502 0
M  V30 49 H -1.220061 -3.143588 -1.193289 0
M  V30 50 H -0.889238 -4.821748 -1.617436 0
M  V30 51 H 0.905390 -2.522752 -2.509566 0
M  V30 52 H -1.525076 -4.026601 -3.645921 0
M  V30 53 H -1.068124 -2.295517 -3.734041 0
M  V30 54 H -0.210305 -3.536865 -4.784641 0
M  V30 55 H 2.215535 -4.576933 -2.446669 0
M  V30 56 H 0.832207 -5.515054 -3.195181 0
M  V30 57 H 1.698048 -4.283052 -4.109472 0
M  V30 END ATOM
M  V30 BEGIN BOND
M  V30 1 1 1 2
M  V30 2 2 2 3
M  V30 3 1 3 4
M  V30 4 2 4 5
M  V30 5 1 5 6
M  V30 6 2 6 7
M  V30 7 1 7 8
M  V30 8 1 8 9
M  V30 9 1 9 10
M  V30 10 1 10 11
M  V30 11 2 11 12
M  V30 12 1 12 13
M  V30 13 1 12 14
M  V30 14 2 14 15
M  V30 15 1 15 16
M  V30 16 2 16 17
M  V30 17 1 17 18
M  V30 18 2 10 19
M  V30 19 1 19 20
M  V30 20 1 20 21
M  V30 21 2 21 22
M  V30 22 1 22 23
M  V30 23 2 23 24
M  V30 24 1 24 25
M  V30 25 2 25 26
M  V30 26 1 7 27
M  V30 27 2 27 28
M  V30 28 1 28 29
M  V30 29 1 29 30
M  V30 30 1 30 31
M  V30 31 1 31 32
M  V30 32 1 31 33
M  V30 33 1 29 2
M  V30 34 1 28 4
M  V30 35 2 20 8
M  V30 36 1 26 21
M  V30 37 1 17 11
M  V30 38 1 1 34
M  V30 39 1 1 35
M  V30 40 1 1 36
M  V30 41 1 5 37
M  V30 42 1 6 38
M  V30 43 1 9 39
M  V30 44 1 14 40
M  V30 45 1 15 41
M  V30 46 1 16 42
M  V30 47 1 22 43
M  V30 48 1 23 44
M  V30 49 1 24 45
M  V30 50 1 25 46
M  V30 51 1 26 47
M  V30 52 1 27 48
M  V30 53 1 30 49
M  V30 54 1 30 50
M  V30 55 1 31 51
M  V30 56 1 32 52
M  V30 57 1 32 53
M  V30 58 1 32 54
M  V30 59 1 33 55
M  V30 60 1 33 56
M  V30 61 1 33 57
M  V30 END BOND
M  V30 END CTAB
M  END
>  <Dataset>  (530) 
ChEMBL_Kinases

>  <Ligand_Instance>  (530) 
nan

>  <PDB_ID>  (530) 
nan

>  <Standardized_SMILES>  (530) 
Cc1nc2ccc(-c3[nH]c(-c4c(F)cccc4F)nc3-c3ccccc3)cc2n1CC(C)C

>  <Name>  (530) 
nan

>  <Pocket>  (530) 
nan

>  <ATP_Site>  (530) 
nan

>  <Peripheral>  (530) 
nan

>  <Num_H_Atoms_ProtBoundConf>  (530) 
nan

>  <Num_Resolved_Atoms>  (530) 
nan

>  <Num_Not_Resolved_Atoms>  (530) 
nan

$$$$
CHEMBL256480
     RDKit          3D

  0  0  0  0  0  0  0  0  0  0999 V3000
M  V30 BEGIN CTAB
M  V30 COUNTS 60 65 0 0 0
M  V30 BEGIN ATOM
M  V30 1 O 1.840778 2.699923 6.568938 0
M  V30 2 C 1.314345 1.802552 5.888277 0
M  V30 3 N 0.896376 0.483260 6.275662 0
M  V30 4 C 0.347671 -0.180986 5.151708 0
M  V30 5 O -0.049677 -1.329502 5.358393 0
M  V30 6 C 0.391131 0.676765 4.009691 0
M  V30 7 C 0.963061 1.839477 4.462054 0
M  V30 8 C 1.159088 2.909111 3.590942 0
M  V30 9 C 1.762786 4.161757 4.029730 0
M  V30 10 C 1.094749 5.278317 4.541613 0
M  V30 11 C 1.850611 6.387506 4.907983 0
M  V30 12 C 3.207739 6.401305 4.777593 0
M  V30 13 C 3.896826 5.301690 4.270358 0
M  V30 14 C 3.147131 4.202271 3.907264 0
M  V30 15 Cl 4.076564 2.857647 3.278320 0
M  V30 16 C 0.774955 2.792266 2.271725 0
M  V30 17 C 0.204285 1.617724 1.842376 0
M  V30 18 N -0.247974 1.250497 0.640359 0
M  V30 19 C -0.718314 -0.025550 0.757439 0
M  V30 20 C -1.275027 -0.787897 -0.247710 0
M  V30 21 C -1.708292 -2.069625 0.022642 0
M  V30 22 O -2.275983 -2.880371 -0.951314 0
M  V30 23 C -2.467031 -2.500464 -2.277146 0
M  V30 24 C -3.094939 -3.540314 -3.135571 0
M  V30 25 C -2.323074 -4.815591 -3.237695 0
M  V30 26 N -1.007970 -4.668053 -3.780780 0
M  V30 27 C -0.382399 -5.982234 -3.818927 0
M  V30 28 C 1.049310 -5.887234 -4.278988 0
M  V30 29 O 1.218108 -4.828730 -5.182245 0
M  V30 30 C 0.033483 -4.736934 -5.934209 0
M  V30 31 C -0.983700 -4.017026 -5.068937 0
M  V30 32 C -1.561353 -2.538269 1.312162 0
M  V30 33 O -2.010043 -3.847265 1.564056 0
M  V30 34 C -1.004635 -1.743651 2.267992 0
M  V30 35 C -0.563264 -0.474971 2.049198 0
M  V30 36 C 0.014552 0.566884 2.709284 0
M  V30 37 H 1.042053 0.193132 7.287284 0
M  V30 38 H 0.035342 5.177269 4.607416 0
M  V30 39 H 1.302738 7.227466 5.297597 0
M  V30 40 H 3.783947 7.276706 5.068779 0
M  V30 41 H 4.974115 5.350092 4.181780 0
M  V30 42 H 0.928386 3.613437 1.614455 0
M  V30 43 H -0.227595 1.858364 -0.209636 0
M  V30 44 H -1.384214 -0.416019 -1.242065 0
M  V30 45 H -3.195426 -1.641090 -2.248964 0
M  V30 46 H -1.556107 -2.040674 -2.739281 0
M  V30 47 H -4.081783 -3.791149 -2.677132 0
M  V30 48 H -3.296828 -3.114030 -4.133115 0
M  V30 49 H -2.915504 -5.502567 -3.893580 0
M  V30 50 H -2.225744 -5.306605 -2.262937 0
M  V30 51 H -0.398946 -6.400040 -2.810971 0
M  V30 52 H -0.924924 -6.696910 -4.473627 0
M  V30 53 H 1.696381 -5.797246 -3.385737 0
M  V30 54 H 1.326530 -6.813272 -4.838960 0
M  V30 55 H 0.249060 -4.097535 -6.819274 0
M  V30 56 H -0.318107 -5.726405 -6.285761 0
M  V30 57 H -1.971696 -3.949558 -5.548611 0
M  V30 58 H -0.566507 -3.000782 -4.889834 0
M  V30 59 H -2.958611 -3.942228 1.898283 0
M  V30 60 H -0.929758 -2.179603 3.226526 0
M  V30 END ATOM
M  V30 BEGIN BOND
M  V30 1 2 1 2
M  V30 2 1 2 3
M  V30 3 1 3 4
M  V30 4 2 4 5
M  V30 5 1 4 6
M  V30 6 2 6 7
M  V30 7 1 7 8
M  V30 8 1 8 9
M  V30 9 2 9 10
M  V30 10 1 10 11
M  V30 11 2 11 12
M  V30 12 1 12 13
M  V30 13 2 13 14
M  V30 14 1 14 15
M  V30 15 2 8 16
M  V30 16 1 16 17
M  V30 17 1 17 18
M  V30 18 1 18 19
M  V30 19 2 19 20
M  V30 20 1 20 21
M  V30 21 1 21 22
M  V30 22 1 22 23
M  V30 23 1 23 24
M  V30 24 1 24 25
M  V30 25 1 25 26
M  V30 26 1 26 27
M  V30 27 1 27 28
M  V30 28 1 28 29
M  V30 29 1 29 30
M  V30 30 1 30 31
M  V30 31 2 21 32
M  V30 32 1 32 33
M  V30 33 1 32 34
M  V30 34 2 34 35
M  V30 35 1 35 36
M  V30 36 1 7 2
M  V30 37 1 14 9
M  V30 38 2 36 17
M  V30 39 1 36 6
M  V30 40 1 35 19
M  V30 41 1 31 26
M  V30 42 1 3 37
M  V30 43 1 10 38
M  V30 44 1 11 39
M  V30 45 1 12 40
M  V30 46 1 13 41
M  V30 47 1 16 42
M  V30 48 1 18 43
M  V30 49 1 20 44
M  V30 50 1 23 45
M  V30 51 1 23 46
M  V30 52 1 24 47
M  V30 53 1 24 48
M  V30 54 1 25 49
M  V30 55 1 25 50
M  V30 56 1 27 51
M  V30 57 1 27 52
M  V30 58 1 28 53
M  V30 59 1 28 54
M  V30 60 1 30 55
M  V30 61 1 30 56
M  V30 62 1 31 57
M  V30 63 1 31 58
M  V30 64 1 33 59
M  V30 65 1 34 60
M  V30 END BOND
M  V30 END CTAB
M  END
>  <Dataset>  (531) 
ChEMBL_Kinases

>  <Ligand_Instance>  (531) 
nan

>  <PDB_ID>  (531) 
nan

>  <Standardized_SMILES>  (531) 
O=C1NC(=O)c2c1c(-c1ccccc1Cl)cc1[nH]c3cc(OCCCN4CCOCC4)c(O)cc3c21

>  <Name>  (531) 
nan

>  <Pocket>  (531) 
nan

>  <ATP_Site>  (531) 
nan

>  <Peripheral>  (531) 
nan

>  <Num_H_Atoms_ProtBoundConf>  (531) 
nan

>  <Num_Resolved_Atoms>  (531) 
nan

>  <Num_Not_Resolved_Atoms>  (531) 
nan

$$$$
CHEMBL256401
     RDKit          3D

  0  0  0  0  0  0  0  0  0  0999 V3000
M  V30 BEGIN CTAB
M  V30 COUNTS 73 78 0 0 0
M  V30 BEGIN ATOM
M  V30 1 C 3.483541 -9.564669 -2.795063 0
M  V30 2 N 3.210669 -8.277691 -3.403613 0
M  V30 3 C 2.797000 -8.587288 -4.780567 0
M  V30 4 C 2.110247 -7.597108 -2.786159 0
M  V30 5 C 2.317167 -7.317229 -1.315406 0
M  V30 6 C 2.455001 -5.803236 -1.206614 0
M  V30 7 N 1.546651 -5.366621 -2.269115 0
M  V30 8 C 0.474529 -4.478882 -2.411079 0
M  V30 9 O -0.151859 -4.307848 -3.510936 0
M  V30 10 C -0.083627 -3.631019 -1.356292 0
M  V30 11 C -0.815847 -4.081575 -0.282083 0
M  V30 12 C -1.327473 -3.265995 0.705434 0
M  V30 13 C -1.099180 -1.893697 0.627843 0
M  V30 14 C -0.366156 -1.451114 -0.449985 0
M  V30 15 N -0.065288 -0.076470 -0.620864 0
M  V30 16 C -0.137130 1.225070 -0.100500 0
M  V30 17 N 0.835146 1.802292 0.682021 0
M  V30 18 C 0.666618 3.064546 1.111471 0
M  V30 19 N -0.398436 3.887842 0.853676 0
M  V30 20 C -1.355460 3.308914 0.081788 0
M  V30 21 C -2.520497 3.858555 -0.315952 0
M  V30 22 C -3.115069 2.830934 -1.050144 0
M  V30 23 N -2.303368 1.771253 -1.051468 0
M  V30 24 N -1.206047 2.041945 -0.357187 0
M  V30 25 C -2.994502 5.201334 -0.085377 0
M  V30 26 C -3.190863 5.684321 1.304856 0
M  V30 27 C -4.225338 5.110374 2.157593 0
M  V30 28 C -4.205126 3.720516 2.641576 0
M  V30 29 C -3.073436 3.408061 3.526055 0
M  V30 30 O -2.138384 4.231942 3.479471 0
M  V30 31 N -2.166489 2.863992 4.446190 0
M  V30 32 C -0.885905 3.480664 4.686680 0
M  V30 33 C -0.250976 4.228404 5.643107 0
M  V30 34 C 1.026484 4.661574 5.392104 0
M  V30 35 C 1.647371 4.347407 4.204633 0
M  V30 36 C 1.107979 3.607183 3.181445 0
M  V30 37 C -0.171241 3.216357 3.527165 0
M  V30 38 N 1.767898 3.350252 1.965773 0
M  V30 39 C 0.139547 -2.278688 -1.430008 0
M  V30 40 C 2.069648 -6.174885 -3.363357 0
M  V30 41 H 2.612343 -10.245070 -2.869782 0
M  V30 42 H 4.279178 -10.039032 -3.410395 0
M  V30 43 H 3.891888 -9.506194 -1.774795 0
M  V30 44 H 2.305342 -7.731442 -5.261821 0
M  V30 45 H 2.033769 -9.404886 -4.677424 0
M  V30 46 H 3.608274 -9.024601 -5.376848 0
M  V30 47 H 1.122501 -8.053971 -2.999308 0
M  V30 48 H 1.380610 -7.594443 -0.808332 0
M  V30 49 H 3.224269 -7.758862 -0.897306 0
M  V30 50 H 3.477667 -5.449697 -1.400946 0
M  V30 51 H 2.032094 -5.476590 -0.241169 0
M  V30 52 H -0.994797 -5.143249 -0.219214 0
M  V30 53 H -1.900605 -3.714230 1.526575 0
M  V30 54 H -1.483896 -1.224593 1.382910 0
M  V30 55 H 0.437531 0.271350 -1.493189 0
M  V30 56 H -4.088678 2.856764 -1.556837 0
M  V30 57 H -3.909562 5.446729 -0.710470 0
M  V30 58 H -2.195678 5.895854 -0.533042 0
M  V30 59 H -3.369896 6.830687 1.286235 0
M  V30 60 H -2.166886 5.663489 1.779693 0
M  V30 61 H -5.223004 5.274315 1.613156 0
M  V30 62 H -4.418539 5.795174 3.077274 0
M  V30 63 H -5.156898 3.515013 3.221334 0
M  V30 64 H -4.275989 3.021327 1.778873 0
M  V30 65 H -1.990708 2.142975 5.119893 0
M  V30 66 H -1.014082 4.261644 6.404485 0
M  V30 67 H 1.393696 5.227935 6.212992 0
M  V30 68 H 2.669824 4.727985 4.067216 0
M  V30 69 H -0.518715 2.604712 2.697996 0
M  V30 70 H 2.766806 3.393472 1.881372 0
M  V30 71 H 0.721890 -1.902334 -2.280194 0
M  V30 72 H 3.090552 -5.802502 -3.569184 0
M  V30 73 H 1.492632 -6.113071 -4.283729 0
M  V30 END ATOM
M  V30 BEGIN BOND
M  V30 1 1 1 2
M  V30 2 1 2 3
M  V30 3 1 2 4
M  V30 4 1 4 5
M  V30 5 1 5 6
M  V30 6 1 6 7
M  V30 7 1 7 8
M  V30 8 2 8 9
M  V30 9 1 8 10
M  V30 10 2 10 11
M  V30 11 1 11 12
M  V30 12 2 12 13
M  V30 13 1 13 14
M  V30 14 1 14 15
M  V30 15 1 15 16
M  V30 16 2 16 17
M  V30 17 1 17 18
M  V30 18 2 18 19
M  V30 19 1 19 20
M  V30 20 2 20 21
M  V30 21 1 21 22
M  V30 22 2 22 23
M  V30 23 1 23 24
M  V30 24 1 21 25
M  V30 25 1 25 26
M  V30 26 1 26 27
M  V30 27 1 27 28
M  V30 28 1 28 29
M  V30 29 2 29 30
M  V30 30 1 29 31
M  V30 31 1 31 32
M  V30 32 2 32 33
M  V30 33 1 33 34
M  V30 34 2 34 35
M  V30 35 1 35 36
M  V30 36 2 36 37
M  V30 37 1 36 38
M  V30 38 2 14 39
M  V30 39 1 7 40
M  V30 40 1 40 4
M  V30 41 1 39 10
M  V30 42 1 24 16
M  V30 43 1 37 32
M  V30 44 1 38 18
M  V30 45 1 24 20
M  V30 46 1 1 41
M  V30 47 1 1 42
M  V30 48 1 1 43
M  V30 49 1 3 44
M  V30 50 1 3 45
M  V30 51 1 3 46
M  V30 52 1 4 47
M  V30 53 1 5 48
M  V30 54 1 5 49
M  V30 55 1 6 50
M  V30 56 1 6 51
M  V30 57 1 11 52
M  V30 58 1 12 53
M  V30 59 1 13 54
M  V30 60 1 15 55
M  V30 61 1 22 56
M  V30 62 1 25 57
M  V30 63 1 25 58
M  V30 64 1 26 59
M  V30 65 1 26 60
M  V30 66 1 27 61
M  V30 67 1 27 62
M  V30 68 1 28 63
M  V30 69 1 28 64
M  V30 70 1 31 65
M  V30 71 1 33 66
M  V30 72 1 34 67
M  V30 73 1 35 68
M  V30 74 1 37 69
M  V30 75 1 38 70
M  V30 76 1 39 71
M  V30 77 1 40 72
M  V30 78 1 40 73
M  V30 END BOND
M  V30 END CTAB
M  END
>  <Dataset>  (532) 
ChEMBL_Kinases

>  <Ligand_Instance>  (532) 
nan

>  <PDB_ID>  (532) 
nan

>  <Standardized_SMILES>  (532) 
CN(C)C1CCN(C(=O)c2cccc(Nc3nc4nc5c(cnn35)CCCCC(=O)Nc3cccc(c3)N4)c2)C1

>  <Name>  (532) 
nan

>  <Pocket>  (532) 
nan

>  <ATP_Site>  (532) 
nan

>  <Peripheral>  (532) 
nan

>  <Num_H_Atoms_ProtBoundConf>  (532) 
nan

>  <Num_Resolved_Atoms>  (532) 
nan

>  <Num_Not_Resolved_Atoms>  (532) 
nan

$$$$
CHEMBL256193
     RDKit          3D

  0  0  0  0  0  0  0  0  0  0999 V3000
M  V30 BEGIN CTAB
M  V30 COUNTS 60 63 0 0 0
M  V30 BEGIN ATOM
M  V30 1 C 5.692265 2.515246 2.948420 0
M  V30 2 O 5.402549 1.220126 2.534681 0
M  V30 3 C 4.119810 0.773076 2.307724 0
M  V30 4 C 3.140233 1.750378 2.532392 0
M  V30 5 C 1.822184 1.403975 2.333541 0
M  V30 6 C 1.420310 0.150488 1.926959 0
M  V30 7 C 2.444737 -0.746627 1.729968 0
M  V30 8 C 3.796633 -0.529925 1.891583 0
M  V30 9 O 4.887734 -1.260734 1.747158 0
M  V30 10 C 5.336939 -2.474085 1.393581 0
M  V30 11 C 5.162076 -3.019002 0.031523 0
M  V30 12 C 3.768089 -3.172860 -0.480877 0
M  V30 13 C 3.773435 -3.781220 -1.899059 0
M  V30 14 O 4.395061 -5.036078 -1.808368 0
M  V30 15 N 0.170168 -0.446555 1.657215 0
M  V30 16 C -1.048493 0.275232 1.371979 0
M  V30 17 C -1.988975 -0.563540 0.822884 0
M  V30 18 C -3.243505 -0.073274 0.469653 0
M  V30 19 C -4.197110 -1.021880 -0.110513 0
M  V30 20 C -4.104825 -2.329921 0.332773 0
M  V30 21 C -5.035762 -3.194788 -0.253477 0
M  V30 22 C -5.966555 -2.793410 -1.189472 0
M  V30 23 N -6.850336 -3.800883 -1.694389 0 CHG=1 VAL=4
M  V30 24 O -7.301371 -3.765596 -2.863484 0
M  V30 25 O -7.170193 -4.808807 -0.809114 0 CHG=-1 VAL=1
M  V30 26 C -6.005175 -1.472266 -1.588980 0
M  V30 27 O -6.989034 -1.212667 -2.533157 0
M  V30 28 C -7.270036 0.014795 -3.121955 0
M  V30 29 C -5.118028 -0.596736 -1.044466 0
M  V30 30 C -3.495230 1.265938 0.691232 0
M  V30 31 C -2.545484 2.102182 1.243179 0
M  V30 32 C -1.295947 1.620048 1.596436 0
M  V30 33 C -0.409374 2.653414 2.171569 0
M  V30 34 O -0.930737 3.785375 2.287881 0
M  V30 35 N 0.957534 2.500136 2.602114 0
M  V30 36 H 5.502041 3.265267 2.152064 0
M  V30 37 H 5.110078 2.769822 3.884810 0
M  V30 38 H 6.758035 2.634401 3.282787 0
M  V30 39 H 3.357972 2.758819 2.851578 0
M  V30 40 H 2.198819 -1.740862 1.427126 0
M  V30 41 H 6.433810 -2.566795 1.698975 0
M  V30 42 H 4.855189 -3.248359 2.090936 0
M  V30 43 H 5.613432 -4.060034 0.033733 0
M  V30 44 H 5.753404 -2.492720 -0.750300 0
M  V30 45 H 3.273168 -2.161615 -0.626690 0
M  V30 46 H 3.097627 -3.737673 0.191738 0
M  V30 47 H 4.368745 -3.105776 -2.525631 0
M  V30 48 H 2.755335 -3.842903 -2.294842 0
M  V30 49 H 4.730993 -5.233842 -2.704752 0
M  V30 50 H 0.094121 -1.489796 1.657915 0
M  V30 51 H -1.714742 -1.604379 0.680176 0
M  V30 52 H -3.398169 -2.691905 1.059508 0
M  V30 53 H -4.983988 -4.230743 0.078228 0
M  V30 54 H -6.906981 0.844782 -2.460190 0
M  V30 55 H -8.364246 0.158209 -3.174363 0
M  V30 56 H -6.815619 0.026514 -4.117166 0
M  V30 57 H -5.186535 0.419304 -1.385779 0
M  V30 58 H -4.484482 1.624765 0.405902 0
M  V30 59 H -2.754166 3.145706 1.411221 0
M  V30 60 H 1.339246 3.285294 3.170752 0
M  V30 END ATOM
M  V30 BEGIN BOND
M  V30 1 1 1 2
M  V30 2 1 2 3
M  V30 3 2 3 4
M  V30 4 1 4 5
M  V30 5 2 5 6
M  V30 6 1 6 7
M  V30 7 2 7 8
M  V30 8 1 8 9
M  V30 9 1 9 10
M  V30 10 1 10 11
M  V30 11 1 11 12
M  V30 12 1 12 13
M  V30 13 1 13 14
M  V30 14 1 6 15
M  V30 15 1 15 16
M  V30 16 2 16 17
M  V30 17 1 17 18
M  V30 18 1 18 19
M  V30 19 2 19 20
M  V30 20 1 20 21
M  V30 21 2 21 22
M  V30 22 1 22 23
M  V30 23 2 23 24
M  V30 24 1 23 25
M  V30 25 1 22 26
M  V30 26 1 26 27
M  V30 27 1 27 28
M  V30 28 2 26 29
M  V30 29 2 18 30
M  V30 30 1 30 31
M  V30 31 2 31 32
M  V30 32 1 32 33
M  V30 33 2 33 34
M  V30 34 1 33 35
M  V30 35 1 8 3
M  V30 36 1 32 16
M  V30 37 1 35 5
M  V30 38 1 29 19
M  V30 39 1 1 36
M  V30 40 1 1 37
M  V30 41 1 1 38
M  V30 42 1 4 39
M  V30 43 1 7 40
M  V30 44 1 10 41
M  V30 45 1 10 42
M  V30 46 1 11 43
M  V30 47 1 11 44
M  V30 48 1 12 45
M  V30 49 1 12 46
M  V30 50 1 13 47
M  V30 51 1 13 48
M  V30 52 1 14 49
M  V30 53 1 15 50
M  V30 54 1 17 51
M  V30 55 1 20 52
M  V30 56 1 21 53
M  V30 57 1 28 54
M  V30 58 1 28 55
M  V30 59 1 28 56
M  V30 60 1 29 57
M  V30 61 1 30 58
M  V30 62 1 31 59
M  V30 63 1 35 60
M  V30 END BOND
M  V30 END CTAB
M  END
>  <Dataset>  (533) 
ChEMBL_Kinases

>  <Ligand_Instance>  (533) 
nan

>  <PDB_ID>  (533) 
nan

>  <Standardized_SMILES>  (533) 
COc1cc2c(cc1OCCCCO)Nc1cc(-c3ccc([N+](=O)[O-])c(OC)c3)ccc1C(=O)N2

>  <Name>  (533) 
nan

>  <Pocket>  (533) 
nan

>  <ATP_Site>  (533) 
nan

>  <Peripheral>  (533) 
nan

>  <Num_H_Atoms_ProtBoundConf>  (533) 
nan

>  <Num_Resolved_Atoms>  (533) 
nan

>  <Num_Not_Resolved_Atoms>  (533) 
nan

$$$$
CHEMBL250588
     RDKit          3D

  0  0  0  0  0  0  0  0  0  0999 V3000
M  V30 BEGIN CTAB
M  V30 COUNTS 52 55 0 0 0
M  V30 BEGIN ATOM
M  V30 1 C -0.660777 -0.585872 6.340647 0
M  V30 2 C -0.187754 -0.624264 4.882320 0
M  V30 3 N 1.203922 -1.074466 4.811648 0
M  V30 4 C 1.928408 -1.192321 3.581218 0
M  V30 5 N 3.205356 -1.612942 3.595473 0
M  V30 6 C 3.917369 -1.730789 2.456015 0
M  V30 7 C 3.301828 -1.408423 1.270687 0
M  V30 8 C 2.011661 -0.980007 1.223112 0
M  V30 9 C 1.203642 -0.581255 0.078019 0
M  V30 10 C 1.364080 0.611582 -0.639144 0
M  V30 11 C 2.363183 1.621781 -0.323435 0
M  V30 12 C 1.763030 2.803240 0.113685 0
M  V30 13 C 2.501789 3.904064 0.474877 0
M  V30 14 C 3.890920 3.853712 0.408090 0
M  V30 15 F 4.768146 4.821375 0.720193 0
M  V30 16 C 4.500324 2.678554 -0.027132 0
M  V30 17 C 3.731089 1.590395 -0.383030 0
M  V30 18 N 0.416189 0.572080 -1.614637 0
M  V30 19 C -0.293673 -0.565827 -1.520743 0
M  V30 20 C -1.343254 -1.017845 -2.299253 0
M  V30 21 C -1.951704 -2.243436 -2.035135 0
M  V30 22 C -3.057063 -2.877346 -2.737155 0
M  V30 23 N -4.366175 -2.627769 -2.294827 0
M  V30 24 C -4.854322 -1.302803 -2.303808 0
M  V30 25 C -4.978331 -3.560933 -1.422300 0
M  V30 26 C -1.434700 -2.946339 -0.963382 0
M  V30 27 C -0.392191 -2.471527 -0.209178 0
M  V30 28 N 0.191404 -1.269874 -0.482671 0
M  V30 29 N 1.343931 -0.881023 2.405924 0
M  V30 30 H 0.218086 -0.336220 6.970174 0
M  V30 31 H -1.436139 0.188760 6.421159 0
M  V30 32 H -1.018173 -1.599216 6.589322 0
M  V30 33 H -0.864254 -1.330903 4.361568 0
M  V30 34 H -0.286178 0.368047 4.405096 0
M  V30 35 H 1.668451 -1.312531 5.701688 0
M  V30 36 H 4.944434 -2.061477 2.409744 0
M  V30 37 H 3.784110 -1.472533 0.307662 0
M  V30 38 H 0.680793 2.980110 0.214507 0
M  V30 39 H 2.097877 4.844885 0.820910 0
M  V30 40 H 5.580857 2.511832 -0.123655 0
M  V30 41 H 4.109823 0.642155 -0.734064 0
M  V30 42 H -1.761880 -0.477058 -3.143483 0
M  V30 43 H -3.004760 -2.583999 -3.825192 0
M  V30 44 H -2.916522 -3.994170 -2.751941 0
M  V30 45 H -5.406585 -0.997988 -1.381810 0
M  V30 46 H -5.641959 -1.247909 -3.112301 0
M  V30 47 H -4.095711 -0.563567 -2.613384 0
M  V30 48 H -4.884261 -4.593476 -1.846471 0
M  V30 49 H -6.073991 -3.353404 -1.412632 0
M  V30 50 H -4.636722 -3.491818 -0.369391 0
M  V30 51 H -1.814005 -3.912557 -0.648461 0
M  V30 52 H 0.034722 -3.005227 0.638564 0
M  V30 END ATOM
M  V30 BEGIN BOND
M  V30 1 1 1 2
M  V30 2 1 2 3
M  V30 3 1 3 4
M  V30 4 2 4 5
M  V30 5 1 5 6
M  V30 6 2 6 7
M  V30 7 1 7 8
M  V30 8 1 8 9
M  V30 9 2 9 10
M  V30 10 1 10 11
M  V30 11 2 11 12
M  V30 12 1 12 13
M  V30 13 2 13 14
M  V30 14 1 14 15
M  V30 15 1 14 16
M  V30 16 2 16 17
M  V30 17 1 10 18
M  V30 18 2 18 19
M  V30 19 1 19 20
M  V30 20 2 20 21
M  V30 21 1 21 22
M  V30 22 1 22 23
M  V30 23 1 23 24
M  V30 24 1 23 25
M  V30 25 1 21 26
M  V30 26 2 26 27
M  V30 27 1 27 28
M  V30 28 2 8 29
M  V30 29 1 29 4
M  V30 30 1 28 9
M  V30 31 1 17 11
M  V30 32 1 28 19
M  V30 33 1 1 30
M  V30 34 1 1 31
M  V30 35 1 1 32
M  V30 36 1 2 33
M  V30 37 1 2 34
M  V30 38 1 3 35
M  V30 39 1 6 36
M  V30 40 1 7 37
M  V30 41 1 12 38
M  V30 42 1 13 39
M  V30 43 1 16 40
M  V30 44 1 17 41
M  V30 45 1 20 42
M  V30 46 1 22 43
M  V30 47 1 22 44
M  V30 48 1 24 45
M  V30 49 1 24 46
M  V30 50 1 24 47
M  V30 51 1 25 48
M  V30 52 1 25 49
M  V30 53 1 25 50
M  V30 54 1 26 51
M  V30 55 1 27 52
M  V30 END BOND
M  V30 END CTAB
M  END
>  <Dataset>  (534) 
ChEMBL_Kinases

>  <Ligand_Instance>  (534) 
nan

>  <PDB_ID>  (534) 
nan

>  <Standardized_SMILES>  (534) 
CCNc1nccc(-c2c(-c3ccc(F)cc3)nc3cc(CN(C)C)ccn23)n1

>  <Name>  (534) 
nan

>  <Pocket>  (534) 
nan

>  <ATP_Site>  (534) 
nan

>  <Peripheral>  (534) 
nan

>  <Num_H_Atoms_ProtBoundConf>  (534) 
nan

>  <Num_Resolved_Atoms>  (534) 
nan

>  <Num_Not_Resolved_Atoms>  (534) 
nan

$$$$
CHEMBL255254
     RDKit          3D

  0  0  0  0  0  0  0  0  0  0999 V3000
M  V30 BEGIN CTAB
M  V30 COUNTS 36 37 0 0 0
M  V30 BEGIN ATOM
M  V30 1 C -0.274215 -4.271317 2.902711 0
M  V30 2 C 0.113195 -5.596250 2.313973 0
M  V30 3 C 0.497453 -5.574772 0.869509 0
M  V30 4 N 1.604112 -4.769244 0.509424 0
M  V30 5 C 1.896449 -3.373581 0.359833 0
M  V30 6 N 2.800893 -2.697523 0.152471 0
M  V30 7 C 2.817185 -1.399657 0.026319 0
M  V30 8 C 1.679827 -0.715931 0.141584 0
M  V30 9 C 1.397631 0.725165 0.048671 0
M  V30 10 O 2.347344 1.517834 -0.176032 0
M  V30 11 N 0.064895 1.122538 0.220378 0
M  V30 12 C -0.382382 2.475054 0.163253 0
M  V30 13 C -0.791261 3.070602 -1.026350 0
M  V30 14 C -0.771871 2.313535 -2.283728 0
M  V30 15 C -1.213290 4.390625 -0.994001 0
M  V30 16 C -1.252853 5.155176 0.154019 0
M  V30 17 C -0.848944 4.571736 1.338112 0
M  V30 18 C -0.426614 3.254253 1.311859 0
M  V30 19 Cl 0.091065 2.500796 2.819649 0
M  V30 20 S 0.535935 -2.082630 0.452556 0
M  V30 21 H 0.596569 -3.579768 2.995393 0
M  V30 22 H -0.742399 -4.451891 3.902241 0
M  V30 23 H -1.040737 -3.766911 2.303502 0
M  V30 24 H 0.992758 -5.950681 2.934592 0
M  V30 25 H -0.717050 -6.307483 2.522356 0
M  V30 26 H -0.400433 -5.117404 0.328330 0
M  V30 27 H 0.542144 -6.595420 0.425849 0
M  V30 28 H 2.457907 -5.334896 0.286727 0
M  V30 29 H 3.760236 -0.883064 -0.172959 0
M  V30 30 H -0.757982 0.509275 0.407058 0
M  V30 31 H -1.424678 2.869648 -3.019893 0
M  V30 32 H 0.242333 2.304554 -2.772317 0
M  V30 33 H -1.186783 1.312458 -2.213210 0
M  V30 34 H -1.548182 4.923777 -1.892157 0
M  V30 35 H -1.579133 6.182845 0.189744 0
M  V30 36 H -0.865457 5.141679 2.265516 0
M  V30 END ATOM
M  V30 BEGIN BOND
M  V30 1 1 1 2
M  V30 2 1 2 3
M  V30 3 1 3 4
M  V30 4 1 4 5
M  V30 5 2 5 6
M  V30 6 1 6 7
M  V30 7 2 7 8
M  V30 8 1 8 9
M  V30 9 2 9 10
M  V30 10 1 9 11
M  V30 11 1 11 12
M  V30 12 2 12 13
M  V30 13 1 13 14
M  V30 14 1 13 15
M  V30 15 2 15 16
M  V30 16 1 16 17
M  V30 17 2 17 18
M  V30 18 1 18 19
M  V30 19 1 8 20
M  V30 20 1 20 5
M  V30 21 1 18 12
M  V30 22 1 1 21
M  V30 23 1 1 22
M  V30 24 1 1 23
M  V30 25 1 2 24
M  V30 26 1 2 25
M  V30 27 1 3 26
M  V30 28 1 3 27
M  V30 29 1 4 28
M  V30 30 1 7 29
M  V30 31 1 11 30
M  V30 32 1 14 31
M  V30 33 1 14 32
M  V30 34 1 14 33
M  V30 35 1 15 34
M  V30 36 1 16 35
M  V30 37 1 17 36
M  V30 END BOND
M  V30 END CTAB
M  END
>  <Dataset>  (535) 
ChEMBL_Kinases

>  <Ligand_Instance>  (535) 
nan

>  <PDB_ID>  (535) 
nan

>  <Standardized_SMILES>  (535) 
CCCNc1ncc(C(=O)Nc2c(C)cccc2Cl)s1

>  <Name>  (535) 
nan

>  <Pocket>  (535) 
nan

>  <ATP_Site>  (535) 
nan

>  <Peripheral>  (535) 
nan

>  <Num_H_Atoms_ProtBoundConf>  (535) 
nan

>  <Num_Resolved_Atoms>  (535) 
nan

>  <Num_Not_Resolved_Atoms>  (535) 
nan

$$$$
CHEMBL255288
     RDKit          3D

  0  0  0  0  0  0  0  0  0  0999 V3000
M  V30 BEGIN CTAB
M  V30 COUNTS 47 49 0 0 0
M  V30 BEGIN ATOM
M  V30 1 C 0.233830 -0.046376 4.929448 0
M  V30 2 C 1.384142 0.106972 4.005198 0
M  V30 3 C 2.578821 0.661292 4.456156 0
M  V30 4 C 3.677168 0.813374 3.607473 0
M  V30 5 C 3.529184 0.386816 2.289333 0
M  V30 6 C 4.672457 0.557957 1.406262 0
M  V30 7 O 5.741938 1.019028 1.908378 0
M  V30 8 N 4.648679 0.239586 0.024237 0
M  V30 9 C 5.681157 0.360436 -0.939103 0
M  V30 10 C 5.835964 1.543748 -1.669555 0
M  V30 11 C 6.897870 1.449307 -2.551753 0
M  V30 12 N 7.371765 0.200763 -2.339370 0
M  V30 13 N 6.661408 -0.409627 -1.410771 0
M  V30 14 C 2.347389 -0.162089 1.844936 0
M  V30 15 C 1.257857 -0.315000 2.676969 0
M  V30 16 N 0.001896 -0.881789 2.315523 0
M  V30 17 C -0.621629 -2.129310 2.376262 0
M  V30 18 O -0.130336 -3.165849 2.835181 0
M  V30 19 C -1.977105 -1.965563 1.791316 0
M  V30 20 C -2.976043 -2.937814 1.675295 0
M  V30 21 N -4.138694 -2.645969 1.149913 0
M  V30 22 C -4.487551 -1.598160 0.727974 0
M  V30 23 N -5.405119 -0.652065 0.129027 0
M  V30 24 C -5.371591 -1.010983 -1.273241 0
M  V30 25 C -6.213526 -0.123335 -2.148095 0
M  V30 26 C -5.752035 -2.476956 -1.456762 0
M  V30 27 S -2.954121 -0.505770 1.017707 0
M  V30 28 H 0.196995 0.830564 5.605060 0
M  V30 29 H -0.720236 -0.081840 4.366541 0
M  V30 30 H 0.340075 -0.952764 5.551136 0
M  V30 31 H 2.675122 0.990029 5.494187 0
M  V30 32 H 4.588749 1.249095 3.995457 0
M  V30 33 H 3.778026 -0.141688 -0.412535 0
M  V30 34 H 5.221476 2.454629 -1.592836 0
M  V30 35 H 7.214612 2.240719 -3.226470 0
M  V30 36 H 6.783151 -1.377764 -1.029384 0
M  V30 37 H 2.213604 -0.497886 0.836440 0
M  V30 38 H -0.361395 0.045701 1.940258 0
M  V30 39 H -2.763558 -3.939342 2.030845 0
M  V30 40 H -5.928026 0.091798 0.676804 0
M  V30 41 H -4.333510 -0.916858 -1.641376 0
M  V30 42 H -7.068565 0.352942 -1.640223 0
M  V30 43 H -5.606741 0.700585 -2.593997 0
M  V30 44 H -6.551514 -0.712481 -3.055814 0
M  V30 45 H -5.053037 -3.166204 -0.965379 0
M  V30 46 H -5.760385 -2.746455 -2.547514 0
M  V30 47 H -6.768533 -2.679671 -1.047540 0
M  V30 END ATOM
M  V30 BEGIN BOND
M  V30 1 1 1 2
M  V30 2 2 2 3
M  V30 3 1 3 4
M  V30 4 2 4 5
M  V30 5 1 5 6
M  V30 6 2 6 7
M  V30 7 1 6 8
M  V30 8 1 8 9
M  V30 9 2 9 10
M  V30 10 1 10 11
M  V30 11 2 11 12
M  V30 12 1 12 13
M  V30 13 1 5 14
M  V30 14 2 14 15
M  V30 15 1 15 16
M  V30 16 1 16 17
M  V30 17 2 17 18
M  V30 18 1 17 19
M  V30 19 2 19 20
M  V30 20 1 20 21
M  V30 21 2 21 22
M  V30 22 1 22 23
M  V30 23 1 23 24
M  V30 24 1 24 25
M  V30 25 1 24 26
M  V30 26 1 22 27
M  V30 27 1 15 2
M  V30 28 1 27 19
M  V30 29 1 13 9
M  V30 30 1 1 28
M  V30 31 1 1 29
M  V30 32 1 1 30
M  V30 33 1 3 31
M  V30 34 1 4 32
M  V30 35 1 8 33
M  V30 36 1 10 34
M  V30 37 1 11 35
M  V30 38 1 13 36
M  V30 39 1 14 37
M  V30 40 1 16 38
M  V30 41 1 20 39
M  V30 42 1 23 40
M  V30 43 1 24 41
M  V30 44 1 25 42
M  V30 45 1 25 43
M  V30 46 1 25 44
M  V30 47 1 26 45
M  V30 48 1 26 46
M  V30 49 1 26 47
M  V30 END BOND
M  V30 END CTAB
M  END
>  <Dataset>  (536) 
ChEMBL_Kinases

>  <Ligand_Instance>  (536) 
nan

>  <PDB_ID>  (536) 
nan

>  <Standardized_SMILES>  (536) 
Cc1ccc(C(=O)Nc2ccn[nH]2)cc1NC(=O)c1cnc(NC(C)C)s1

>  <Name>  (536) 
nan

>  <Pocket>  (536) 
nan

>  <ATP_Site>  (536) 
nan

>  <Peripheral>  (536) 
nan

>  <Num_H_Atoms_ProtBoundConf>  (536) 
nan

>  <Num_Resolved_Atoms>  (536) 
nan

>  <Num_Not_Resolved_Atoms>  (536) 
nan

$$$$
CHEMBL255381
     RDKit          3D

  0  0  0  0  0  0  0  0  0  0999 V3000
M  V30 BEGIN CTAB
M  V30 COUNTS 59 63 0 0 0
M  V30 BEGIN ATOM
M  V30 1 O 2.589650 -2.444202 1.730829 0
M  V30 2 C 2.843997 -1.244577 1.378664 0
M  V30 3 C 2.941886 -0.675942 2.732415 0
M  V30 4 C 4.196712 0.082339 3.011732 0
M  V30 5 N 4.871517 -0.284552 4.202993 0
M  V30 6 C 4.079854 -0.755009 5.285971 0
M  V30 7 C 2.692653 -1.191359 4.938801 0
M  V30 8 O 2.717588 -1.708771 3.638818 0
M  V30 9 N 2.994873 -0.607208 0.131100 0
M  V30 10 C 3.288429 0.774384 -0.203253 0
M  V30 11 C 1.996817 1.346492 -0.768815 0
M  V30 12 C 1.453710 0.470825 -1.840191 0
M  V30 13 C 0.034930 0.049928 -1.558524 0
M  V30 14 C -1.091798 0.409425 -2.269716 0
M  V30 15 C -2.194991 -0.181249 -1.696376 0
M  V30 16 C -3.616519 -0.152210 -2.020941 0
M  V30 17 C -4.380983 0.406476 -1.005437 0
M  V30 18 C -5.762959 0.529503 -1.114858 0
M  V30 19 N -6.361436 0.094113 -2.233949 0
M  V30 20 C -5.645803 -0.442961 -3.215499 0
M  V30 21 C -4.276736 -0.584989 -3.151259 0
M  V30 22 C -1.710127 -0.916315 -0.608823 0
M  V30 23 C -2.513936 -1.731983 0.327090 0
M  V30 24 C -2.630783 -1.530961 1.687752 0
M  V30 25 C -3.424404 -2.385511 2.425669 0
M  V30 26 C -4.104726 -3.439061 1.828655 0
M  V30 27 F -4.865699 -4.237775 2.615069 0
M  V30 28 C -3.972485 -3.624401 0.450073 0
M  V30 29 C -3.174323 -2.768620 -0.306047 0
M  V30 30 N -0.370355 -0.750699 -0.561951 0
M  V30 31 C 2.272198 -0.710468 -2.211896 0
M  V30 32 C 2.829548 -1.472155 -1.037805 0
M  V30 33 H 2.083011 0.044927 2.847123 0
M  V30 34 H 4.057433 1.198769 3.035176 0
M  V30 35 H 4.904370 -0.095342 2.159387 0
M  V30 36 H 5.793371 -0.754595 4.090675 0
M  V30 37 H 4.046189 0.008770 6.107865 0
M  V30 38 H 4.623118 -1.651562 5.705183 0
M  V30 39 H 1.948139 -0.365582 5.029088 0
M  V30 40 H 2.404567 -2.027999 5.607284 0
M  V30 41 H 4.072719 0.752115 -0.992271 0
M  V30 42 H 3.630703 1.350599 0.679884 0
M  V30 43 H 1.272173 1.324357 0.077268 0
M  V30 44 H 2.220999 2.371411 -1.103284 0
M  V30 45 H 1.358438 1.116986 -2.760436 0
M  V30 46 H -1.158103 1.037243 -3.128599 0
M  V30 47 H -3.991134 0.785477 -0.067283 0
M  V30 48 H -6.388763 0.961868 -0.337961 0
M  V30 49 H -6.101849 -0.807132 -4.139149 0
M  V30 50 H -3.602102 -1.005530 -3.888314 0
M  V30 51 H -2.072388 -0.690398 2.084532 0
M  V30 52 H -3.500651 -2.208758 3.487261 0
M  V30 53 H -4.512322 -4.454893 -0.002294 0
M  V30 54 H -3.118812 -2.974509 -1.375779 0
M  V30 55 H 0.206353 -1.205977 0.167304 0
M  V30 56 H 1.590878 -1.422126 -2.755685 0
M  V30 57 H 3.056760 -0.451876 -2.958747 0
M  V30 58 H 3.860358 -1.784845 -1.328018 0
M  V30 59 H 2.279116 -2.388838 -0.810954 0
M  V30 END ATOM
M  V30 BEGIN BOND
M  V30 1 2 1 2
M  V30 2 1 2 3
M  V30 3 1 3 4
M  V30 4 1 4 5
M  V30 5 1 5 6
M  V30 6 1 6 7
M  V30 7 1 7 8
M  V30 8 1 2 9
M  V30 9 1 9 10
M  V30 10 1 10 11
M  V30 11 1 11 12
M  V30 12 1 12 13
M  V30 13 2 13 14
M  V30 14 1 14 15
M  V30 15 1 15 16
M  V30 16 2 16 17
M  V30 17 1 17 18
M  V30 18 2 18 19
M  V30 19 1 19 20
M  V30 20 2 20 21
M  V30 21 2 15 22
M  V30 22 1 22 23
M  V30 23 2 23 24
M  V30 24 1 24 25
M  V30 25 2 25 26
M  V30 26 1 26 27
M  V30 27 1 26 28
M  V30 28 2 28 29
M  V30 29 1 22 30
M  V30 30 1 12 31
M  V30 31 1 31 32
M  V30 32 1 8 3
M  V30 33 1 32 9
M  V30 34 1 30 13
M  V30 35 1 21 16
M  V30 36 1 29 23
M  V30 37 1 3 33
M  V30 38 1 4 34
M  V30 39 1 4 35
M  V30 40 1 5 36
M  V30 41 1 6 37
M  V30 42 1 6 38
M  V30 43 1 7 39
M  V30 44 1 7 40
M  V30 45 1 10 41
M  V30 46 1 10 42
M  V30 47 1 11 43
M  V30 48 1 11 44
M  V30 49 1 12 45
M  V30 50 1 14 46
M  V30 51 1 17 47
M  V30 52 1 18 48
M  V30 53 1 20 49
M  V30 54 1 21 50
M  V30 55 1 24 51
M  V30 56 1 25 52
M  V30 57 1 28 53
M  V30 58 1 29 54
M  V30 59 1 30 55
M  V30 60 1 31 56
M  V30 61 1 31 57
M  V30 62 1 32 58
M  V30 63 1 32 59
M  V30 END BOND
M  V30 END CTAB
M  END
>  <Dataset>  (537) 
ChEMBL_Kinases

>  <Ligand_Instance>  (537) 
nan

>  <PDB_ID>  (537) 
nan

>  <Standardized_SMILES>  (537) 
O=C(C1CNCCO1)N1CCC(c2cc(-c3ccncc3)c(-c3ccc(F)cc3)[nH]2)CC1

>  <Name>  (537) 
nan

>  <Pocket>  (537) 
nan

>  <ATP_Site>  (537) 
nan

>  <Peripheral>  (537) 
nan

>  <Num_H_Atoms_ProtBoundConf>  (537) 
nan

>  <Num_Resolved_Atoms>  (537) 
nan

>  <Num_Not_Resolved_Atoms>  (537) 
nan

$$$$
CHEMBL255410
     RDKit          3D

  0  0  0  0  0  0  0  0  0  0999 V3000
M  V30 BEGIN CTAB
M  V30 COUNTS 78 82 0 0 0
M  V30 BEGIN ATOM
M  V30 1 C 6.280355 1.267200 0.248947 0
M  V30 2 C 5.155781 0.912959 -0.622960 0
M  V30 3 C 4.618774 0.350543 -1.615504 0
M  V30 4 C 3.643014 -0.015871 -2.460451 0
M  V30 5 C 2.574582 0.673784 -1.803675 0
M  V30 6 N 1.219042 0.697093 -2.319142 0
M  V30 7 N 1.130902 0.741777 -3.618350 0
M  V30 8 C -0.097261 0.780015 -4.092137 0
M  V30 9 C -0.437066 0.788505 -5.542373 0
M  V30 10 C -1.262166 -0.428625 -5.918960 0
M  V30 11 C 0.911328 0.548820 -6.286501 0
M  V30 12 C -1.035140 2.019937 -6.074808 0
M  V30 13 C -0.877785 0.760731 -3.007912 0
M  V30 14 C -0.089739 0.703763 -1.885896 0
M  V30 15 N -0.386156 0.609800 -0.526285 0
M  V30 16 C -0.767152 1.303503 0.625601 0
M  V30 17 O -0.603050 1.858251 -0.614428 0
M  V30 18 C -1.185001 2.035959 1.908124 0
M  V30 19 N -1.057354 2.914822 1.318163 0
M  V30 20 O -0.798115 3.769795 0.278684 0
M  V30 21 C -1.422762 0.736367 2.500147 0
M  V30 22 C -1.842783 -0.532402 2.270200 0
M  V30 23 C -1.773863 -1.459378 3.219040 0
M  V30 24 C -1.317210 -1.410639 4.511421 0
M  V30 25 O -1.405086 -2.622824 5.093492 0
M  V30 26 C -1.930191 -3.817923 4.488219 0
M  V30 27 C -1.150637 -4.245473 3.284581 0
M  V30 28 N -1.672424 -5.344542 2.533082 0
M  V30 29 C -0.845548 -5.749800 1.397816 0
M  V30 30 C -1.015606 -4.843975 0.220946 0
M  V30 31 O -1.771899 -3.737268 0.575174 0
M  V30 32 C -3.063875 -4.211194 0.866031 0
M  V30 33 C -3.014277 -5.110800 2.073182 0
M  V30 34 C -0.889084 -0.116118 4.790099 0
M  V30 35 C -0.499032 -0.078075 6.105290 0
M  V30 36 C -0.066069 1.147286 6.621657 0
M  V30 37 C -0.089033 2.178433 5.714778 0
M  V30 38 C -0.484592 2.115690 4.420568 0
M  V30 39 C -0.941776 0.922894 3.812404 0
M  V30 40 C 2.639037 1.477087 -0.609047 0
M  V30 41 C 3.964859 1.546340 -0.078704 0
M  V30 42 H 7.158859 0.620720 0.173790 0
M  V30 43 H 6.537892 2.360678 0.040176 0
M  V30 44 H 5.936826 1.344137 1.333302 0
M  V30 45 H 5.545006 -0.171918 -2.100262 0
M  V30 46 H 3.499292 -0.576206 -3.319685 0
M  V30 47 H -1.662202 -0.222745 -6.956551 0
M  V30 48 H -0.686954 -1.369097 -5.925217 0
M  V30 49 H -2.178989 -0.490606 -5.301504 0
M  V30 50 H 0.665530 0.274457 -7.313564 0
M  V30 51 H 1.398859 -0.280053 -5.787401 0
M  V30 52 H 1.492600 1.472829 -6.228228 0
M  V30 53 H -1.092847 2.876829 -5.375559 0
M  V30 54 H -0.452790 2.403839 -6.942255 0
M  V30 55 H -2.071882 1.919322 -6.502260 0
M  V30 56 H -1.953326 0.787469 -2.996068 0
M  V30 57 H -0.322212 -0.325253 0.089493 0
M  V30 58 H -1.537220 3.899492 -0.424675 0
M  V30 59 H -2.196734 -0.548069 1.260592 0
M  V30 60 H -2.336453 -2.284770 2.786536 0
M  V30 61 H -1.845583 -4.648629 5.224133 0
M  V30 62 H -3.002662 -3.601363 4.219610 0
M  V30 63 H -0.131887 -4.616225 3.754295 0
M  V30 64 H -0.865601 -3.432924 2.628374 0
M  V30 65 H -1.318939 -6.737395 1.066690 0
M  V30 66 H 0.169002 -5.949924 1.710306 0
M  V30 67 H -0.018180 -4.570476 -0.231793 0
M  V30 68 H -1.592278 -5.318699 -0.637986 0
M  V30 69 H -3.684565 -3.300227 1.050063 0
M  V30 70 H -3.444482 -4.729034 -0.009913 0
M  V30 71 H -3.543899 -6.081824 1.852482 0
M  V30 72 H -3.612199 -4.640804 2.849558 0
M  V30 73 H -0.496382 -0.933022 6.761623 0
M  V30 74 H 0.241238 1.322268 7.606809 0
M  V30 75 H 0.243983 3.149799 6.152904 0
M  V30 76 H -0.473793 2.967913 3.766080 0
M  V30 77 H 1.879829 1.975449 -0.097882 0
M  V30 78 H 3.942056 2.167151 0.845393 0
M  V30 END ATOM
M  V30 BEGIN BOND
M  V30 1 1 1 2
M  V30 2 2 2 3
M  V30 3 1 3 4
M  V30 4 2 4 5
M  V30 5 1 5 6
M  V30 6 1 6 7
M  V30 7 2 7 8
M  V30 8 1 8 9
M  V30 9 1 9 10
M  V30 10 1 9 11
M  V30 11 1 9 12
M  V30 12 1 8 13
M  V30 13 2 13 14
M  V30 14 1 14 15
M  V30 15 1 15 16
M  V30 16 2 16 17
M  V30 17 1 16 18
M  V30 18 2 18 19
M  V30 19 1 19 20
M  V30 20 1 18 21
M  V30 21 2 21 22
M  V30 22 1 22 23
M  V30 23 2 23 24
M  V30 24 1 24 25
M  V30 25 1 25 26
M  V30 26 1 26 27
M  V30 27 1 27 28
M  V30 28 1 28 29
M  V30 29 1 29 30
M  V30 30 1 30 31
M  V30 31 1 31 32
M  V30 32 1 32 33
M  V30 33 1 24 34
M  V30 34 2 34 35
M  V30 35 1 35 36
M  V30 36 2 36 37
M  V30 37 1 37 38
M  V30 38 2 38 39
M  V30 39 1 5 40
M  V30 40 2 40 41
M  V30 41 1 41 2
M  V30 42 1 14 6
M  V30 43 1 39 21
M  V30 44 1 33 28
M  V30 45 1 39 34
M  V30 46 1 1 42
M  V30 47 1 1 43
M  V30 48 1 1 44
M  V30 49 1 3 45
M  V30 50 1 4 46
M  V30 51 1 10 47
M  V30 52 1 10 48
M  V30 53 1 10 49
M  V30 54 1 11 50
M  V30 55 1 11 51
M  V30 56 1 11 52
M  V30 57 1 12 53
M  V30 58 1 12 54
M  V30 59 1 12 55
M  V30 60 1 13 56
M  V30 61 1 15 57
M  V30 62 1 20 58
M  V30 63 1 22 59
M  V30 64 1 23 60
M  V30 65 1 26 61
M  V30 66 1 26 62
M  V30 67 1 27 63
M  V30 68 1 27 64
M  V30 69 1 29 65
M  V30 70 1 29 66
M  V30 71 1 30 67
M  V30 72 1 30 68
M  V30 73 1 32 69
M  V30 74 1 32 70
M  V30 75 1 33 71
M  V30 76 1 33 72
M  V30 77 1 35 73
M  V30 78 1 36 74
M  V30 79 1 37 75
M  V30 80 1 38 76
M  V30 81 1 40 77
M  V30 82 1 41 78
M  V30 END BOND
M  V30 END CTAB
M  END
>  <Dataset>  (538) 
ChEMBL_Kinases

>  <Ligand_Instance>  (538) 
nan

>  <PDB_ID>  (538) 
nan

>  <Standardized_SMILES>  (538) 
Cc1ccc(-n2nc(C(C)(C)C)cc2NC(=O)/C(=N\O)c2ccc(OCCN3CCOCC3)c3ccccc23)cc1

>  <Name>  (538) 
nan

>  <Pocket>  (538) 
nan

>  <ATP_Site>  (538) 
nan

>  <Peripheral>  (538) 
nan

>  <Num_H_Atoms_ProtBoundConf>  (538) 
nan

>  <Num_Resolved_Atoms>  (538) 
nan

>  <Num_Not_Resolved_Atoms>  (538) 
nan

$$$$
CHEMBL255416
     RDKit          3D

  0  0  0  0  0  0  0  0  0  0999 V3000
M  V30 BEGIN CTAB
M  V30 COUNTS 60 64 0 0 0
M  V30 BEGIN ATOM
M  V30 1 C 5.470310 -1.839345 5.495053 0
M  V30 2 N 4.821667 -0.730849 4.815611 0
M  V30 3 C 5.597646 0.442471 4.724733 0
M  V30 4 C 4.029503 -1.157352 3.735447 0
M  V30 5 C 3.326507 -0.053330 3.008112 0
M  V30 6 C 2.398612 0.732959 3.900747 0
M  V30 7 C 1.694592 1.797524 3.135453 0
M  V30 8 C 0.838643 1.353453 2.034350 0
M  V30 9 C 0.339408 0.066220 1.886465 0
M  V30 10 C -0.471000 -0.286233 0.797795 0
M  V30 11 C -0.821251 0.612934 -0.182510 0
M  V30 12 C -0.321097 1.867036 -0.015098 0
M  V30 13 C 0.478285 2.263121 1.032728 0
M  V30 14 O 0.966626 3.563824 1.155695 0
M  V30 15 C -1.590565 -0.096440 -1.050637 0
M  V30 16 C -2.208050 0.275716 -2.196601 0
M  V30 17 C -2.943090 -0.622410 -2.927949 0
M  V30 18 C -3.066513 -1.950515 -2.494675 0
M  V30 19 C -3.841525 -2.916655 -3.274802 0
M  V30 20 C -3.140680 -3.631700 -4.250470 0
M  V30 21 C -3.833517 -4.544617 -5.016348 0
M  V30 22 C -5.196093 -4.706281 -4.776809 0
M  V30 23 C -5.865692 -3.988219 -3.806386 0
M  V30 24 C -5.189134 -3.075498 -3.035844 0
M  V30 25 Cl -6.004057 -2.145667 -1.794999 0
M  V30 26 C -2.430308 -2.323282 -1.316382 0
M  V30 27 C -1.699469 -1.394134 -0.606644 0
M  V30 28 N -1.006914 -1.508311 0.536437 0
M  V30 29 C -0.860777 -2.719706 1.325217 0
M  V30 30 C -3.538388 -0.045873 -4.128639 0
M  V30 31 O -4.263890 -0.609026 -5.001958 0
M  V30 32 N -3.101378 1.322854 -4.081378 0
M  V30 33 C -2.309314 1.501512 -2.925988 0
M  V30 34 O -1.871167 2.649999 -2.775529 0
M  V30 35 H 6.556380 -1.650765 5.576701 0
M  V30 36 H 5.345560 -2.780921 4.921586 0
M  V30 37 H 5.003981 -1.944346 6.474780 0
M  V30 38 H 5.621180 0.985885 3.783564 0
M  V30 39 H 6.690815 0.204921 4.939005 0
M  V30 40 H 5.265700 1.122542 5.572911 0
M  V30 41 H 3.192613 -1.808320 4.156588 0
M  V30 42 H 4.544022 -1.861273 3.034104 0
M  V30 43 H 4.062900 0.704013 2.597842 0
M  V30 44 H 2.813533 -0.412440 2.087463 0
M  V30 45 H 3.102928 1.292376 4.599881 0
M  V30 46 H 1.772445 0.147236 4.565873 0
M  V30 47 H 2.482607 2.452151 2.670804 0
M  V30 48 H 1.130498 2.475847 3.815694 0
M  V30 49 H 0.567601 -0.661323 2.621545 0
M  V30 50 H -0.533646 2.631502 -0.716970 0
M  V30 51 H 0.246009 4.298119 1.231739 0
M  V30 52 H -2.085949 -3.474213 -4.400687 0
M  V30 53 H -3.337749 -5.138994 -5.799099 0
M  V30 54 H -5.759777 -5.420332 -5.368331 0
M  V30 55 H -6.924846 -4.150902 -3.664865 0
M  V30 56 H -2.527730 -3.349575 -0.982637 0
M  V30 57 H 0.228446 -2.997092 1.213413 0
M  V30 58 H -1.032682 -2.543930 2.389387 0
M  V30 59 H -1.443102 -3.534961 0.888687 0
M  V30 60 H -3.412992 1.965652 -4.868308 0
M  V30 END ATOM
M  V30 BEGIN BOND
M  V30 1 1 1 2
M  V30 2 1 2 3
M  V30 3 1 2 4
M  V30 4 1 4 5
M  V30 5 1 5 6
M  V30 6 1 6 7
M  V30 7 1 7 8
M  V30 8 2 8 9
M  V30 9 1 9 10
M  V30 10 2 10 11
M  V30 11 1 11 12
M  V30 12 2 12 13
M  V30 13 1 13 14
M  V30 14 1 11 15
M  V30 15 2 15 16
M  V30 16 1 16 17
M  V30 17 2 17 18
M  V30 18 1 18 19
M  V30 19 2 19 20
M  V30 20 1 20 21
M  V30 21 2 21 22
M  V30 22 1 22 23
M  V30 23 2 23 24
M  V30 24 1 24 25
M  V30 25 1 18 26
M  V30 26 2 26 27
M  V30 27 1 27 28
M  V30 28 1 28 29
M  V30 29 1 17 30
M  V30 30 2 30 31
M  V30 31 1 30 32
M  V30 32 1 32 33
M  V30 33 2 33 34
M  V30 34 1 13 8
M  V30 35 1 27 15
M  V30 36 1 28 10
M  V30 37 1 33 16
M  V30 38 1 24 19
M  V30 39 1 1 35
M  V30 40 1 1 36
M  V30 41 1 1 37
M  V30 42 1 3 38
M  V30 43 1 3 39
M  V30 44 1 3 40
M  V30 45 1 4 41
M  V30 46 1 4 42
M  V30 47 1 5 43
M  V30 48 1 5 44
M  V30 49 1 6 45
M  V30 50 1 6 46
M  V30 51 1 7 47
M  V30 52 1 7 48
M  V30 53 1 9 49
M  V30 54 1 12 50
M  V30 55 1 14 51
M  V30 56 1 20 52
M  V30 57 1 21 53
M  V30 58 1 22 54
M  V30 59 1 23 55
M  V30 60 1 26 56
M  V30 61 1 29 57
M  V30 62 1 29 58
M  V30 63 1 29 59
M  V30 64 1 32 60
M  V30 END BOND
M  V30 END CTAB
M  END
>  <Dataset>  (539) 
ChEMBL_Kinases

>  <Ligand_Instance>  (539) 
nan

>  <PDB_ID>  (539) 
nan

>  <Standardized_SMILES>  (539) 
CN(C)CCCCc1cc2c(cc1O)c1c3c(c(-c4ccccc4Cl)cc1n2C)C(=O)NC3=O

>  <Name>  (539) 
nan

>  <Pocket>  (539) 
nan

>  <ATP_Site>  (539) 
nan

>  <Peripheral>  (539) 
nan

>  <Num_H_Atoms_ProtBoundConf>  (539) 
nan

>  <Num_Resolved_Atoms>  (539) 
nan

>  <Num_Not_Resolved_Atoms>  (539) 
nan

$$$$
CHEMBL255428
     RDKit          3D

  0  0  0  0  0  0  0  0  0  0999 V3000
M  V30 BEGIN CTAB
M  V30 COUNTS 37 39 0 0 0
M  V30 BEGIN ATOM
M  V30 1 C 2.144975 -3.698619 2.662688 0
M  V30 2 C 3.488039 -3.022242 2.552556 0
M  V30 3 C 4.585486 -3.722496 2.992373 0
M  V30 4 C 5.849607 -3.190619 2.931874 0
M  V30 5 C 6.015392 -1.924834 2.417914 0
M  V30 6 C 4.888506 -1.266785 1.992572 0
M  V30 7 Cl 5.193313 0.338812 1.407503 0
M  V30 8 C 3.607156 -1.752650 2.029733 0
M  V30 9 N 2.416326 -1.175873 1.553762 0
M  V30 10 C 2.075925 -0.197357 0.630185 0
M  V30 11 O 2.974377 0.383974 -0.013315 0
M  V30 12 C 0.697562 0.219388 0.342884 0
M  V30 13 C 0.249814 1.148955 -0.524625 0
M  V30 14 N -1.045556 1.305776 -0.566291 0
M  V30 15 C -1.888315 0.780479 0.017989 0
M  V30 16 N -3.313715 0.734127 0.185463 0
M  V30 17 C -3.876865 1.714522 -0.721730 0
M  V30 18 C -3.557706 1.468074 -2.179094 0
M  V30 19 C -4.894963 0.759817 -2.385041 0
M  V30 20 C -5.320926 1.357512 -1.060672 0
M  V30 21 S -0.831457 -0.396487 1.074352 0
M  V30 22 H 2.287534 -4.774751 2.884175 0
M  V30 23 H 1.638410 -3.541235 1.682024 0
M  V30 24 H 1.522416 -3.260503 3.448834 0
M  V30 25 H 4.437882 -4.714530 3.391849 0
M  V30 26 H 6.657102 -3.806038 3.297133 0
M  V30 27 H 7.012540 -1.516630 2.374980 0
M  V30 28 H 1.508194 -1.531697 1.984886 0
M  V30 29 H 0.936879 1.733597 -1.153372 0
M  V30 30 H -3.787916 0.101976 0.842253 0
M  V30 31 H -3.767957 2.760067 -0.366878 0
M  V30 32 H -2.704203 0.777809 -2.322868 0
M  V30 33 H -3.540356 2.414638 -2.758737 0
M  V30 34 H -4.814036 -0.351457 -2.374597 0
M  V30 35 H -5.486076 1.085247 -3.244681 0
M  V30 36 H -6.005205 2.197398 -1.200956 0
M  V30 37 H -5.754530 0.606210 -0.382157 0
M  V30 END ATOM
M  V30 BEGIN BOND
M  V30 1 1 1 2
M  V30 2 2 2 3
M  V30 3 1 3 4
M  V30 4 2 4 5
M  V30 5 1 5 6
M  V30 6 1 6 7
M  V30 7 2 6 8
M  V30 8 1 8 9
M  V30 9 1 9 10
M  V30 10 2 10 11
M  V30 11 1 10 12
M  V30 12 2 12 13
M  V30 13 1 13 14
M  V30 14 2 14 15
M  V30 15 1 15 16
M  V30 16 1 16 17
M  V30 17 1 17 18
M  V30 18 1 18 19
M  V30 19 1 19 20
M  V30 20 1 15 21
M  V30 21 1 8 2
M  V30 22 1 21 12
M  V30 23 1 20 17
M  V30 24 1 1 22
M  V30 25 1 1 23
M  V30 26 1 1 24
M  V30 27 1 3 25
M  V30 28 1 4 26
M  V30 29 1 5 27
M  V30 30 1 9 28
M  V30 31 1 13 29
M  V30 32 1 16 30
M  V30 33 1 17 31
M  V30 34 1 18 32
M  V30 35 1 18 33
M  V30 36 1 19 34
M  V30 37 1 19 35
M  V30 38 1 20 36
M  V30 39 1 20 37
M  V30 END BOND
M  V30 END CTAB
M  END
>  <Dataset>  (540) 
ChEMBL_Kinases

>  <Ligand_Instance>  (540) 
nan

>  <PDB_ID>  (540) 
nan

>  <Standardized_SMILES>  (540) 
Cc1cccc(Cl)c1NC(=O)c1cnc(NC2CCC2)s1

>  <Name>  (540) 
nan

>  <Pocket>  (540) 
nan

>  <ATP_Site>  (540) 
nan

>  <Peripheral>  (540) 
nan

>  <Num_H_Atoms_ProtBoundConf>  (540) 
nan

>  <Num_Resolved_Atoms>  (540) 
nan

>  <Num_Not_Resolved_Atoms>  (540) 
nan

$$$$
CHEMBL255482
     RDKit          3D

  0  0  0  0  0  0  0  0  0  0999 V3000
M  V30 BEGIN CTAB
M  V30 COUNTS 46 47 0 0 0
M  V30 BEGIN ATOM
M  V30 1 C -2.480268 -6.687815 -0.837409 0
M  V30 2 C -1.157258 -6.010302 -1.221923 0
M  V30 3 C -1.183642 -5.688296 -2.679423 0
M  V30 4 N -0.010674 -5.050208 -3.198079 0
M  V30 5 C 0.506181 -3.772835 -2.813948 0
M  V30 6 N 1.402618 -3.055224 -3.052573 0
M  V30 7 C 1.614170 -1.875842 -2.508084 0
M  V30 8 C 0.589890 -1.417798 -1.475128 0
M  V30 9 C 0.966837 -0.049425 -0.941523 0
M  V30 10 O 1.885444 0.776967 -1.131619 0
M  V30 11 N -0.028355 0.277041 -0.009717 0
M  V30 12 C -0.115506 1.472993 0.765452 0
M  V30 13 C 0.484255 1.535377 2.010130 0
M  V30 14 C 0.444923 2.645115 2.811853 0
M  V30 15 C 1.068325 2.738486 4.128433 0
M  V30 16 O 0.998737 3.788194 4.821941 0
M  V30 17 N 1.784402 1.693988 4.727439 0
M  V30 18 C 2.339011 1.948671 6.034640 0
M  V30 19 C 3.303067 3.076625 6.069779 0
M  V30 20 C -0.236461 3.753950 2.333202 0
M  V30 21 C -0.859755 3.751167 1.088962 0
M  V30 22 C -0.795597 2.605252 0.308183 0
M  V30 23 C -1.454159 2.562369 -1.038267 0
M  V30 24 S -0.504516 -2.834809 -1.505532 0
M  V30 25 H -2.504715 -6.880848 0.241862 0
M  V30 26 H -3.337108 -6.021904 -1.082525 0
M  V30 27 H -2.608455 -7.629835 -1.378499 0
M  V30 28 H -0.366202 -6.700278 -0.917235 0
M  V30 29 H -1.113161 -5.110461 -0.580016 0
M  V30 30 H -1.502688 -6.529799 -3.311651 0
M  V30 31 H -2.014901 -4.927675 -2.801319 0
M  V30 32 H 0.568120 -5.500346 -3.924549 0
M  V30 33 H 2.521417 -1.369017 -2.880278 0
M  V30 34 H -0.896200 -0.206792 0.346084 0
M  V30 35 H 1.020640 0.648046 2.375025 0
M  V30 36 H 1.891099 0.781337 4.216158 0
M  V30 37 H 2.852044 1.016516 6.342595 0
M  V30 38 H 1.540206 2.117346 6.807476 0
M  V30 39 H 2.955133 3.962991 6.640888 0
M  V30 40 H 3.605561 3.366252 5.035597 0
M  V30 41 H 4.228767 2.749477 6.584360 0
M  V30 42 H -0.311419 4.678734 2.916596 0
M  V30 43 H -1.387567 4.628988 0.732947 0
M  V30 44 H -2.098639 3.441300 -1.158693 0
M  V30 45 H -0.669983 2.641556 -1.842580 0
M  V30 46 H -2.045323 1.614302 -1.161130 0
M  V30 END ATOM
M  V30 BEGIN BOND
M  V30 1 1 1 2
M  V30 2 1 2 3
M  V30 3 1 3 4
M  V30 4 1 4 5
M  V30 5 2 5 6
M  V30 6 1 6 7
M  V30 7 2 7 8
M  V30 8 1 8 9
M  V30 9 2 9 10
M  V30 10 1 9 11
M  V30 11 1 11 12
M  V30 12 2 12 13
M  V30 13 1 13 14
M  V30 14 1 14 15
M  V30 15 2 15 16
M  V30 16 1 15 17
M  V30 17 1 17 18
M  V30 18 1 18 19
M  V30 19 2 14 20
M  V30 20 1 20 21
M  V30 21 2 21 22
M  V30 22 1 22 23
M  V30 23 1 8 24
M  V30 24 1 24 5
M  V30 25 1 22 12
M  V30 26 1 1 25
M  V30 27 1 1 26
M  V30 28 1 1 27
M  V30 29 1 2 28
M  V30 30 1 2 29
M  V30 31 1 3 30
M  V30 32 1 3 31
M  V30 33 1 4 32
M  V30 34 1 7 33
M  V30 35 1 11 34
M  V30 36 1 13 35
M  V30 37 1 17 36
M  V30 38 1 18 37
M  V30 39 1 18 38
M  V30 40 1 19 39
M  V30 41 1 19 40
M  V30 42 1 19 41
M  V30 43 1 20 42
M  V30 44 1 21 43
M  V30 45 1 23 44
M  V30 46 1 23 45
M  V30 47 1 23 46
M  V30 END BOND
M  V30 END CTAB
M  END
>  <Dataset>  (541) 
ChEMBL_Kinases

>  <Ligand_Instance>  (541) 
nan

>  <PDB_ID>  (541) 
nan

>  <Standardized_SMILES>  (541) 
CCCNc1ncc(C(=O)Nc2cc(C(=O)NCC)ccc2C)s1

>  <Name>  (541) 
nan

>  <Pocket>  (541) 
nan

>  <ATP_Site>  (541) 
nan

>  <Peripheral>  (541) 
nan

>  <Num_H_Atoms_ProtBoundConf>  (541) 
nan

>  <Num_Resolved_Atoms>  (541) 
nan

>  <Num_Not_Resolved_Atoms>  (541) 
nan

$$$$
CHEMBL256192
     RDKit          3D

  0  0  0  0  0  0  0  0  0  0999 V3000
M  V30 BEGIN CTAB
M  V30 COUNTS 58 61 0 0 0
M  V30 BEGIN ATOM
M  V30 1 C 3.214453 5.130386 2.730586 0
M  V30 2 O 3.641022 3.946700 2.144499 0
M  V30 3 C 2.767064 2.920623 1.751454 0
M  V30 4 C 1.432188 3.250692 2.026885 0
M  V30 5 C 0.480005 2.313174 1.682093 0
M  V30 6 C 0.769885 1.101396 1.096221 0
M  V30 7 C 2.105135 0.869179 0.866006 0
M  V30 8 C 3.153147 1.707857 1.155914 0
M  V30 9 O 4.477108 1.699769 1.027227 0
M  V30 10 C 5.507971 0.963327 0.572666 0
M  V30 11 C 5.615886 0.619465 -0.869001 0
M  V30 12 C 4.534690 -0.182014 -1.480617 0
M  V30 13 N 4.360123 -1.483473 -0.875355 0
M  V30 14 N 0.009855 -0.013560 0.650915 0
M  V30 15 C -1.361470 -0.216716 1.025705 0
M  V30 16 C -1.796497 -1.451815 0.591925 0
M  V30 17 C -3.087173 -1.875518 0.835999 0
M  V30 18 C -3.657828 -3.159449 0.424315 0
M  V30 19 C -4.636426 -3.831376 1.131180 0
M  V30 20 C -5.132559 -5.039946 0.687732 0
M  V30 21 C -4.622685 -5.563437 -0.487681 0
M  V30 22 N -5.169926 -6.809643 -0.895866 0 CHG=1 VAL=4
M  V30 23 O -5.576816 -7.680310 -0.077830 0
M  V30 24 O -5.630418 -7.799720 -0.066322 0 CHG=-1 VAL=1
M  V30 25 C -3.636940 -4.933018 -1.242733 0
M  V30 26 O -3.242320 -5.593392 -2.387776 0
M  V30 27 C -2.265375 -5.124722 -3.283891 0
M  V30 28 C -3.192163 -3.731971 -0.736627 0
M  V30 29 C -3.959642 -1.039352 1.531447 0
M  V30 30 C -3.550157 0.220741 1.985788 0
M  V30 31 C -2.249636 0.607167 1.720571 0
M  V30 32 C -1.987915 1.954510 2.265311 0
M  V30 33 O -2.860021 2.448788 3.024493 0
M  V30 34 N -0.825865 2.767813 2.014031 0
M  V30 35 H 2.440008 5.660683 2.102473 0
M  V30 36 H 4.082970 5.834840 2.773408 0
M  V30 37 H 2.797731 4.954329 3.747277 0
M  V30 38 H 1.097178 4.167404 2.481148 0
M  V30 39 H 2.408586 -0.044332 0.431417 0
M  V30 40 H 5.689900 0.017271 1.201914 0
M  V30 41 H 6.469634 1.541066 0.807919 0
M  V30 42 H 6.565597 0.006873 -0.970933 0
M  V30 43 H 5.830478 1.553744 -1.435116 0
M  V30 44 H 4.866269 -0.400421 -2.547042 0
M  V30 45 H 3.562153 0.288243 -1.596426 0
M  V30 46 H 5.106538 -2.152261 -1.206555 0
M  V30 47 H 3.407227 -1.814202 -1.106849 0
M  V30 48 H 0.432206 -0.724695 0.031581 0
M  V30 49 H -1.157767 -2.128263 0.052499 0
M  V30 50 H -4.979959 -3.355927 2.036867 0
M  V30 51 H -5.904200 -5.563338 1.251150 0
M  V30 52 H -1.484734 -5.903330 -3.494048 0
M  V30 53 H -2.741635 -4.951279 -4.292422 0
M  V30 54 H -1.789038 -4.173453 -2.987828 0
M  V30 55 H -2.427662 -3.238599 -1.318081 0
M  V30 56 H -4.981619 -1.274703 1.772387 0
M  V30 57 H -4.197581 0.894125 2.526626 0
M  V30 58 H -0.974371 3.776219 2.086633 0
M  V30 END ATOM
M  V30 BEGIN BOND
M  V30 1 1 1 2
M  V30 2 1 2 3
M  V30 3 2 3 4
M  V30 4 1 4 5
M  V30 5 2 5 6
M  V30 6 1 6 7
M  V30 7 2 7 8
M  V30 8 1 8 9
M  V30 9 1 9 10
M  V30 10 1 10 11
M  V30 11 1 11 12
M  V30 12 1 12 13
M  V30 13 1 6 14
M  V30 14 1 14 15
M  V30 15 2 15 16
M  V30 16 1 16 17
M  V30 17 1 17 18
M  V30 18 2 18 19
M  V30 19 1 19 20
M  V30 20 2 20 21
M  V30 21 1 21 22
M  V30 22 2 22 23
M  V30 23 1 22 24
M  V30 24 1 21 25
M  V30 25 1 25 26
M  V30 26 1 26 27
M  V30 27 2 25 28
M  V30 28 2 17 29
M  V30 29 1 29 30
M  V30 30 2 30 31
M  V30 31 1 31 32
M  V30 32 2 32 33
M  V30 33 1 32 34
M  V30 34 1 8 3
M  V30 35 1 31 15
M  V30 36 1 34 5
M  V30 37 1 28 18
M  V30 38 1 1 35
M  V30 39 1 1 36
M  V30 40 1 1 37
M  V30 41 1 4 38
M  V30 42 1 7 39
M  V30 43 1 10 40
M  V30 44 1 10 41
M  V30 45 1 11 42
M  V30 46 1 11 43
M  V30 47 1 12 44
M  V30 48 1 12 45
M  V30 49 1 13 46
M  V30 50 1 13 47
M  V30 51 1 14 48
M  V30 52 1 16 49
M  V30 53 1 19 50
M  V30 54 1 20 51
M  V30 55 1 27 52
M  V30 56 1 27 53
M  V30 57 1 27 54
M  V30 58 1 28 55
M  V30 59 1 29 56
M  V30 60 1 30 57
M  V30 61 1 34 58
M  V30 END BOND
M  V30 END CTAB
M  END
>  <Dataset>  (542) 
ChEMBL_Kinases

>  <Ligand_Instance>  (542) 
nan

>  <PDB_ID>  (542) 
nan

>  <Standardized_SMILES>  (542) 
COc1cc2c(cc1OCCCN)Nc1cc(-c3ccc([N+](=O)[O-])c(OC)c3)ccc1C(=O)N2

>  <Name>  (542) 
nan

>  <Pocket>  (542) 
nan

>  <ATP_Site>  (542) 
nan

>  <Peripheral>  (542) 
nan

>  <Num_H_Atoms_ProtBoundConf>  (542) 
nan

>  <Num_Resolved_Atoms>  (542) 
nan

>  <Num_Not_Resolved_Atoms>  (542) 
nan

$$$$
CHEMBL255592
     RDKit          3D

  0  0  0  0  0  0  0  0  0  0999 V3000
M  V30 BEGIN CTAB
M  V30 COUNTS 55 59 0 0 0
M  V30 BEGIN ATOM
M  V30 1 C 3.657033 1.511645 -4.389209 0
M  V30 2 N 2.780660 0.917991 -3.369079 0
M  V30 3 C 2.664478 1.225580 -2.055245 0
M  V30 4 O 3.391737 2.147478 -1.592011 0
M  V30 5 N 1.733691 0.415471 -1.520059 0
M  V30 6 C 1.474194 0.593563 -0.138774 0
M  V30 7 C 2.110011 -0.045713 0.935691 0
M  V30 8 C 1.738712 0.262130 2.228724 0
M  V30 9 C 0.757328 1.181837 2.536243 0
M  V30 10 C 0.420652 1.452319 3.957067 0
M  V30 11 C 1.257384 2.569497 4.529268 0
M  V30 12 C -1.027602 1.860875 4.045337 0
M  V30 13 C 0.596108 0.219870 4.740217 0
M  V30 14 N 0.755144 -0.762603 5.357759 0
M  V30 15 C 0.112709 1.828032 1.503033 0
M  V30 16 C 0.485682 1.517920 0.229432 0
M  V30 17 C 1.273228 -0.388061 -2.484119 0
M  V30 18 C 0.325264 -1.376580 -2.437292 0
M  V30 19 C -0.317451 -1.671335 -1.260177 0
M  V30 20 C -1.269379 -2.671510 -1.235994 0
M  V30 21 C -1.983861 -3.035887 -0.039378 0
M  V30 22 C -2.596930 -3.352193 0.956384 0
M  V30 23 C -3.338529 -3.736702 2.129868 0
M  V30 24 C -2.668909 -4.237200 3.252816 0
M  V30 25 C -3.399602 -4.599589 4.366747 0
M  V30 26 C -4.771399 -4.461770 4.351441 0
M  V30 27 N -5.427659 -3.982352 3.279541 0
M  V30 28 C -4.717441 -3.626715 2.188034 0
M  V30 29 C -1.515774 -3.329634 -2.447562 0
M  V30 30 C -0.870767 -3.034847 -3.631966 0
M  V30 31 C 0.082856 -2.024222 -3.629782 0
M  V30 32 N 0.710906 -1.731984 -4.767061 0
M  V30 33 C 1.652700 -0.760223 -4.844988 0
M  V30 34 C 1.915643 -0.095352 -3.666319 0
M  V30 35 H 3.062330 1.567937 -5.327610 0
M  V30 36 H 4.538112 0.893737 -4.603170 0
M  V30 37 H 3.963140 2.490326 -3.999340 0
M  V30 38 H 2.862741 -0.749341 0.645331 0
M  V30 39 H 2.295934 -0.291676 2.983785 0
M  V30 40 H 2.172524 2.187097 5.029253 0
M  V30 41 H 0.641339 3.094802 5.286744 0
M  V30 42 H 1.507272 3.302434 3.740873 0
M  V30 43 H -1.158483 2.896373 3.636813 0
M  V30 44 H -1.673584 1.119358 3.527670 0
M  V30 45 H -1.341406 1.884807 5.127388 0
M  V30 46 H -0.663587 2.557555 1.687787 0
M  V30 47 H -0.042114 2.045560 -0.574490 0
M  V30 48 H -0.168132 -1.202028 -0.311119 0
M  V30 49 H -1.577257 -4.301195 3.147419 0
M  V30 50 H -2.792339 -4.973471 5.179052 0
M  V30 51 H -5.219747 -4.787062 5.300028 0
M  V30 52 H -5.268832 -3.244110 1.339449 0
M  V30 53 H -2.251212 -4.114959 -2.467416 0
M  V30 54 H -1.091955 -3.566982 -4.540684 0
M  V30 55 H 2.159519 -0.529833 -5.779104 0
M  V30 END ATOM
M  V30 BEGIN BOND
M  V30 1 1 1 2
M  V30 2 1 2 3
M  V30 3 2 3 4
M  V30 4 1 3 5
M  V30 5 1 5 6
M  V30 6 2 6 7
M  V30 7 1 7 8
M  V30 8 2 8 9
M  V30 9 1 9 10
M  V30 10 1 10 11
M  V30 11 1 10 12
M  V30 12 1 10 13
M  V30 13 3 13 14
M  V30 14 1 9 15
M  V30 15 2 15 16
M  V30 16 1 5 17
M  V30 17 2 17 18
M  V30 18 1 18 19
M  V30 19 2 19 20
M  V30 20 1 20 21
M  V30 21 3 21 22
M  V30 22 1 22 23
M  V30 23 2 23 24
M  V30 24 1 24 25
M  V30 25 2 25 26
M  V30 26 1 26 27
M  V30 27 2 27 28
M  V30 28 1 20 29
M  V30 29 2 29 30
M  V30 30 1 30 31
M  V30 31 2 31 32
M  V30 32 1 32 33
M  V30 33 2 33 34
M  V30 34 1 34 2
M  V30 35 1 16 6
M  V30 36 1 34 17
M  V30 37 1 31 18
M  V30 38 1 28 23
M  V30 39 1 1 35
M  V30 40 1 1 36
M  V30 41 1 1 37
M  V30 42 1 7 38
M  V30 43 1 8 39
M  V30 44 1 11 40
M  V30 45 1 11 41
M  V30 46 1 11 42
M  V30 47 1 12 43
M  V30 48 1 12 44
M  V30 49 1 12 45
M  V30 50 1 15 46
M  V30 51 1 16 47
M  V30 52 1 19 48
M  V30 53 1 24 49
M  V30 54 1 25 50
M  V30 55 1 26 51
M  V30 56 1 28 52
M  V30 57 1 29 53
M  V30 58 1 30 54
M  V30 59 1 33 55
M  V30 END BOND
M  V30 END CTAB
M  END
>  <Dataset>  (543) 
ChEMBL_Kinases

>  <Ligand_Instance>  (543) 
nan

>  <PDB_ID>  (543) 
nan

>  <Standardized_SMILES>  (543) 
Cn1c(=O)n(-c2ccc(C(C)(C)C#N)cc2)c2c3cc(C#Cc4cccnc4)ccc3ncc21

>  <Name>  (543) 
nan

>  <Pocket>  (543) 
nan

>  <ATP_Site>  (543) 
nan

>  <Peripheral>  (543) 
nan

>  <Num_H_Atoms_ProtBoundConf>  (543) 
nan

>  <Num_Resolved_Atoms>  (543) 
nan

>  <Num_Not_Resolved_Atoms>  (543) 
nan

$$$$
CHEMBL255630
     RDKit          3D

  0  0  0  0  0  0  0  0  0  0999 V3000
M  V30 BEGIN CTAB
M  V30 COUNTS 67 71 0 0 0
M  V30 BEGIN ATOM
M  V30 1 C 1.230540 -1.219383 3.417321 0
M  V30 2 N 2.130221 -0.175394 3.003115 0
M  V30 3 C 3.240746 -0.170400 3.961435 0
M  V30 4 C 4.262302 0.868987 3.645449 0
M  V30 5 N 4.629090 0.911565 2.273156 0
M  V30 6 C 5.753912 0.113307 1.892927 0
M  V30 7 C 3.519608 0.809058 1.334340 0
M  V30 8 C 2.719934 2.080673 1.356850 0
M  V30 9 N 1.615116 2.178558 0.523636 0
M  V30 10 C 1.775630 2.238464 -0.884347 0
M  V30 11 C 0.590804 1.521428 -1.569587 0
M  V30 12 C -0.278583 1.046188 -0.430888 0
M  V30 13 C -1.262819 0.031250 -0.747856 0
M  V30 14 C -2.306096 -0.048245 -1.661434 0
M  V30 15 C -2.927036 -1.264515 -1.526488 0
M  V30 16 C -4.056564 -1.841586 -2.239952 0
M  V30 17 C -5.335078 -2.180591 -1.840991 0
M  V30 18 C -6.197009 -2.741690 -2.771951 0
M  V30 19 N -5.831810 -2.962799 -4.032080 0
M  V30 20 C -4.601641 -2.646009 -4.451973 0
M  V30 21 C -3.702141 -2.086172 -3.572792 0
M  V30 22 C -2.305400 -1.988065 -0.533630 0
M  V30 23 C -2.503580 -3.326190 0.081774 0
M  V30 24 C -1.808435 -4.465192 -0.254023 0
M  V30 25 C -2.133711 -5.596151 0.468103 0
M  V30 26 C -3.101942 -5.545116 1.457423 0
M  V30 27 F -3.356628 -6.718228 2.124146 0
M  V30 28 C -3.786334 -4.390099 1.776697 0
M  V30 29 C -3.475602 -3.225919 1.057897 0
M  V30 30 N -1.326551 -1.164233 -0.110964 0
M  V30 31 C -0.781438 2.293545 0.261847 0
M  V30 32 C 0.464282 2.901810 0.943045 0
M  V30 33 C 2.753129 -0.428193 1.722236 0
M  V30 34 H 1.588660 -1.788063 4.298634 0
M  V30 35 H 0.228219 -0.828805 3.728419 0
M  V30 36 H 1.053821 -1.945647 2.612697 0
M  V30 37 H 3.738463 -1.171805 3.798770 0
M  V30 38 H 2.893189 -0.136987 4.990831 0
M  V30 39 H 5.189341 0.562655 4.221295 0
M  V30 40 H 3.975354 1.888040 3.974661 0
M  V30 41 H 6.337668 0.572552 1.067875 0
M  V30 42 H 6.443978 0.041952 2.758971 0
M  V30 43 H 5.522465 -0.925915 1.600428 0
M  V30 44 H 3.962338 0.627495 0.336582 0
M  V30 45 H 3.461012 2.893985 1.072155 0
M  V30 46 H 2.442455 2.364517 2.414589 0
M  V30 47 H 2.736823 1.788454 -1.192750 0
M  V30 48 H 1.745211 3.331798 -1.163310 0
M  V30 49 H 0.054811 2.277784 -2.205198 0
M  V30 50 H 0.983651 0.715992 -2.191517 0
M  V30 51 H 0.475614 0.635606 0.317891 0
M  V30 52 H -2.559764 0.734905 -2.349314 0
M  V30 53 H -5.468456 -1.940035 -0.796631 0
M  V30 54 H -7.178323 -2.964464 -2.327379 0
M  V30 55 H -4.397326 -2.859069 -5.487219 0
M  V30 56 H -2.740977 -1.885555 -4.060107 0
M  V30 57 H -1.077809 -4.382442 -1.044478 0
M  V30 58 H -1.588301 -6.504361 0.214054 0
M  V30 59 H -4.517494 -4.477662 2.567533 0
M  V30 60 H -4.035155 -2.355888 1.345037 0
M  V30 61 H -0.663473 -1.454958 0.670624 0
M  V30 62 H -1.499260 2.055709 1.068760 0
M  V30 63 H -1.252654 3.017548 -0.413341 0
M  V30 64 H 0.542832 3.967820 0.655494 0
M  V30 65 H 0.339951 2.906487 2.055816 0
M  V30 66 H 3.539755 -1.205809 1.931702 0
M  V30 67 H 2.127226 -0.866715 0.960767 0
M  V30 END ATOM
M  V30 BEGIN BOND
M  V30 1 1 1 2
M  V30 2 1 2 3
M  V30 3 1 3 4
M  V30 4 1 4 5
M  V30 5 1 5 6
M  V30 6 1 5 7
M  V30 7 1 7 8
M  V30 8 1 8 9
M  V30 9 1 9 10
M  V30 10 1 10 11
M  V30 11 1 11 12
M  V30 12 1 12 13
M  V30 13 2 13 14
M  V30 14 1 14 15
M  V30 15 1 15 16
M  V30 16 2 16 17
M  V30 17 1 17 18
M  V30 18 2 18 19
M  V30 19 1 19 20
M  V30 20 2 20 21
M  V30 21 2 15 22
M  V30 22 1 22 23
M  V30 23 2 23 24
M  V30 24 1 24 25
M  V30 25 2 25 26
M  V30 26 1 26 27
M  V30 27 1 26 28
M  V30 28 2 28 29
M  V30 29 1 22 30
M  V30 30 1 12 31
M  V30 31 1 31 32
M  V30 32 1 7 33
M  V30 33 1 33 2
M  V30 34 1 32 9
M  V30 35 1 30 13
M  V30 36 1 21 16
M  V30 37 1 29 23
M  V30 38 1 1 34
M  V30 39 1 1 35
M  V30 40 1 1 36
M  V30 41 1 3 37
M  V30 42 1 3 38
M  V30 43 1 4 39
M  V30 44 1 4 40
M  V30 45 1 6 41
M  V30 46 1 6 42
M  V30 47 1 6 43
M  V30 48 1 7 44
M  V30 49 1 8 45
M  V30 50 1 8 46
M  V30 51 1 10 47
M  V30 52 1 10 48
M  V30 53 1 11 49
M  V30 54 1 11 50
M  V30 55 1 12 51
M  V30 56 1 14 52
M  V30 57 1 17 53
M  V30 58 1 18 54
M  V30 59 1 20 55
M  V30 60 1 21 56
M  V30 61 1 24 57
M  V30 62 1 25 58
M  V30 63 1 28 59
M  V30 64 1 29 60
M  V30 65 1 30 61
M  V30 66 1 31 62
M  V30 67 1 31 63
M  V30 68 1 32 64
M  V30 69 1 32 65
M  V30 70 1 33 66
M  V30 71 1 33 67
M  V30 END BOND
M  V30 END CTAB
M  END
>  <Dataset>  (544) 
ChEMBL_Kinases

>  <Ligand_Instance>  (544) 
nan

>  <PDB_ID>  (544) 
nan

>  <Standardized_SMILES>  (544) 
CN1CCN(C)C(CN2CCC(c3cc(-c4ccncc4)c(-c4ccc(F)cc4)[nH]3)CC2)C1

>  <Name>  (544) 
nan

>  <Pocket>  (544) 
nan

>  <ATP_Site>  (544) 
nan

>  <Peripheral>  (544) 
nan

>  <Num_H_Atoms_ProtBoundConf>  (544) 
nan

>  <Num_Resolved_Atoms>  (544) 
nan

>  <Num_Not_Resolved_Atoms>  (544) 
nan

$$$$
CHEMBL255631
     RDKit          3D

  0  0  0  0  0  0  0  0  0  0999 V3000
M  V30 BEGIN CTAB
M  V30 COUNTS 63 67 0 0 0
M  V30 BEGIN ATOM
M  V30 1 C 1.614245 2.121280 4.574858 0
M  V30 2 N 2.806845 1.945829 3.764545 0
M  V30 3 C 3.225889 0.595129 3.820010 0
M  V30 4 C 3.927839 0.017568 2.656439 0
M  V30 5 O 3.935472 0.774936 1.497323 0
M  V30 6 C 2.776385 1.526126 1.341337 0
M  V30 7 C 1.560182 0.625547 1.099208 0
M  V30 8 N 0.338527 1.353091 0.958299 0
M  V30 9 C 0.198997 2.114689 -0.174819 0
M  V30 10 C -1.180809 2.412242 -0.673202 0
M  V30 11 C -2.229314 1.571305 -0.002294 0
M  V30 12 C -2.168200 0.136647 -0.382957 0
M  V30 13 C -1.513879 -0.255537 -1.551475 0
M  V30 14 C -1.584010 -1.647237 -1.670515 0
M  V30 15 C -1.008521 -2.413902 -2.798332 0
M  V30 16 C 0.363504 -2.514490 -2.941799 0
M  V30 17 C 0.817972 -3.229736 -4.019880 0
M  V30 18 N -0.066417 -3.794835 -4.880838 0
M  V30 19 C -1.398611 -3.677693 -4.712492 0
M  V30 20 C -1.956753 -2.979920 -3.661147 0
M  V30 21 C -2.283004 -2.061703 -0.564119 0
M  V30 22 C -2.570894 -3.466491 -0.289188 0
M  V30 23 C -3.592041 -4.313800 -0.610336 0
M  V30 24 C -3.547786 -5.622895 -0.180185 0
M  V30 25 C -2.498655 -6.114237 0.571710 0
M  V30 26 F -2.522913 -7.420466 0.961821 0
M  V30 27 C -1.438213 -5.271877 0.916569 0
M  V30 28 C -1.500023 -3.954048 0.473777 0
M  V30 29 N -2.614480 -0.988337 0.176463 0
M  V30 30 C -1.977777 1.632496 1.514262 0
M  V30 31 C -0.695573 0.887886 1.746194 0
M  V30 32 C 2.531351 2.468662 2.458586 0
M  V30 33 H 0.778409 2.614423 4.000082 0
M  V30 34 H 1.807853 2.670583 5.511228 0
M  V30 35 H 1.192719 1.111328 4.854494 0
M  V30 36 H 2.365289 -0.059986 4.138951 0
M  V30 37 H 3.928309 0.512600 4.699680 0
M  V30 38 H 3.500470 -0.984973 2.386256 0
M  V30 39 H 5.007312 -0.230235 2.865680 0
M  V30 40 H 2.916257 2.114758 0.398185 0
M  V30 41 H 1.743336 -0.000326 0.167256 0
M  V30 42 H 1.516478 -0.141554 1.904061 0
M  V30 43 H 0.679068 3.126955 0.007194 0
M  V30 44 H 0.830005 1.710005 -1.025968 0
M  V30 45 H -1.218225 2.234947 -1.757212 0
M  V30 46 H -1.466760 3.474689 -0.530230 0
M  V30 47 H -3.233678 1.973419 -0.137881 0
M  V30 48 H -0.995243 0.332843 -2.325564 0
M  V30 49 H 0.955749 -2.022199 -2.190766 0
M  V30 50 H 1.875738 -3.325179 -4.154097 0
M  V30 51 H -2.081201 -4.137878 -5.416068 0
M  V30 52 H -3.005356 -2.861645 -3.490298 0
M  V30 53 H -4.327265 -3.789810 -1.190432 0
M  V30 54 H -4.405662 -6.210799 -0.493053 0
M  V30 55 H -0.660979 -5.726369 1.500671 0
M  V30 56 H -0.595970 -3.430614 0.831536 0
M  V30 57 H -3.147033 -0.979105 1.074997 0
M  V30 58 H -2.788737 1.055041 2.028170 0
M  V30 59 H -1.924312 2.670639 1.865477 0
M  V30 60 H -0.858144 -0.207758 1.515212 0
M  V30 61 H -0.433284 0.895707 2.846348 0
M  V30 62 H 3.161245 3.394439 2.341479 0
M  V30 63 H 1.478807 2.827258 2.377080 0
M  V30 END ATOM
M  V30 BEGIN BOND
M  V30 1 1 1 2
M  V30 2 1 2 3
M  V30 3 1 3 4
M  V30 4 1 4 5
M  V30 5 1 5 6
M  V30 6 1 6 7
M  V30 7 1 7 8
M  V30 8 1 8 9
M  V30 9 1 9 10
M  V30 10 1 10 11
M  V30 11 1 11 12
M  V30 12 2 12 13
M  V30 13 1 13 14
M  V30 14 1 14 15
M  V30 15 2 15 16
M  V30 16 1 16 17
M  V30 17 2 17 18
M  V30 18 1 18 19
M  V30 19 2 19 20
M  V30 20 2 14 21
M  V30 21 1 21 22
M  V30 22 2 22 23
M  V30 23 1 23 24
M  V30 24 2 24 25
M  V30 25 1 25 26
M  V30 26 1 25 27
M  V30 27 2 27 28
M  V30 28 1 21 29
M  V30 29 1 11 30
M  V30 30 1 30 31
M  V30 31 1 6 32
M  V30 32 1 32 2
M  V30 33 1 31 8
M  V30 34 1 29 12
M  V30 35 1 20 15
M  V30 36 1 28 22
M  V30 37 1 1 33
M  V30 38 1 1 34
M  V30 39 1 1 35
M  V30 40 1 3 36
M  V30 41 1 3 37
M  V30 42 1 4 38
M  V30 43 1 4 39
M  V30 44 1 6 40
M  V30 45 1 7 41
M  V30 46 1 7 42
M  V30 47 1 9 43
M  V30 48 1 9 44
M  V30 49 1 10 45
M  V30 50 1 10 46
M  V30 51 1 11 47
M  V30 52 1 13 48
M  V30 53 1 16 49
M  V30 54 1 17 50
M  V30 55 1 19 51
M  V30 56 1 20 52
M  V30 57 1 23 53
M  V30 58 1 24 54
M  V30 59 1 27 55
M  V30 60 1 28 56
M  V30 61 1 29 57
M  V30 62 1 30 58
M  V30 63 1 30 59
M  V30 64 1 31 60
M  V30 65 1 31 61
M  V30 66 1 32 62
M  V30 67 1 32 63
M  V30 END BOND
M  V30 END CTAB
M  END
>  <Dataset>  (545) 
ChEMBL_Kinases

>  <Ligand_Instance>  (545) 
nan

>  <PDB_ID>  (545) 
nan

>  <Standardized_SMILES>  (545) 
CN1CCOC(CN2CCC(c3cc(-c4ccncc4)c(-c4ccc(F)cc4)[nH]3)CC2)C1

>  <Name>  (545) 
nan

>  <Pocket>  (545) 
nan

>  <ATP_Site>  (545) 
nan

>  <Peripheral>  (545) 
nan

>  <Num_H_Atoms_ProtBoundConf>  (545) 
nan

>  <Num_Resolved_Atoms>  (545) 
nan

>  <Num_Not_Resolved_Atoms>  (545) 
nan

$$$$
CHEMBL255698
     RDKit          3D

  0  0  0  0  0  0  0  0  0  0999 V3000
M  V30 BEGIN CTAB
M  V30 COUNTS 46 47 0 0 0
M  V30 BEGIN ATOM
M  V30 1 C 0.865646 -7.461731 1.260275 0
M  V30 2 C 2.002499 -6.859337 0.467405 0
M  V30 3 N 1.646880 -5.524707 0.021115 0
M  V30 4 C 0.553732 -5.232878 -0.808818 0
M  V30 5 O -0.190676 -6.178029 -1.213320 0
M  V30 6 C 0.182692 -3.900841 -1.262864 0
M  V30 7 C -0.927690 -3.768427 -2.066970 0
M  V30 8 C -1.412539 -2.548983 -2.559093 0
M  V30 9 C -0.757557 -1.392789 -2.235173 0
M  V30 10 C -1.228453 -0.095412 -2.725922 0
M  V30 11 C 0.365698 -1.521250 -1.423202 0
M  V30 12 N 1.079638 -0.317629 -1.053128 0
M  V30 13 C 0.475386 0.095482 0.157171 0
M  V30 14 O -0.458761 -0.642534 0.563635 0
M  V30 15 C 0.836623 1.269913 0.945800 0
M  V30 16 C 1.667492 2.313965 0.996529 0
M  V30 17 N 1.591583 3.166624 2.001533 0
M  V30 18 C 0.838463 3.110041 2.903105 0
M  V30 19 N 0.393479 3.727048 4.127807 0
M  V30 20 C -0.645737 4.699738 3.849563 0
M  V30 21 C -0.063701 5.777060 2.983108 0
M  V30 22 C -1.219527 5.334502 5.092221 0
M  V30 23 S -0.136198 1.520578 2.454930 0
M  V30 24 C 0.830790 -2.728299 -0.946431 0
M  V30 25 H 1.065679 -7.354846 2.363405 0
M  V30 26 H -0.075318 -6.974323 0.972498 0
M  V30 27 H 0.803422 -8.538703 1.003197 0
M  V30 28 H 2.277665 -7.525933 -0.372429 0
M  V30 29 H 2.906465 -6.740193 1.123866 0
M  V30 30 H 2.197575 -4.670973 0.296877 0
M  V30 31 H -1.538154 -4.618305 -2.397720 0
M  V30 32 H -2.297006 -2.495150 -3.194328 0
M  V30 33 H -0.614058 0.185925 -3.612836 0
M  V30 34 H -2.271361 -0.205583 -3.089269 0
M  V30 35 H -1.103719 0.702358 -1.980089 0
M  V30 36 H 1.866926 0.321804 -1.376389 0
M  V30 37 H 2.360813 2.354805 0.154616 0
M  V30 38 H 0.774488 3.499779 5.093233 0
M  V30 39 H -1.520279 4.205772 3.329021 0
M  V30 40 H 1.056334 5.750641 3.035897 0
M  V30 41 H -0.444590 6.799746 3.263670 0
M  V30 42 H -0.324847 5.578136 1.922652 0
M  V30 43 H -0.516299 5.392607 5.935171 0
M  V30 44 H -1.526658 6.380328 4.803658 0
M  V30 45 H -2.185134 4.861214 5.401089 0
M  V30 46 H 1.706592 -2.797680 -0.317167 0
M  V30 END ATOM
M  V30 BEGIN BOND
M  V30 1 1 1 2
M  V30 2 1 2 3
M  V30 3 1 3 4
M  V30 4 2 4 5
M  V30 5 1 4 6
M  V30 6 2 6 7
M  V30 7 1 7 8
M  V30 8 2 8 9
M  V30 9 1 9 10
M  V30 10 1 9 11
M  V30 11 1 11 12
M  V30 12 1 12 13
M  V30 13 2 13 14
M  V30 14 1 13 15
M  V30 15 2 15 16
M  V30 16 1 16 17
M  V30 17 2 17 18
M  V30 18 1 18 19
M  V30 19 1 19 20
M  V30 20 1 20 21
M  V30 21 1 20 22
M  V30 22 1 18 23
M  V30 23 2 11 24
M  V30 24 1 24 6
M  V30 25 1 23 15
M  V30 26 1 1 25
M  V30 27 1 1 26
M  V30 28 1 1 27
M  V30 29 1 2 28
M  V30 30 1 2 29
M  V30 31 1 3 30
M  V30 32 1 7 31
M  V30 33 1 8 32
M  V30 34 1 10 33
M  V30 35 1 10 34
M  V30 36 1 10 35
M  V30 37 1 12 36
M  V30 38 1 16 37
M  V30 39 1 19 38
M  V30 40 1 20 39
M  V30 41 1 21 40
M  V30 42 1 21 41
M  V30 43 1 21 42
M  V30 44 1 22 43
M  V30 45 1 22 44
M  V30 46 1 22 45
M  V30 47 1 24 46
M  V30 END BOND
M  V30 END CTAB
M  END
>  <Dataset>  (546) 
ChEMBL_Kinases

>  <Ligand_Instance>  (546) 
nan

>  <PDB_ID>  (546) 
nan

>  <Standardized_SMILES>  (546) 
CCNC(=O)c1ccc(C)c(NC(=O)c2cnc(NC(C)C)s2)c1

>  <Name>  (546) 
nan

>  <Pocket>  (546) 
nan

>  <ATP_Site>  (546) 
nan

>  <Peripheral>  (546) 
nan

>  <Num_H_Atoms_ProtBoundConf>  (546) 
nan

>  <Num_Resolved_Atoms>  (546) 
nan

>  <Num_Not_Resolved_Atoms>  (546) 
nan

$$$$
CHEMBL255719
     RDKit          3D

  0  0  0  0  0  0  0  0  0  0999 V3000
M  V30 BEGIN CTAB
M  V30 COUNTS 44 46 0 0 0
M  V30 BEGIN ATOM
M  V30 1 C 2.114827 -7.729729 1.956837 0
M  V30 2 C 3.173761 -6.649846 1.928334 0
M  V30 3 C 2.512426 -5.332023 1.521221 0
M  V30 4 N 3.489872 -4.272365 1.481503 0
M  V30 5 C 2.814997 -3.054186 1.093057 0
M  V30 6 N 1.772767 -2.665226 0.811463 0
M  V30 7 C 1.381892 -1.455364 0.478969 0
M  V30 8 C 2.402071 -0.448429 0.458682 0
M  V30 9 S 3.892319 -1.492601 0.965309 0
M  V30 10 C 1.809253 0.882220 0.063097 0
M  V30 11 O 2.631245 1.795256 0.024975 0
M  V30 12 N 0.446682 0.551639 -0.125309 0
M  V30 13 C -0.383982 1.641832 -0.514840 0
M  V30 14 C -0.924822 2.306656 0.568543 0
M  V30 15 C -1.756957 3.391658 0.388577 0
M  V30 16 C -2.395716 4.184658 1.435077 0
M  V30 17 O -3.156736 5.178304 1.233099 0
M  V30 18 N -2.228715 3.921141 2.827501 0
M  V30 19 C -2.876338 4.726449 3.849963 0
M  V30 20 C -2.045243 3.809261 -0.914205 0
M  V30 21 C -1.503573 3.143268 -1.994704 0
M  V30 22 C -0.671400 2.058025 -1.808992 0
M  V30 23 C -0.022310 1.251977 -2.865125 0
M  V30 24 C 0.095682 -0.827120 0.101243 0
M  V30 25 H 1.446821 -7.542849 2.808594 0
M  V30 26 H 1.541728 -7.781315 0.994405 0
M  V30 27 H 2.561059 -8.724193 2.079952 0
M  V30 28 H 3.583671 -6.594051 2.950346 0
M  V30 29 H 3.919625 -6.889949 1.163411 0
M  V30 30 H 2.083683 -5.498498 0.519303 0
M  V30 31 H 1.675779 -5.154232 2.223462 0
M  V30 32 H 4.490987 -4.321137 1.682713 0
M  V30 33 H -0.757913 2.055347 1.606047 0
M  V30 34 H -1.616381 3.116988 3.127622 0
M  V30 35 H -2.205899 5.509367 4.267859 0
M  V30 36 H -3.101442 4.035546 4.702598 0
M  V30 37 H -3.836705 5.143756 3.528106 0
M  V30 38 H -2.684999 4.648323 -1.198467 0
M  V30 39 H -1.668257 3.391709 -3.032721 0
M  V30 40 H -0.408295 0.205863 -2.893939 0
M  V30 41 H -0.332722 1.699910 -3.844843 0
M  V30 42 H 1.062566 1.305783 -2.787567 0
M  V30 43 H -0.246236 -1.244872 -0.865390 0
M  V30 44 H -0.681189 -0.947769 0.881820 0
M  V30 END ATOM
M  V30 BEGIN BOND
M  V30 1 1 1 2
M  V30 2 1 2 3
M  V30 3 1 3 4
M  V30 4 1 4 5
M  V30 5 2 5 6
M  V30 6 1 6 7
M  V30 7 2 7 8
M  V30 8 1 8 9
M  V30 9 1 8 10
M  V30 10 2 10 11
M  V30 11 1 10 12
M  V30 12 1 12 13
M  V30 13 2 13 14
M  V30 14 1 14 15
M  V30 15 1 15 16
M  V30 16 2 16 17
M  V30 17 1 16 18
M  V30 18 1 18 19
M  V30 19 2 15 20
M  V30 20 1 20 21
M  V30 21 2 21 22
M  V30 22 1 22 23
M  V30 23 1 12 24
M  V30 24 1 9 5
M  V30 25 1 22 13
M  V30 26 1 24 7
M  V30 27 1 1 25
M  V30 28 1 1 26
M  V30 29 1 1 27
M  V30 30 1 2 28
M  V30 31 1 2 29
M  V30 32 1 3 30
M  V30 33 1 3 31
M  V30 34 1 4 32
M  V30 35 1 14 33
M  V30 36 1 18 34
M  V30 37 1 19 35
M  V30 38 1 19 36
M  V30 39 1 19 37
M  V30 40 1 20 38
M  V30 41 1 21 39
M  V30 42 1 23 40
M  V30 43 1 23 41
M  V30 44 1 23 42
M  V30 45 1 24 43
M  V30 46 1 24 44
M  V30 END BOND
M  V30 END CTAB
M  END
>  <Dataset>  (547) 
ChEMBL_Kinases

>  <Ligand_Instance>  (547) 
nan

>  <PDB_ID>  (547) 
nan

>  <Standardized_SMILES>  (547) 
CCCNc1nc2c(s1)C(=O)N(c1cc(C(=O)NC)ccc1C)C2

>  <Name>  (547) 
nan

>  <Pocket>  (547) 
nan

>  <ATP_Site>  (547) 
nan

>  <Peripheral>  (547) 
nan

>  <Num_H_Atoms_ProtBoundConf>  (547) 
nan

>  <Num_Resolved_Atoms>  (547) 
nan

>  <Num_Not_Resolved_Atoms>  (547) 
nan

$$$$
CHEMBL255931
     RDKit          3D

  0  0  0  0  0  0  0  0  0  0999 V3000
M  V30 BEGIN CTAB
M  V30 COUNTS 44 46 0 0 0
M  V30 BEGIN ATOM
M  V30 1 C -0.245275 -5.963904 -1.446683 0
M  V30 2 N -0.070072 -4.505272 -1.512698 0
M  V30 3 C 0.173595 -3.796233 -2.730787 0
M  V30 4 O 0.255651 -4.382200 -3.838759 0
M  V30 5 C 0.336254 -2.353950 -2.729917 0
M  V30 6 C 0.546357 -1.711069 -3.951014 0
M  V30 7 C 0.706059 -0.342482 -4.013511 0
M  V30 8 C 0.669384 0.459386 -2.897372 0
M  V30 9 C 0.822248 1.928040 -2.824591 0
M  V30 10 C 0.464116 -0.133488 -1.666251 0
M  V30 11 N 0.385987 0.440337 -0.366599 0
M  V30 12 C 1.437403 0.653129 0.602521 0
M  V30 13 C 0.705768 1.218374 1.790557 0
M  V30 14 N 1.077188 1.599135 2.998333 0
M  V30 15 C 0.418979 2.043031 3.849750 0
M  V30 16 N 0.925783 2.428761 5.174691 0
M  V30 17 C 0.631434 1.283128 6.012148 0
M  V30 18 C -0.883010 1.033142 6.052383 0
M  V30 19 C 1.321695 0.021174 5.621018 0
M  V30 20 S -1.297351 2.065685 3.030655 0
M  V30 21 C -0.681870 1.363987 1.475162 0
M  V30 22 C -0.896511 0.862024 0.073595 0
M  V30 23 O -2.054174 0.927093 -0.345145 0
M  V30 24 C 0.304622 -1.524556 -1.630245 0
M  V30 25 H -1.013385 -6.256144 -0.700668 0
M  V30 26 H -0.577033 -6.275684 -2.462018 0
M  V30 27 H 0.708306 -6.442271 -1.135924 0
M  V30 28 H -0.142102 -4.063493 -0.595171 0
M  V30 29 H 0.600120 -2.222320 -4.924348 0
M  V30 30 H 0.870033 0.190554 -4.942650 0
M  V30 31 H -0.157361 2.472029 -2.762951 0
M  V30 32 H 1.293304 2.287231 -3.766251 0
M  V30 33 H 1.497556 2.212905 -2.000325 0
M  V30 34 H 2.147730 1.437923 0.209552 0
M  V30 35 H 2.029247 -0.226094 0.837165 0
M  V30 36 H 1.341448 3.396067 5.125465 0
M  V30 37 H 0.929621 1.543170 7.046766 0
M  V30 38 H -1.139228 0.398787 6.922746 0
M  V30 39 H -1.219802 0.455532 5.156281 0
M  V30 40 H -1.379452 2.022708 6.150983 0
M  V30 41 H 2.264041 -0.177834 6.214311 0
M  V30 42 H 1.497325 -0.125689 4.548134 0
M  V30 43 H 0.653791 -0.836203 5.932805 0
M  V30 44 H 0.139466 -2.075264 -0.703553 0
M  V30 END ATOM
M  V30 BEGIN BOND
M  V30 1 1 1 2
M  V30 2 1 2 3
M  V30 3 2 3 4
M  V30 4 1 3 5
M  V30 5 2 5 6
M  V30 6 1 6 7
M  V30 7 2 7 8
M  V30 8 1 8 9
M  V30 9 1 8 10
M  V30 10 1 10 11
M  V30 11 1 11 12
M  V30 12 1 12 13
M  V30 13 1 13 14
M  V30 14 2 14 15
M  V30 15 1 15 16
M  V30 16 1 16 17
M  V30 17 1 17 18
M  V30 18 1 17 19
M  V30 19 1 15 20
M  V30 20 1 20 21
M  V30 21 1 21 22
M  V30 22 2 22 23
M  V30 23 2 10 24
M  V30 24 1 24 5
M  V30 25 1 22 11
M  V30 26 2 21 13
M  V30 27 1 1 25
M  V30 28 1 1 26
M  V30 29 1 1 27
M  V30 30 1 2 28
M  V30 31 1 6 29
M  V30 32 1 7 30
M  V30 33 1 9 31
M  V30 34 1 9 32
M  V30 35 1 9 33
M  V30 36 1 12 34
M  V30 37 1 12 35
M  V30 38 1 16 36
M  V30 39 1 17 37
M  V30 40 1 18 38
M  V30 41 1 18 39
M  V30 42 1 18 40
M  V30 43 1 19 41
M  V30 44 1 19 42
M  V30 45 1 19 43
M  V30 46 1 24 44
M  V30 END BOND
M  V30 END CTAB
M  END
>  <Dataset>  (548) 
ChEMBL_Kinases

>  <Ligand_Instance>  (548) 
nan

>  <PDB_ID>  (548) 
nan

>  <Standardized_SMILES>  (548) 
CNC(=O)c1ccc(C)c(N2Cc3nc(NC(C)C)sc3C2=O)c1

>  <Name>  (548) 
nan

>  <Pocket>  (548) 
nan

>  <ATP_Site>  (548) 
nan

>  <Peripheral>  (548) 
nan

>  <Num_H_Atoms_ProtBoundConf>  (548) 
nan

>  <Num_Resolved_Atoms>  (548) 
nan

>  <Num_Not_Resolved_Atoms>  (548) 
nan

$$$$
CHEMBL256076
     RDKit          3D

  0  0  0  0  0  0  0  0  0  0999 V3000
M  V30 BEGIN CTAB
M  V30 COUNTS 66 70 0 0 0
M  V30 BEGIN ATOM
M  V30 1 C 1.362953 -2.794887 4.302140 0
M  V30 2 O 1.713083 -1.742935 3.458846 0
M  V30 3 C 2.987944 -1.485139 2.962260 0
M  V30 4 O 3.893914 -2.293172 3.328385 0
M  V30 5 N 3.254054 -0.386592 2.100975 0
M  V30 6 C 4.618287 -0.234011 1.661380 0
M  V30 7 C 4.782963 1.276825 1.440453 0
M  V30 8 O 3.822295 1.753449 0.595203 0
M  V30 9 C 2.525372 1.766479 1.102369 0
M  V30 10 C 1.634904 2.165852 -0.008453 0
M  V30 11 N 0.247023 2.268954 0.216965 0
M  V30 12 C -0.515071 2.624292 -0.940222 0
M  V30 13 C -1.892843 3.022671 -0.503658 0
M  V30 14 C -2.369723 2.083221 0.621498 0
M  V30 15 C -2.358824 0.718505 0.071277 0
M  V30 16 C -3.126247 0.143419 -0.916400 0
M  V30 17 C -2.713833 -1.189943 -1.031634 0
M  V30 18 C -3.184759 -2.246348 -1.940882 0
M  V30 19 C -4.393159 -2.881677 -2.128620 0
M  V30 20 C -4.469863 -3.852958 -3.098294 0
M  V30 21 N -3.430825 -4.216460 -3.872560 0
M  V30 22 C -2.228769 -3.623707 -3.726492 0
M  V30 23 C -2.106574 -2.641726 -2.763791 0
M  V30 24 C -1.701114 -1.401597 -0.107308 0
M  V30 25 C -1.022001 -2.680361 0.089373 0
M  V30 26 C -1.928120 -3.605156 0.599910 0
M  V30 27 C -1.549463 -4.925270 0.879389 0
M  V30 28 C -0.217240 -5.277516 0.622804 0
M  V30 29 F 0.194476 -6.555673 0.882891 0
M  V30 30 C 0.674870 -4.346725 0.114069 0
M  V30 31 C 0.281305 -3.054654 -0.152472 0
M  V30 32 N -1.512572 -0.211976 0.546420 0
M  V30 33 C -1.516760 2.266457 1.820353 0
M  V30 34 C -0.193357 2.878645 1.415379 0
M  V30 35 C 2.138005 0.465297 1.744123 0
M  V30 36 H 1.310712 -2.392943 5.346418 0
M  V30 37 H 0.367853 -3.189580 4.060302 0
M  V30 38 H 2.142483 -3.586395 4.270715 0
M  V30 39 H 5.347986 -0.557098 2.410086 0
M  V30 40 H 4.824695 -0.767248 0.712229 0
M  V30 41 H 5.752587 1.345992 0.869025 0
M  V30 42 H 4.914778 1.825171 2.373419 0
M  V30 43 H 2.498877 2.546078 1.892260 0
M  V30 44 H 1.797739 1.450272 -0.846539 0
M  V30 45 H 2.000642 3.147311 -0.419555 0
M  V30 46 H -0.021921 3.554539 -1.351880 0
M  V30 47 H -0.507946 1.844605 -1.702608 0
M  V30 48 H -2.627260 2.939401 -1.340886 0
M  V30 49 H -1.951043 4.047351 -0.074108 0
M  V30 50 H -3.449431 2.337747 0.771389 0
M  V30 51 H -3.895227 0.602467 -1.498002 0
M  V30 52 H -5.118291 -2.495832 -1.453554 0
M  V30 53 H -5.444945 -4.317333 -3.197586 0
M  V30 54 H -1.416974 -3.942210 -4.367112 0
M  V30 55 H -1.097833 -2.238015 -2.741247 0
M  V30 56 H -2.977951 -3.469481 0.845347 0
M  V30 57 H -2.199455 -5.697513 1.275520 0
M  V30 58 H 1.703151 -4.584729 -0.096701 0
M  V30 59 H 0.862320 -2.246732 -0.542655 0
M  V30 60 H -0.779127 -0.188849 1.290172 0
M  V30 61 H -1.391957 1.373905 2.453066 0
M  V30 62 H -2.066360 2.993178 2.494248 0
M  V30 63 H -0.394293 3.949413 1.198797 0
M  V30 64 H 0.536386 2.897643 2.242894 0
M  V30 65 H 1.552210 0.629252 2.670994 0
M  V30 66 H 1.584044 -0.170254 0.987113 0
M  V30 END ATOM
M  V30 BEGIN BOND
M  V30 1 1 1 2
M  V30 2 1 2 3
M  V30 3 2 3 4
M  V30 4 1 3 5
M  V30 5 1 5 6
M  V30 6 1 6 7
M  V30 7 1 7 8
M  V30 8 1 8 9
M  V30 9 1 9 10
M  V30 10 1 10 11
M  V30 11 1 11 12
M  V30 12 1 12 13
M  V30 13 1 13 14
M  V30 14 1 14 15
M  V30 15 2 15 16
M  V30 16 1 16 17
M  V30 17 1 17 18
M  V30 18 2 18 19
M  V30 19 1 19 20
M  V30 20 2 20 21
M  V30 21 1 21 22
M  V30 22 2 22 23
M  V30 23 2 17 24
M  V30 24 1 24 25
M  V30 25 2 25 26
M  V30 26 1 26 27
M  V30 27 2 27 28
M  V30 28 1 28 29
M  V30 29 1 28 30
M  V30 30 2 30 31
M  V30 31 1 24 32
M  V30 32 1 14 33
M  V30 33 1 33 34
M  V30 34 1 9 35
M  V30 35 1 35 5
M  V30 36 1 34 11
M  V30 37 1 32 15
M  V30 38 1 23 18
M  V30 39 1 31 25
M  V30 40 1 1 36
M  V30 41 1 1 37
M  V30 42 1 1 38
M  V30 43 1 6 39
M  V30 44 1 6 40
M  V30 45 1 7 41
M  V30 46 1 7 42
M  V30 47 1 9 43
M  V30 48 1 10 44
M  V30 49 1 10 45
M  V30 50 1 12 46
M  V30 51 1 12 47
M  V30 52 1 13 48
M  V30 53 1 13 49
M  V30 54 1 14 50
M  V30 55 1 16 51
M  V30 56 1 19 52
M  V30 57 1 20 53
M  V30 58 1 22 54
M  V30 59 1 23 55
M  V30 60 1 26 56
M  V30 61 1 27 57
M  V30 62 1 30 58
M  V30 63 1 31 59
M  V30 64 1 32 60
M  V30 65 1 33 61
M  V30 66 1 33 62
M  V30 67 1 34 63
M  V30 68 1 34 64
M  V30 69 1 35 65
M  V30 70 1 35 66
M  V30 END BOND
M  V30 END CTAB
M  END
>  <Dataset>  (549) 
ChEMBL_Kinases

>  <Ligand_Instance>  (549) 
nan

>  <PDB_ID>  (549) 
nan

>  <Standardized_SMILES>  (549) 
COC(=O)N1CCOC(CN2CCC(c3cc(-c4ccncc4)c(-c4ccc(F)cc4)[nH]3)CC2)C1

>  <Name>  (549) 
nan

>  <Pocket>  (549) 
nan

>  <ATP_Site>  (549) 
nan

>  <Peripheral>  (549) 
nan

>  <Num_H_Atoms_ProtBoundConf>  (549) 
nan

>  <Num_Resolved_Atoms>  (549) 
nan

>  <Num_Not_Resolved_Atoms>  (549) 
nan

$$$$
CHEMBL256189
     RDKit          3D

  0  0  0  0  0  0  0  0  0  0999 V3000
M  V30 BEGIN CTAB
M  V30 COUNTS 63 68 0 0 0
M  V30 BEGIN ATOM
M  V30 1 O 1.573636 -0.203587 4.506349 0
M  V30 2 C 2.047168 0.735533 5.172591 0
M  V30 3 C 3.442170 0.288870 5.342885 0
M  V30 4 C 3.810061 -0.885749 4.445559 0
M  V30 5 C 3.753247 -0.452524 3.032082 0
M  V30 6 C 4.005773 -1.543264 1.996333 0
M  V30 7 C 3.823367 -0.892181 0.634348 0
M  V30 8 C 4.498850 -0.345163 -0.433322 0
M  V30 9 N 3.619757 0.128664 -1.359037 0
M  V30 10 N 2.403283 -0.101058 -0.913934 0
M  V30 11 C 1.171155 0.148705 -1.379821 0
M  V30 12 N 0.967914 0.844913 -2.642816 0
M  V30 13 C -0.425715 0.982070 -2.995829 0
M  V30 14 C -0.938598 2.105045 -3.610495 0
M  V30 15 C -2.302637 2.153791 -3.902765 0
M  V30 16 C -3.168508 1.120151 -3.601871 0
M  V30 17 C -2.681080 -0.013233 -2.988650 0
M  V30 18 C -3.425612 -1.183471 -2.553744 0
M  V30 19 O -4.286460 -0.909621 -1.665623 0
M  V30 20 N -3.481972 -2.557495 -2.818699 0
M  V30 21 C -4.399569 -3.439850 -2.119879 0
M  V30 22 C -4.319920 -4.441615 -3.246973 0
M  V30 23 O -5.350250 -4.212123 -4.167427 0
M  V30 24 C -3.027104 -3.733395 -3.548275 0
M  V30 25 C -1.311355 -0.063018 -2.697420 0
M  V30 26 N 0.163124 -0.243335 -0.606122 0
M  V30 27 C 0.251100 -0.849398 0.565425 0
M  V30 28 N 1.482703 -1.094431 1.024868 0
M  V30 29 C 2.507293 -0.714254 0.276673 0
M  V30 30 N -1.055102 -1.094461 1.087689 0
M  V30 31 C -1.371839 -0.545727 2.357441 0
M  V30 32 C -2.600252 -0.542274 2.978817 0
M  V30 33 C -2.751177 0.017425 4.249310 0
M  V30 34 C -1.664217 0.589489 4.929475 0
M  V30 35 C -0.415850 0.615940 4.359978 0
M  V30 36 C -0.395494 0.043171 3.119958 0
M  V30 37 N 0.705636 1.178711 5.016456 0
M  V30 38 H 4.069006 1.175536 5.017508 0
M  V30 39 H 3.700677 0.049810 6.369671 0
M  V30 40 H 4.839086 -1.226940 4.718815 0
M  V30 41 H 3.133894 -1.711699 4.728266 0
M  V30 42 H 2.883858 0.118352 2.759358 0
M  V30 43 H 4.650038 0.238466 2.884387 0
M  V30 44 H 5.042495 -1.920248 2.005728 0
M  V30 45 H 3.327303 -2.386441 2.098427 0
M  V30 46 H 5.580749 -0.345543 -0.422660 0
M  V30 47 H 1.792163 1.178518 -3.178528 0
M  V30 48 H -0.286151 2.926605 -3.861114 0
M  V30 49 H -2.751698 3.019915 -4.382506 0
M  V30 50 H -4.235358 1.117067 -3.803927 0
M  V30 51 H -3.850613 -3.865096 -1.224553 0
M  V30 52 H -5.397823 -3.067038 -1.900890 0
M  V30 53 H -4.275595 -5.467547 -2.877973 0
M  V30 54 H -5.036110 -3.457408 -4.749138 0
M  V30 55 H -2.212150 -4.212285 -2.956340 0
M  V30 56 H -2.817852 -3.590033 -4.617534 0
M  V30 57 H -0.989103 -1.001640 -2.255755 0
M  V30 58 H -1.808685 -1.640743 0.623722 0
M  V30 59 H -3.423953 -0.987017 2.436460 0
M  V30 60 H -3.731247 0.014473 4.734103 0
M  V30 61 H -1.760129 1.037336 5.916926 0
M  V30 62 H 0.564024 0.094973 2.648814 0
M  V30 63 H 0.484183 2.084811 5.465492 0
M  V30 END ATOM
M  V30 BEGIN BOND
M  V30 1 2 1 2
M  V30 2 1 2 3
M  V30 3 1 3 4
M  V30 4 1 4 5
M  V30 5 1 5 6
M  V30 6 1 6 7
M  V30 7 1 7 8
M  V30 8 2 8 9
M  V30 9 1 9 10
M  V30 10 1 10 11
M  V30 11 1 11 12
M  V30 12 1 12 13
M  V30 13 2 13 14
M  V30 14 1 14 15
M  V30 15 2 15 16
M  V30 16 1 16 17
M  V30 17 1 17 18
M  V30 18 2 18 19
M  V30 19 1 18 20
M  V30 20 1 20 21
M  V30 21 1 21 22
M  V30 22 1 22 23
M  V30 23 1 22 24
M  V30 24 2 17 25
M  V30 25 2 11 26
M  V30 26 1 26 27
M  V30 27 2 27 28
M  V30 28 1 28 29
M  V30 29 1 27 30
M  V30 30 1 30 31
M  V30 31 1 31 32
M  V30 32 2 32 33
M  V30 33 1 33 34
M  V30 34 2 34 35
M  V30 35 1 35 36
M  V30 36 1 35 37
M  V30 37 1 37 2
M  V30 38 2 29 7
M  V30 39 2 36 31
M  V30 40 1 29 10
M  V30 41 1 25 13
M  V30 42 1 24 20
M  V30 43 1 3 38
M  V30 44 1 3 39
M  V30 45 1 4 40
M  V30 46 1 4 41
M  V30 47 1 5 42
M  V30 48 1 5 43
M  V30 49 1 6 44
M  V30 50 1 6 45
M  V30 51 1 8 46
M  V30 52 1 12 47
M  V30 53 1 14 48
M  V30 54 1 15 49
M  V30 55 1 16 50
M  V30 56 1 21 51
M  V30 57 1 21 52
M  V30 58 1 22 53
M  V30 59 1 23 54
M  V30 60 1 24 55
M  V30 61 1 24 56
M  V30 62 1 25 57
M  V30 63 1 30 58
M  V30 64 1 32 59
M  V30 65 1 33 60
M  V30 66 1 34 61
M  V30 67 1 36 62
M  V30 68 1 37 63
M  V30 END BOND
M  V30 END CTAB
M  END
>  <Dataset>  (550) 
ChEMBL_Kinases

>  <Ligand_Instance>  (550) 
nan

>  <PDB_ID>  (550) 
nan

>  <Standardized_SMILES>  (550) 
O=C1CCCCc2cnn3c(Nc4cccc(C(=O)N5CC(O)C5)c4)nc(nc23)Nc2cccc(c2)N1

>  <Name>  (550) 
nan

>  <Pocket>  (550) 
nan

>  <ATP_Site>  (550) 
nan

>  <Peripheral>  (550) 
nan

>  <Num_H_Atoms_ProtBoundConf>  (550) 
nan

>  <Num_Resolved_Atoms>  (550) 
nan

>  <Num_Not_Resolved_Atoms>  (550) 
nan

$$$$
CHEMBL255565
     RDKit          3D

  0  0  0  0  0  0  0  0  0  0999 V3000
M  V30 BEGIN CTAB
M  V30 COUNTS 68 73 0 0 0
M  V30 BEGIN ATOM
M  V30 1 O 4.578150 2.492212 4.403584 0
M  V30 2 C 3.623989 1.759658 4.029313 0
M  V30 3 N 3.070521 0.594253 4.672998 0
M  V30 4 C 2.009040 0.114484 3.867107 0
M  V30 5 O 1.439804 -0.893520 4.307408 0
M  V30 6 C 1.847857 0.940701 2.699739 0
M  V30 7 C 2.816055 1.905636 2.821993 0
M  V30 8 C 2.943157 2.886341 1.845527 0
M  V30 9 C 3.956976 3.933526 1.931089 0
M  V30 10 C 5.202305 3.692126 1.355883 0
M  V30 11 C 6.188661 4.682418 1.426509 0
M  V30 12 C 5.945446 5.904849 2.062248 0
M  V30 13 C 4.695831 6.137855 2.635351 0
M  V30 14 C 3.712593 5.156971 2.567755 0
M  V30 15 Cl 2.113929 5.392702 3.272845 0
M  V30 16 C 2.094759 2.883329 0.759079 0
M  V30 17 C 1.122704 1.886468 0.668772 0
M  V30 18 C 1.018457 0.932564 1.643723 0
M  V30 19 C 0.000331 0.085245 1.321290 0
M  V30 20 C -0.631801 -1.022873 1.797359 0
M  V30 21 C -1.683568 -1.654223 1.180629 0
M  V30 22 O -2.291298 -2.796008 1.726893 0
M  V30 23 C -2.164210 -1.143554 -0.029962 0
M  V30 24 C -3.317030 -1.874107 -0.659616 0
M  V30 25 C -2.713031 -3.133871 -1.276489 0
M  V30 26 C -3.781471 -3.972853 -1.946231 0
M  V30 27 C -3.186714 -5.221440 -2.557871 0
M  V30 28 N -2.560470 -6.000713 -1.530842 0
M  V30 29 C -1.964136 -7.224707 -2.037028 0
M  V30 30 C -1.809605 -8.100878 -0.819537 0
M  V30 31 C -2.973530 -7.726332 0.033097 0
M  V30 32 C -3.487055 -6.418569 -0.498323 0
M  V30 33 C -1.552756 -0.029907 -0.539126 0
M  V30 34 C -0.499681 0.559198 0.128352 0
M  V30 35 N 0.177284 1.663787 -0.286509 0
M  V30 36 C 0.014122 2.486303 -1.452176 0
M  V30 37 C -0.938182 3.638000 -1.261661 0
M  V30 38 O -2.184267 3.147651 -0.928361 0
M  V30 39 H 3.498391 0.283751 5.583650 0
M  V30 40 H 5.447249 2.769629 0.853207 0
M  V30 41 H 7.171614 4.564212 1.004201 0
M  V30 42 H 6.706298 6.678748 2.120904 0
M  V30 43 H 4.481911 7.087851 3.138513 0
M  V30 44 H 2.181965 3.638774 -0.007406 0
M  V30 45 H -0.326146 -1.466155 2.704928 0
M  V30 46 H -3.203166 -2.617313 2.139765 0
M  V30 47 H -4.045539 -2.146996 0.123045 0
M  V30 48 H -3.783099 -1.293197 -1.460147 0
M  V30 49 H -1.956322 -2.854801 -2.030054 0
M  V30 50 H -2.252827 -3.735317 -0.469403 0
M  V30 51 H -4.551307 -4.245338 -1.212495 0
M  V30 52 H -4.252502 -3.331360 -2.723032 0
M  V30 53 H -3.991194 -5.757553 -3.098972 0
M  V30 54 H -2.431696 -4.903467 -3.297231 0
M  V30 55 H -0.960404 -7.007001 -2.434103 0
M  V30 56 H -2.584743 -7.713645 -2.817434 0
M  V30 57 H -1.772115 -9.178369 -1.088859 0
M  V30 58 H -0.857810 -7.842183 -0.275568 0
M  V30 59 H -2.688916 -7.675330 1.105483 0
M  V30 60 H -3.728942 -8.551712 -0.019720 0
M  V30 61 H -4.525950 -6.576872 -0.875744 0
M  V30 62 H -3.548715 -5.615161 0.255988 0
M  V30 63 H -1.936488 0.345507 -1.467892 0
M  V30 64 H -0.334731 1.934086 -2.343134 0
M  V30 65 H 1.010217 2.915427 -1.735616 0
M  V30 66 H -0.989792 4.195128 -2.202984 0
M  V30 67 H -0.600672 4.349359 -0.481466 0
M  V30 68 H -2.824959 3.905709 -0.788468 0
M  V30 END ATOM
M  V30 BEGIN BOND
M  V30 1 2 1 2
M  V30 2 1 2 3
M  V30 3 1 3 4
M  V30 4 2 4 5
M  V30 5 1 4 6
M  V30 6 2 6 7
M  V30 7 1 7 8
M  V30 8 1 8 9
M  V30 9 2 9 10
M  V30 10 1 10 11
M  V30 11 2 11 12
M  V30 12 1 12 13
M  V30 13 2 13 14
M  V30 14 1 14 15
M  V30 15 2 8 16
M  V30 16 1 16 17
M  V30 17 2 17 18
M  V30 18 1 18 19
M  V30 19 2 19 20
M  V30 20 1 20 21
M  V30 21 1 21 22
M  V30 22 2 21 23
M  V30 23 1 23 24
M  V30 24 1 24 25
M  V30 25 1 25 26
M  V30 26 1 26 27
M  V30 27 1 27 28
M  V30 28 1 28 29
M  V30 29 1 29 30
M  V30 30 1 30 31
M  V30 31 1 31 32
M  V30 32 1 23 33
M  V30 33 2 33 34
M  V30 34 1 34 35
M  V30 35 1 35 36
M  V30 36 1 36 37
M  V30 37 1 37 38
M  V30 38 1 7 2
M  V30 39 1 14 9
M  V30 40 1 35 17
M  V30 41 1 18 6
M  V30 42 1 34 19
M  V30 43 1 32 28
M  V30 44 1 3 39
M  V30 45 1 10 40
M  V30 46 1 11 41
M  V30 47 1 12 42
M  V30 48 1 13 43
M  V30 49 1 16 44
M  V30 50 1 20 45
M  V30 51 1 22 46
M  V30 52 1 24 47
M  V30 53 1 24 48
M  V30 54 1 25 49
M  V30 55 1 25 50
M  V30 56 1 26 51
M  V30 57 1 26 52
M  V30 58 1 27 53
M  V30 59 1 27 54
M  V30 60 1 29 55
M  V30 61 1 29 56
M  V30 62 1 30 57
M  V30 63 1 30 58
M  V30 64 1 31 59
M  V30 65 1 31 60
M  V30 66 1 32 61
M  V30 67 1 32 62
M  V30 68 1 33 63
M  V30 69 1 36 64
M  V30 70 1 36 65
M  V30 71 1 37 66
M  V30 72 1 37 67
M  V30 73 1 38 68
M  V30 END BOND
M  V30 END CTAB
M  END
>  <Dataset>  (551) 
ChEMBL_Kinases

>  <Ligand_Instance>  (551) 
nan

>  <PDB_ID>  (551) 
nan

>  <Standardized_SMILES>  (551) 
O=C1NC(=O)c2c1c(-c1ccccc1Cl)cc1c2c2cc(O)c(CCCCN3CCCC3)cc2n1CCO

>  <Name>  (551) 
nan

>  <Pocket>  (551) 
nan

>  <ATP_Site>  (551) 
nan

>  <Peripheral>  (551) 
nan

>  <Num_H_Atoms_ProtBoundConf>  (551) 
nan

>  <Num_Resolved_Atoms>  (551) 
nan

>  <Num_Not_Resolved_Atoms>  (551) 
nan

$$$$
CHEMBL259163
     RDKit          3D

  0  0  0  0  0  0  0  0  0  0999 V3000
M  V30 BEGIN CTAB
M  V30 COUNTS 45 49 0 0 0
M  V30 BEGIN ATOM
M  V30 1 C -0.184257 -0.816945 -1.952716 0
M  V30 2 C 0.610057 -2.046362 -1.989610 0
M  V30 3 C 0.845172 -2.835595 -3.110706 0
M  V30 4 N 1.607858 -3.890384 -2.741287 0
M  V30 5 C 1.899151 -3.854593 -1.433181 0
M  V30 6 N 2.572490 -4.583557 -0.526370 0
M  V30 7 C 2.633465 -4.202385 0.779757 0
M  V30 8 N 2.019925 -3.082133 1.198594 0
M  V30 9 C 1.322328 -2.301620 0.324845 0
M  V30 10 N 0.798931 -1.155142 0.999617 0
M  V30 11 C 1.159067 0.247954 1.012287 0
M  V30 12 C 0.028317 0.934855 1.699589 0
M  V30 13 C -0.801316 1.829446 0.810964 0
M  V30 14 C 0.104947 2.830459 0.176442 0
M  V30 15 N 1.208385 3.216967 1.028874 0
M  V30 16 C 0.921586 3.137840 2.428206 0
M  V30 17 C 0.496095 1.770040 2.881964 0
M  V30 18 C -0.772250 -0.180195 2.253727 0
M  V30 19 C -1.858038 -0.006187 3.093993 0
M  V30 20 C -2.545320 -1.109108 3.566083 0
M  V30 21 C -2.122047 -2.346349 3.180897 0
M  V30 22 C -1.037193 -2.489309 2.342811 0
M  V30 23 C -0.322747 -1.418835 1.848235 0
M  V30 24 C 1.277160 -2.711909 -0.986592 0
M  V30 25 H -0.826581 -0.743228 -1.046511 0
M  V30 26 H 0.416320 0.062517 -2.175096 0
M  V30 27 H -0.931245 -0.876655 -2.799595 0
M  V30 28 H 0.460970 -2.608710 -4.107055 0
M  V30 29 H 1.946588 -4.659365 -3.376732 0
M  V30 30 H 3.206725 -4.872195 1.419805 0
M  V30 31 H 1.233247 0.653085 -0.002549 0
M  V30 32 H 2.129440 0.407702 1.553070 0
M  V30 33 H -1.376165 1.293926 0.059281 0
M  V30 34 H -1.462801 2.400502 1.511175 0
M  V30 35 H -0.426769 3.771690 -0.112156 0
M  V30 36 H 0.512136 2.404622 -0.755794 0
M  V30 37 H 2.087739 2.750246 0.790224 0
M  V30 38 H 0.147108 3.893616 2.715203 0
M  V30 39 H 1.845496 3.432061 2.962526 0
M  V30 40 H -0.358341 1.869318 3.580183 0
M  V30 41 H 1.333162 1.277793 3.395948 0
M  V30 42 H -2.240528 0.947597 3.433959 0
M  V30 43 H -3.396340 -1.005903 4.223035 0
M  V30 44 H -2.631910 -3.236968 3.527612 0
M  V30 45 H -0.701184 -3.471609 2.037187 0
M  V30 END ATOM
M  V30 BEGIN BOND
M  V30 1 1 1 2
M  V30 2 2 2 3
M  V30 3 1 3 4
M  V30 4 1 4 5
M  V30 5 2 5 6
M  V30 6 1 6 7
M  V30 7 2 7 8
M  V30 8 1 8 9
M  V30 9 1 9 10
M  V30 10 1 10 11
M  V30 11 1 11 12
M  V30 12 1 12 13
M  V30 13 1 13 14
M  V30 14 1 14 15
M  V30 15 1 15 16
M  V30 16 1 16 17
M  V30 17 1 12 18
M  V30 18 2 18 19
M  V30 19 1 19 20
M  V30 20 2 20 21
M  V30 21 1 21 22
M  V30 22 2 22 23
M  V30 23 2 9 24
M  V30 24 1 24 2
M  V30 25 1 24 5
M  V30 26 1 23 10
M  V30 27 1 17 12
M  V30 28 1 23 18
M  V30 29 1 1 25
M  V30 30 1 1 26
M  V30 31 1 1 27
M  V30 32 1 3 28
M  V30 33 1 4 29
M  V30 34 1 7 30
M  V30 35 1 11 31
M  V30 36 1 11 32
M  V30 37 1 13 33
M  V30 38 1 13 34
M  V30 39 1 14 35
M  V30 40 1 14 36
M  V30 41 1 15 37
M  V30 42 1 16 38
M  V30 43 1 16 39
M  V30 44 1 17 40
M  V30 45 1 17 41
M  V30 46 1 19 42
M  V30 47 1 20 43
M  V30 48 1 21 44
M  V30 49 1 22 45
M  V30 END BOND
M  V30 END CTAB
M  END
>  <Dataset>  (552) 
ChEMBL_Kinases

>  <Ligand_Instance>  (552) 
nan

>  <PDB_ID>  (552) 
nan

>  <Standardized_SMILES>  (552) 
Cc1c[nH]c2ncnc(N3CC4(CCNCC4)c4ccccc43)c12

>  <Name>  (552) 
nan

>  <Pocket>  (552) 
nan

>  <ATP_Site>  (552) 
nan

>  <Peripheral>  (552) 
nan

>  <Num_H_Atoms_ProtBoundConf>  (552) 
nan

>  <Num_Resolved_Atoms>  (552) 
nan

>  <Num_Not_Resolved_Atoms>  (552) 
nan

$$$$
CHEMBL259140
     RDKit          3D

  0  0  0  0  0  0  0  0  0  0999 V3000
M  V30 BEGIN CTAB
M  V30 COUNTS 41 44 0 0 0
M  V30 BEGIN ATOM
M  V30 1 N 2.441029 -5.754038 5.110405 0
M  V30 2 C 2.494709 -5.052629 4.190878 0
M  V30 3 C 2.554964 -4.185875 3.047618 0
M  V30 4 C 3.702309 -4.128087 2.284723 0
M  V30 5 C 3.722930 -3.284989 1.195450 0
M  V30 6 C 2.597463 -2.540163 0.920034 0
M  V30 7 C 1.427471 -2.559972 1.648174 0
M  V30 8 C 0.256745 -1.759113 1.322847 0
M  V30 9 N 0.160089 -0.894374 0.300412 0
M  V30 10 C -0.945530 -0.180130 0.033767 0
M  V30 11 N -1.031155 0.717284 -1.050806 0
M  V30 12 C -0.030091 1.055301 -2.027514 0
M  V30 13 C 1.126551 1.724433 -1.382635 0
M  V30 14 C 0.883147 3.100774 -1.321858 0
M  V30 15 C 1.828855 3.959989 -0.759956 0
M  V30 16 C 2.990509 3.385782 -0.279283 0
M  V30 17 N 3.210449 2.069134 -0.343716 0
M  V30 18 C 2.315109 1.250986 -0.876418 0
M  V30 19 C -2.007880 -0.378530 0.879515 0
M  V30 20 C -3.213668 0.274624 0.745649 0
M  V30 21 C -4.307370 0.112181 1.564579 0
M  V30 22 C -4.205356 -0.785815 2.625703 0
M  V30 23 C -3.011575 -1.453931 2.784993 0
M  V30 24 C -1.950578 -1.247759 1.930035 0
M  V30 25 N -0.823367 -1.927185 2.141077 0
M  V30 26 C 1.456721 -3.418764 2.727455 0
M  V30 27 H 4.579080 -4.718390 2.512143 0
M  V30 28 H 4.619940 -3.245261 0.605967 0
M  V30 29 H 2.682764 -1.910557 0.060997 0
M  V30 30 H -1.890610 1.255653 -1.254593 0
M  V30 31 H -0.379305 1.562125 -2.921569 0
M  V30 32 H 0.373881 0.060813 -2.386420 0
M  V30 33 H 0.007217 3.652608 -1.669024 0
M  V30 34 H 1.705974 5.031082 -0.680891 0
M  V30 35 H 3.788607 3.952607 0.174664 0
M  V30 36 H 2.375737 0.196063 -0.988307 0
M  V30 37 H -3.380274 0.984668 -0.044642 0
M  V30 38 H -5.236525 0.635274 1.436773 0
M  V30 39 H -4.997860 -0.984136 3.319512 0
M  V30 40 H -2.922105 -2.162787 3.617585 0
M  V30 41 H 0.583834 -3.504948 3.361761 0
M  V30 END ATOM
M  V30 BEGIN BOND
M  V30 1 3 1 2
M  V30 2 1 2 3
M  V30 3 2 3 4
M  V30 4 1 4 5
M  V30 5 2 5 6
M  V30 6 1 6 7
M  V30 7 1 7 8
M  V30 8 2 8 9
M  V30 9 1 9 10
M  V30 10 1 10 11
M  V30 11 1 11 12
M  V30 12 1 12 13
M  V30 13 2 13 14
M  V30 14 1 14 15
M  V30 15 2 15 16
M  V30 16 1 16 17
M  V30 17 2 17 18
M  V30 18 2 10 19
M  V30 19 1 19 20
M  V30 20 2 20 21
M  V30 21 1 21 22
M  V30 22 2 22 23
M  V30 23 1 23 24
M  V30 24 2 24 25
M  V30 25 2 7 26
M  V30 26 1 26 3
M  V30 27 1 25 8
M  V30 28 1 18 13
M  V30 29 1 24 19
M  V30 30 1 4 27
M  V30 31 1 5 28
M  V30 32 1 6 29
M  V30 33 1 11 30
M  V30 34 1 12 31
M  V30 35 1 12 32
M  V30 36 1 14 33
M  V30 37 1 15 34
M  V30 38 1 16 35
M  V30 39 1 18 36
M  V30 40 1 20 37
M  V30 41 1 21 38
M  V30 42 1 22 39
M  V30 43 1 23 40
M  V30 44 1 26 41
M  V30 END BOND
M  V30 END CTAB
M  END
>  <Dataset>  (553) 
ChEMBL_Kinases

>  <Ligand_Instance>  (553) 
nan

>  <PDB_ID>  (553) 
nan

>  <Standardized_SMILES>  (553) 
N#Cc1cccc(-c2nc(NCc3cccnc3)c3ccccc3n2)c1

>  <Name>  (553) 
nan

>  <Pocket>  (553) 
nan

>  <ATP_Site>  (553) 
nan

>  <Peripheral>  (553) 
nan

>  <Num_H_Atoms_ProtBoundConf>  (553) 
nan

>  <Num_Resolved_Atoms>  (553) 
nan

>  <Num_Not_Resolved_Atoms>  (553) 
nan

$$$$
CHEMBL259092
     RDKit          3D

  0  0  0  0  0  0  0  0  0  0999 V3000
M  V30 BEGIN CTAB
M  V30 COUNTS 57 60 0 0 0
M  V30 BEGIN ATOM
M  V30 1 C 3.827129 -1.717409 0.779780 0
M  V30 2 O 2.585401 -1.267362 1.242967 0
M  V30 3 C 1.378921 -1.930009 1.129028 0
M  V30 4 O 2.129528 -2.728966 0.578866 0
M  V30 5 C 0.107851 -1.430792 1.622917 0
M  V30 6 C 0.184803 -0.208554 2.245360 0
M  V30 7 C 1.431996 0.540342 2.373254 0
M  V30 8 C 2.313125 0.421746 3.439337 0
M  V30 9 C 3.466170 1.197721 3.431653 0
M  V30 10 C 3.726199 2.072021 2.376444 0
M  V30 11 C 2.843024 2.180105 1.324137 0
M  V30 12 C 3.101858 3.114937 0.176541 0
M  V30 13 O 3.809766 2.500761 -0.825948 0
M  V30 14 C 1.687279 1.413807 1.314525 0
M  V30 15 C -0.977226 0.315949 2.764852 0
M  V30 16 C -0.980657 1.528811 3.399548 0
M  V30 17 C -2.113958 2.070026 3.922058 0
M  V30 18 Cl -2.126239 3.617046 4.733298 0
M  V30 19 C -3.284373 1.353304 3.794885 0
M  V30 20 C -3.255278 0.135341 3.152084 0
M  V30 21 C -2.118611 -0.440426 2.610788 0
M  V30 22 C -2.106076 -1.659877 1.970423 0
M  V30 23 O -3.239737 -2.191771 1.933012 0
M  V30 24 N -0.988069 -2.187859 1.457546 0
M  V30 25 C -1.042642 -3.473525 0.801202 0
M  V30 26 C -1.366651 -3.427920 -0.622113 0
M  V30 27 C -2.725514 -3.569566 -0.931212 0
M  V30 28 C -3.167074 -3.542993 -2.253814 0
M  V30 29 C -2.282020 -3.376093 -3.312098 0
M  V30 30 S -2.774023 -3.334546 -4.987648 0
M  V30 31 C -3.141145 -1.666269 -5.477083 0
M  V30 32 O -4.049225 -4.137282 -5.161968 0
M  V30 33 O -1.690783 -3.913348 -5.879777 0
M  V30 34 C -0.938081 -3.234410 -3.037006 0
M  V30 35 C -0.553801 -3.267544 -1.716445 0
M  V30 36 H 4.641200 -0.980677 1.006829 0
M  V30 37 H 4.112112 -2.632265 1.360358 0
M  V30 38 H 3.864970 -1.883937 -0.325632 0
M  V30 39 H 2.059274 -0.268917 4.224122 0
M  V30 40 H 4.153921 1.115437 4.248284 0
M  V30 41 H 4.616002 2.684159 2.350443 0
M  V30 42 H 3.652297 3.989326 0.621139 0
M  V30 43 H 2.098958 3.497624 -0.122341 0
M  V30 44 H 3.389975 2.796655 -1.691584 0
M  V30 45 H 1.014892 1.522105 0.474175 0
M  V30 46 H -0.057186 2.089155 3.497188 0
M  V30 47 H -4.186103 1.779757 4.208454 0
M  V30 48 H -4.197721 -0.397952 3.072588 0
M  V30 49 H -0.006919 -3.922689 0.874801 0
M  V30 50 H -1.675699 -4.180059 1.377071 0
M  V30 51 H -3.563114 -3.710100 -0.292639 0
M  V30 52 H -4.186538 -3.642450 -2.598110 0
M  V30 53 H -4.120127 -1.598314 -6.002507 0
M  V30 54 H -2.323360 -1.225419 -6.088189 0
M  V30 55 H -3.198768 -1.040942 -4.556854 0
M  V30 56 H -0.190762 -3.100904 -3.806865 0
M  V30 57 H 0.492842 -3.158738 -1.509033 0
M  V30 END ATOM
M  V30 BEGIN BOND
M  V30 1 1 1 2
M  V30 2 1 2 3
M  V30 3 2 3 4
M  V30 4 1 3 5
M  V30 5 2 5 6
M  V30 6 1 6 7
M  V30 7 2 7 8
M  V30 8 1 8 9
M  V30 9 2 9 10
M  V30 10 1 10 11
M  V30 11 1 11 12
M  V30 12 1 12 13
M  V30 13 2 11 14
M  V30 14 1 6 15
M  V30 15 2 15 16
M  V30 16 1 16 17
M  V30 17 1 17 18
M  V30 18 2 17 19
M  V30 19 1 19 20
M  V30 20 2 20 21
M  V30 21 1 21 22
M  V30 22 2 22 23
M  V30 23 1 22 24
M  V30 24 1 24 25
M  V30 25 1 25 26
M  V30 26 2 26 27
M  V30 27 1 27 28
M  V30 28 2 28 29
M  V30 29 1 29 30
M  V30 30 1 30 31
M  V30 31 2 30 32
M  V30 32 2 30 33
M  V30 33 1 29 34
M  V30 34 2 34 35
M  V30 35 1 24 5
M  V30 36 1 35 26
M  V30 37 1 14 7
M  V30 38 1 21 15
M  V30 39 1 1 36
M  V30 40 1 1 37
M  V30 41 1 1 38
M  V30 42 1 8 39
M  V30 43 1 9 40
M  V30 44 1 10 41
M  V30 45 1 12 42
M  V30 46 1 12 43
M  V30 47 1 13 44
M  V30 48 1 14 45
M  V30 49 1 16 46
M  V30 50 1 19 47
M  V30 51 1 20 48
M  V30 52 1 25 49
M  V30 53 1 25 50
M  V30 54 1 27 51
M  V30 55 1 28 52
M  V30 56 1 31 53
M  V30 57 1 31 54
M  V30 58 1 31 55
M  V30 59 1 34 56
M  V30 60 1 35 57
M  V30 END BOND
M  V30 END CTAB
M  END
>  <Dataset>  (554) 
ChEMBL_Kinases

>  <Ligand_Instance>  (554) 
nan

>  <PDB_ID>  (554) 
nan

>  <Standardized_SMILES>  (554) 
COC(=O)c1c(-c2cccc(CO)c2)c2cc(Cl)ccc2c(=O)n1Cc1ccc(S(C)(=O)=O)cc1

>  <Name>  (554) 
nan

>  <Pocket>  (554) 
nan

>  <ATP_Site>  (554) 
nan

>  <Peripheral>  (554) 
nan

>  <Num_H_Atoms_ProtBoundConf>  (554) 
nan

>  <Num_Resolved_Atoms>  (554) 
nan

>  <Num_Not_Resolved_Atoms>  (554) 
nan

$$$$
CHEMBL259007
     RDKit          3D

  0  0  0  0  0  0  0  0  0  0999 V3000
M  V30 BEGIN CTAB
M  V30 COUNTS 46 49 0 0 0
M  V30 BEGIN ATOM
M  V30 1 C 0.428632 -2.750084 4.299883 0
M  V30 2 O 1.725323 -2.961863 3.764200 0
M  V30 3 N 2.014384 -1.945016 2.937154 0
M  V30 4 C 3.194367 -1.669899 2.189331 0
M  V30 5 O 4.122801 -2.529108 2.335541 0
M  V30 6 C 3.371299 -0.532096 1.331065 0
M  V30 7 C 4.620906 -0.268979 0.808960 0
M  V30 8 C 4.818524 0.831043 -0.038790 0
M  V30 9 C 3.773504 1.669174 -0.368643 0
M  V30 10 C 3.891180 2.867687 -1.260439 0
M  V30 11 C 2.482292 1.447226 0.133294 0
M  V30 12 N 1.365481 2.270154 -0.187199 0
M  V30 13 C 0.125228 1.903352 0.401899 0
M  V30 14 N -0.548261 2.513527 1.429677 0
M  V30 15 C -1.710498 1.999445 1.873742 0
M  V30 16 N -2.289633 0.878124 1.360452 0
M  V30 17 C -1.624844 0.268634 0.338440 0
M  V30 18 C -0.431876 0.746019 -0.160102 0
M  V30 19 C -0.089209 -0.152306 -1.170941 0
M  V30 20 N -1.053216 -1.065947 -1.211686 0
M  V30 21 N -2.006816 -0.846953 -0.310206 0
M  V30 22 C -3.125534 -1.719609 -0.177659 0
M  V30 23 C -2.683040 -2.964100 0.261760 0
M  V30 24 C -3.554089 -4.025768 0.478845 0
M  V30 25 C -4.918726 -3.820469 0.241544 0
M  V30 26 C -5.344952 -2.572032 -0.197250 0
M  V30 27 C -4.473604 -1.522904 -0.409415 0
M  V30 28 C 2.390373 0.344242 0.957228 0
M  V30 29 H 0.479901 -2.300885 5.318415 0
M  V30 30 H -0.096805 -1.954280 3.689302 0
M  V30 31 H -0.152130 -3.683979 4.387837 0
M  V30 32 H 1.269619 -1.201524 2.783498 0
M  V30 33 H 5.485121 -0.894171 1.033031 0
M  V30 34 H 5.786846 1.069913 -0.462404 0
M  V30 35 H 3.208746 2.805363 -2.142427 0
M  V30 36 H 4.914835 2.877629 -1.654227 0
M  V30 37 H 3.727541 3.820569 -0.709431 0
M  V30 38 H 1.527084 3.064662 -0.815295 0
M  V30 39 H -2.186300 2.534813 2.684062 0
M  V30 40 H 0.811836 -0.021942 -1.745429 0
M  V30 41 H -1.683636 -3.296981 0.487051 0
M  V30 42 H -3.354284 -5.014176 0.808561 0
M  V30 43 H -5.683650 -4.593132 0.381886 0
M  V30 44 H -6.369616 -2.295489 -0.411059 0
M  V30 45 H -4.661896 -0.518721 -0.743525 0
M  V30 46 H 1.395086 0.164369 1.347369 0
M  V30 END ATOM
M  V30 BEGIN BOND
M  V30 1 1 1 2
M  V30 2 1 2 3
M  V30 3 1 3 4
M  V30 4 2 4 5
M  V30 5 1 4 6
M  V30 6 2 6 7
M  V30 7 1 7 8
M  V30 8 2 8 9
M  V30 9 1 9 10
M  V30 10 1 9 11
M  V30 11 1 11 12
M  V30 12 1 12 13
M  V30 13 2 13 14
M  V30 14 1 14 15
M  V30 15 2 15 16
M  V30 16 1 16 17
M  V30 17 2 17 18
M  V30 18 1 18 19
M  V30 19 2 19 20
M  V30 20 1 20 21
M  V30 21 1 21 22
M  V30 22 2 22 23
M  V30 23 1 23 24
M  V30 24 2 24 25
M  V30 25 1 25 26
M  V30 26 2 26 27
M  V30 27 2 11 28
M  V30 28 1 28 6
M  V30 29 1 18 13
M  V30 30 1 27 22
M  V30 31 1 21 17
M  V30 32 1 1 29
M  V30 33 1 1 30
M  V30 34 1 1 31
M  V30 35 1 3 32
M  V30 36 1 7 33
M  V30 37 1 8 34
M  V30 38 1 10 35
M  V30 39 1 10 36
M  V30 40 1 10 37
M  V30 41 1 12 38
M  V30 42 1 15 39
M  V30 43 1 19 40
M  V30 44 1 23 41
M  V30 45 1 24 42
M  V30 46 1 25 43
M  V30 47 1 26 44
M  V30 48 1 27 45
M  V30 49 1 28 46
M  V30 END BOND
M  V30 END CTAB
M  END
>  <Dataset>  (555) 
ChEMBL_Kinases

>  <Ligand_Instance>  (555) 
nan

>  <PDB_ID>  (555) 
nan

>  <Standardized_SMILES>  (555) 
CONC(=O)c1ccc(C)c(Nc2ncnc3c2cnn3-c2ccccc2)c1

>  <Name>  (555) 
nan

>  <Pocket>  (555) 
nan

>  <ATP_Site>  (555) 
nan

>  <Peripheral>  (555) 
nan

>  <Num_H_Atoms_ProtBoundConf>  (555) 
nan

>  <Num_Resolved_Atoms>  (555) 
nan

>  <Num_Not_Resolved_Atoms>  (555) 
nan

$$$$
CHEMBL258974
     RDKit          3D

  0  0  0  0  0  0  0  0  0  0999 V3000
M  V30 BEGIN CTAB
M  V30 COUNTS 55 59 0 0 0
M  V30 BEGIN ATOM
M  V30 1 C 4.333775 -2.471963 6.457001 0
M  V30 2 C 5.398174 -1.650963 5.714682 0
M  V30 3 N 4.714364 -0.429991 5.271145 0
M  V30 4 C 4.661556 0.690411 6.049393 0
M  V30 5 C 3.953890 1.645204 5.349431 0
M  V30 6 C 3.583826 1.072149 4.133411 0
M  V30 7 N 2.850938 1.479183 2.956986 0
M  V30 8 C 1.442667 1.265598 2.819770 0
M  V30 9 O 0.826738 0.703384 3.755269 0
M  V30 10 C 0.835405 1.727638 1.578355 0
M  V30 11 C 1.436762 2.447688 0.573689 0
M  V30 12 C 0.803137 2.838124 -0.577578 0
M  V30 13 C -0.541271 2.504332 -0.787972 0
M  V30 14 C -1.244052 2.915882 -2.026126 0
M  V30 15 C -1.186150 1.776644 0.204185 0
M  V30 16 N -2.557636 1.348574 0.110728 0
M  V30 17 C -3.016518 0.515514 -0.977496 0
M  V30 18 N -3.772851 1.002214 -1.980091 0
M  V30 19 C -4.186817 0.242329 -3.009140 0
M  V30 20 N -3.869936 -1.060072 -3.100206 0
M  V30 21 C -3.106567 -1.620698 -2.120145 0
M  V30 22 C -2.678027 -0.838490 -1.057021 0
M  V30 23 C -1.947290 -1.644475 -0.247835 0
M  V30 24 N -1.934919 -2.868295 -0.804041 0
M  V30 25 N -2.623596 -2.885144 -1.930352 0
M  V30 26 C -2.914287 -3.900254 -2.893876 0
M  V30 27 C -1.885285 -4.733630 -3.291619 0
M  V30 28 C -2.082605 -5.741620 -4.229699 0
M  V30 29 C -3.360832 -5.895086 -4.769212 0
M  V30 30 C -4.408774 -5.072390 -4.386957 0
M  V30 31 C -4.164760 -4.087738 -3.453119 0
M  V30 32 C -0.509819 1.391643 1.373766 0
M  V30 33 N 4.074731 -0.196741 4.138973 0
M  V30 34 H 3.406502 -1.889560 6.624914 0
M  V30 35 H 4.716755 -2.746624 7.472437 0
M  V30 36 H 4.037345 -3.378118 5.883823 0
M  V30 37 H 5.680024 -2.218420 4.802285 0
M  V30 38 H 6.233837 -1.386848 6.366481 0
M  V30 39 H 5.051798 0.914572 7.034737 0
M  V30 40 H 3.637592 2.672211 5.511810 0
M  V30 41 H 3.509342 1.932692 2.257662 0
M  V30 42 H 2.474084 2.709506 0.716445 0
M  V30 43 H 1.300182 3.396034 -1.338601 0
M  V30 44 H -0.647460 3.767860 -2.434539 0
M  V30 45 H -1.352609 2.100540 -2.759666 0
M  V30 46 H -2.240737 3.304924 -1.781779 0
M  V30 47 H -3.332191 1.587665 0.793769 0
M  V30 48 H -4.782754 0.756990 -3.738808 0
M  V30 49 H -1.455701 -1.371259 0.683820 0
M  V30 50 H -0.881312 -4.659376 -2.907692 0
M  V30 51 H -1.333168 -6.429953 -4.588132 0
M  V30 52 H -3.591580 -6.663689 -5.506377 0
M  V30 53 H -5.391883 -5.203302 -4.812259 0
M  V30 54 H -4.979704 -3.433465 -3.143983 0
M  V30 55 H -1.037255 0.827724 2.126600 0
M  V30 END ATOM
M  V30 BEGIN BOND
M  V30 1 1 1 2
M  V30 2 1 2 3
M  V30 3 1 3 4
M  V30 4 2 4 5
M  V30 5 1 5 6
M  V30 6 1 6 7
M  V30 7 1 7 8
M  V30 8 2 8 9
M  V30 9 1 8 10
M  V30 10 2 10 11
M  V30 11 1 11 12
M  V30 12 2 12 13
M  V30 13 1 13 14
M  V30 14 1 13 15
M  V30 15 1 15 16
M  V30 16 1 16 17
M  V30 17 2 17 18
M  V30 18 1 18 19
M  V30 19 2 19 20
M  V30 20 1 20 21
M  V30 21 2 21 22
M  V30 22 1 22 23
M  V30 23 2 23 24
M  V30 24 1 24 25
M  V30 25 1 25 26
M  V30 26 2 26 27
M  V30 27 1 27 28
M  V30 28 2 28 29
M  V30 29 1 29 30
M  V30 30 2 30 31
M  V30 31 2 15 32
M  V30 32 2 6 33
M  V30 33 1 33 3
M  V30 34 1 32 10
M  V30 35 1 22 17
M  V30 36 1 31 26
M  V30 37 1 25 21
M  V30 38 1 1 34
M  V30 39 1 1 35
M  V30 40 1 1 36
M  V30 41 1 2 37
M  V30 42 1 2 38
M  V30 43 1 4 39
M  V30 44 1 5 40
M  V30 45 1 7 41
M  V30 46 1 11 42
M  V30 47 1 12 43
M  V30 48 1 14 44
M  V30 49 1 14 45
M  V30 50 1 14 46
M  V30 51 1 16 47
M  V30 52 1 19 48
M  V30 53 1 23 49
M  V30 54 1 27 50
M  V30 55 1 28 51
M  V30 56 1 29 52
M  V30 57 1 30 53
M  V30 58 1 31 54
M  V30 59 1 32 55
M  V30 END BOND
M  V30 END CTAB
M  END
>  <Dataset>  (556) 
ChEMBL_Kinases

>  <Ligand_Instance>  (556) 
nan

>  <PDB_ID>  (556) 
nan

>  <Standardized_SMILES>  (556) 
CCn1ccc(NC(=O)c2ccc(C)c(Nc3ncnc4c3cnn4-c3ccccc3)c2)n1

>  <Name>  (556) 
nan

>  <Pocket>  (556) 
nan

>  <ATP_Site>  (556) 
nan

>  <Peripheral>  (556) 
nan

>  <Num_H_Atoms_ProtBoundConf>  (556) 
nan

>  <Num_Resolved_Atoms>  (556) 
nan

>  <Num_Not_Resolved_Atoms>  (556) 
nan

$$$$
CHEMBL258883
     RDKit          3D

  0  0  0  0  0  0  0  0  0  0999 V3000
M  V30 BEGIN CTAB
M  V30 COUNTS 57 60 0 0 0
M  V30 BEGIN ATOM
M  V30 1 C 3.601452 -2.076526 0.364089 0
M  V30 2 O 2.448428 -1.482164 0.858763 0
M  V30 3 C 1.189811 -2.053732 0.975691 0
M  V30 4 O 1.924656 -2.931766 0.487350 0
M  V30 5 C 0.010219 -1.402672 1.496682 0
M  V30 6 C 0.235395 -0.101822 1.900340 0
M  V30 7 C 1.510103 0.566731 1.786156 0
M  V30 8 C 2.499344 0.553722 2.779301 0
M  V30 9 C 3.690635 1.225441 2.577156 0
M  V30 10 C 3.905112 1.908653 1.397094 0
M  V30 11 C 5.166608 2.642029 1.138164 0
M  V30 12 O 5.000192 3.940687 1.600978 0
M  V30 13 C 2.930916 1.932301 0.397011 0
M  V30 14 C 1.729893 1.259862 0.591109 0
M  V30 15 C -0.845439 0.564890 2.439136 0
M  V30 16 C -0.720310 1.869607 2.872144 0
M  V30 17 C -1.771937 2.548852 3.407735 0
M  V30 18 Cl -1.654435 4.201021 3.967426 0
M  V30 19 C -2.973248 1.904470 3.510358 0
M  V30 20 C -3.066830 0.604870 3.070410 0
M  V30 21 C -2.034144 -0.127212 2.521122 0
M  V30 22 C -2.170330 -1.429259 2.091863 0
M  V30 23 O -3.314735 -1.871841 2.252095 0
M  V30 24 N -1.131653 -2.110942 1.558446 0
M  V30 25 C -1.323352 -3.453138 1.135071 0
M  V30 26 C -1.807317 -3.478653 -0.264003 0
M  V30 27 C -3.183852 -3.542413 -0.526347 0
M  V30 28 C -3.737196 -3.568248 -1.787597 0
M  V30 29 C -2.918667 -3.530805 -2.888006 0
M  V30 30 S -3.548094 -3.560162 -4.504260 0
M  V30 31 C -3.853691 -1.905616 -5.092530 0
M  V30 32 O -4.819536 -4.333563 -4.626260 0
M  V30 33 O -2.560548 -4.172028 -5.476557 0
M  V30 34 C -1.557251 -3.468058 -2.705865 0
M  V30 35 C -1.065259 -3.444968 -1.421161 0
M  V30 36 H 3.580868 -2.336373 -0.719051 0
M  V30 37 H 3.999550 -2.916109 0.985765 0
M  V30 38 H 4.411532 -1.288987 0.447240 0
M  V30 39 H 2.287077 0.004926 3.688129 0
M  V30 40 H 4.451889 1.211772 3.348852 0
M  V30 41 H 5.370886 2.659112 0.048732 0
M  V30 42 H 5.971823 2.128089 1.674601 0
M  V30 43 H 5.770910 4.464480 1.274337 0
M  V30 44 H 3.119057 2.468182 -0.509112 0
M  V30 45 H 1.020312 1.310532 -0.205363 0
M  V30 46 H 0.244917 2.369149 2.783162 0
M  V30 47 H -3.820661 2.416289 3.929217 0
M  V30 48 H -4.043414 0.145137 3.176823 0
M  V30 49 H -0.477410 -4.133068 1.311416 0
M  V30 50 H -2.148644 -3.896002 1.768926 0
M  V30 51 H -3.936855 -3.582680 0.247726 0
M  V30 52 H -4.778613 -3.616298 -1.992507 0
M  V30 53 H -4.595451 -1.987297 -5.905881 0
M  V30 54 H -2.935581 -1.421502 -5.425231 0
M  V30 55 H -4.326578 -1.355099 -4.248419 0
M  V30 56 H -0.887778 -3.437521 -3.548541 0
M  V30 57 H -0.000763 -3.398035 -1.322834 0
M  V30 END ATOM
M  V30 BEGIN BOND
M  V30 1 1 1 2
M  V30 2 1 2 3
M  V30 3 2 3 4
M  V30 4 1 3 5
M  V30 5 2 5 6
M  V30 6 1 6 7
M  V30 7 2 7 8
M  V30 8 1 8 9
M  V30 9 2 9 10
M  V30 10 1 10 11
M  V30 11 1 11 12
M  V30 12 1 10 13
M  V30 13 2 13 14
M  V30 14 1 6 15
M  V30 15 2 15 16
M  V30 16 1 16 17
M  V30 17 1 17 18
M  V30 18 2 17 19
M  V30 19 1 19 20
M  V30 20 2 20 21
M  V30 21 1 21 22
M  V30 22 2 22 23
M  V30 23 1 22 24
M  V30 24 1 24 25
M  V30 25 1 25 26
M  V30 26 2 26 27
M  V30 27 1 27 28
M  V30 28 2 28 29
M  V30 29 1 29 30
M  V30 30 1 30 31
M  V30 31 2 30 32
M  V30 32 2 30 33
M  V30 33 1 29 34
M  V30 34 2 34 35
M  V30 35 1 24 5
M  V30 36 1 35 26
M  V30 37 1 14 7
M  V30 38 1 21 15
M  V30 39 1 1 36
M  V30 40 1 1 37
M  V30 41 1 1 38
M  V30 42 1 8 39
M  V30 43 1 9 40
M  V30 44 1 11 41
M  V30 45 1 11 42
M  V30 46 1 12 43
M  V30 47 1 13 44
M  V30 48 1 14 45
M  V30 49 1 16 46
M  V30 50 1 19 47
M  V30 51 1 20 48
M  V30 52 1 25 49
M  V30 53 1 25 50
M  V30 54 1 27 51
M  V30 55 1 28 52
M  V30 56 1 31 53
M  V30 57 1 31 54
M  V30 58 1 31 55
M  V30 59 1 34 56
M  V30 60 1 35 57
M  V30 END BOND
M  V30 END CTAB
M  END
>  <Dataset>  (557) 
ChEMBL_Kinases

>  <Ligand_Instance>  (557) 
nan

>  <PDB_ID>  (557) 
nan

>  <Standardized_SMILES>  (557) 
COC(=O)c1c(-c2ccc(CO)cc2)c2cc(Cl)ccc2c(=O)n1Cc1ccc(S(C)(=O)=O)cc1

>  <Name>  (557) 
nan

>  <Pocket>  (557) 
nan

>  <ATP_Site>  (557) 
nan

>  <Peripheral>  (557) 
nan

>  <Num_H_Atoms_ProtBoundConf>  (557) 
nan

>  <Num_Resolved_Atoms>  (557) 
nan

>  <Num_Not_Resolved_Atoms>  (557) 
nan

$$$$
CHEMBL258877
     RDKit          3D

  0  0  0  0  0  0  0  0  0  0999 V3000
M  V30 BEGIN CTAB
M  V30 COUNTS 35 36 0 0 0
M  V30 BEGIN ATOM
M  V30 1 C -1.087695 -4.736716 1.912270 0
M  V30 2 S -0.774346 -4.773736 0.150458 0
M  V30 3 C -0.021294 -3.262017 -0.482995 0
M  V30 4 C 1.376766 -3.026530 0.038510 0
M  V30 5 C 1.970967 -1.756756 -0.512305 0
M  V30 6 C 3.339578 -1.590947 0.041407 0
M  V30 7 O 4.056667 -2.598441 -0.192370 0
M  V30 8 O 3.973472 -0.589906 0.740309 0
M  V30 9 N 1.132504 -0.604841 -0.251034 0
M  V30 10 C 0.558402 0.280649 -1.209307 0
M  V30 11 O 0.722221 0.157937 -2.466542 0
M  V30 12 C -0.231711 1.330936 -0.545730 0
M  V30 13 C -0.959945 2.395512 -1.069150 0
M  V30 14 C -1.600945 3.215795 -0.155424 0
M  V30 15 C -1.508731 2.971380 1.202017 0
M  V30 16 C -2.213282 3.882262 2.098961 0
M  V30 17 O -2.872894 4.843536 1.659815 0
M  V30 18 O -2.151673 3.679058 3.478264 0
M  V30 19 C -0.786003 1.915152 1.718169 0
M  V30 20 C -0.135447 1.079801 0.823266 0
M  V30 21 C 0.699867 -0.107526 1.027730 0
M  V30 22 O 1.000598 -0.621771 2.122409 0
M  V30 23 H -2.023275 -4.174496 2.110845 0
M  V30 24 H -0.253700 -4.369416 2.529680 0
M  V30 25 H -1.258175 -5.788318 2.244230 0
M  V30 26 H -0.710616 -2.417816 -0.330241 0
M  V30 27 H 0.069939 -3.395603 -1.584085 0
M  V30 28 H 1.993492 -3.878468 -0.323152 0
M  V30 29 H 1.456116 -3.001061 1.127371 0
M  V30 30 H 2.079069 -1.812802 -1.631999 0
M  V30 31 H 4.558939 -0.752079 1.556185 0
M  V30 32 H -0.972310 2.503765 -2.141195 0
M  V30 33 H -2.169621 4.047515 -0.569771 0
M  V30 34 H -2.618210 4.317185 4.133566 0
M  V30 35 H -0.744558 1.767308 2.779127 0
M  V30 END ATOM
M  V30 BEGIN BOND
M  V30 1 1 1 2
M  V30 2 1 2 3
M  V30 3 1 3 4
M  V30 4 1 4 5
M  V30 5 1 5 6
M  V30 6 2 6 7
M  V30 7 1 6 8
M  V30 8 1 5 9
M  V30 9 1 9 10
M  V30 10 2 10 11
M  V30 11 1 10 12
M  V30 12 2 12 13
M  V30 13 1 13 14
M  V30 14 2 14 15
M  V30 15 1 15 16
M  V30 16 2 16 17
M  V30 17 1 16 18
M  V30 18 1 15 19
M  V30 19 2 19 20
M  V30 20 1 20 21
M  V30 21 2 21 22
M  V30 22 1 21 9
M  V30 23 1 20 12
M  V30 24 1 1 23
M  V30 25 1 1 24
M  V30 26 1 1 25
M  V30 27 1 3 26
M  V30 28 1 3 27
M  V30 29 1 4 28
M  V30 30 1 4 29
M  V30 31 1 5 30
M  V30 32 1 8 31
M  V30 33 1 13 32
M  V30 34 1 14 33
M  V30 35 1 18 34
M  V30 36 1 19 35
M  V30 END BOND
M  V30 END CTAB
M  END
>  <Dataset>  (558) 
ChEMBL_Kinases

>  <Ligand_Instance>  (558) 
nan

>  <PDB_ID>  (558) 
nan

>  <Standardized_SMILES>  (558) 
CSCCC(C(=O)O)N1C(=O)c2ccc(C(=O)O)cc2C1=O

>  <Name>  (558) 
nan

>  <Pocket>  (558) 
nan

>  <ATP_Site>  (558) 
nan

>  <Peripheral>  (558) 
nan

>  <Num_H_Atoms_ProtBoundConf>  (558) 
nan

>  <Num_Resolved_Atoms>  (558) 
nan

>  <Num_Not_Resolved_Atoms>  (558) 
nan

$$$$
CHEMBL258851
     RDKit          3D

  0  0  0  0  0  0  0  0  0  0999 V3000
M  V30 BEGIN CTAB
M  V30 COUNTS 57 61 0 0 0
M  V30 BEGIN ATOM
M  V30 1 C 5.138664 -3.333300 -0.954919 0
M  V30 2 N 4.323325 -2.415896 -0.206694 0
M  V30 3 C 4.876809 -1.568793 0.787513 0
M  V30 4 O 6.132590 -1.631732 1.014846 0
M  V30 5 C 4.121374 -0.598253 1.605023 0
M  V30 6 C 4.835026 0.149204 2.514546 0
M  V30 7 C 4.232673 1.082727 3.337312 0
M  V30 8 C 2.852987 1.295241 3.264778 0
M  V30 9 C 2.213834 2.290046 4.140359 0
M  V30 10 C 2.197120 0.517298 2.336013 0
M  V30 11 N 0.777227 0.722029 2.243438 0
M  V30 12 C -0.163108 0.128344 1.405749 0
M  V30 13 N -0.498642 0.849347 0.293255 0
M  V30 14 C -1.391907 0.372640 -0.591194 0
M  V30 15 N -1.712431 1.175515 -1.715264 0
M  V30 16 C -1.376566 2.577916 -2.001022 0
M  V30 17 C -2.801720 3.160693 -2.073387 0
M  V30 18 C -3.525310 2.032476 -2.797782 0
M  V30 19 C -2.449328 0.947273 -2.954071 0
M  V30 20 N -1.989097 -0.819744 -0.426005 0
M  V30 21 C -1.716382 -1.585165 0.633587 0
M  V30 22 C -0.798143 -1.085851 1.535254 0
M  V30 23 C -0.651122 -1.997507 2.542039 0
M  V30 24 N -1.485891 -3.019120 2.216176 0
M  V30 25 N -2.121095 -2.784649 1.088304 0
M  V30 26 C -3.066831 -3.652761 0.475449 0
M  V30 27 C -3.286464 -4.910036 1.001034 0
M  V30 28 C -4.217559 -5.751651 0.396216 0
M  V30 29 C -4.952886 -5.394661 -0.726624 0
M  V30 30 C -4.707578 -4.118308 -1.233316 0
M  V30 31 C -3.786881 -3.281762 -0.637713 0
M  V30 32 C 2.772467 -0.415306 1.507956 0
M  V30 33 H 5.799740 -2.870931 -1.698139 0
M  V30 34 H 5.751101 -3.988422 -0.267376 0
M  V30 35 H 4.451996 -4.047395 -1.481898 0
M  V30 36 H 3.291007 -2.326672 -0.355560 0
M  V30 37 H 5.906888 0.074868 2.662053 0
M  V30 38 H 4.776855 1.679282 4.056969 0
M  V30 39 H 1.617726 1.751352 4.898829 0
M  V30 40 H 1.581239 2.937521 3.485620 0
M  V30 41 H 3.007708 2.945888 4.585068 0
M  V30 42 H 0.245430 1.391892 2.838681 0
M  V30 43 H -0.819267 3.015161 -1.149962 0
M  V30 44 H -0.862939 2.676742 -2.976404 0
M  V30 45 H -2.832736 4.104926 -2.632321 0
M  V30 46 H -3.151326 3.256251 -1.025220 0
M  V30 47 H -4.299274 1.640975 -2.111251 0
M  V30 48 H -3.932192 2.362534 -3.755473 0
M  V30 49 H -2.866974 -0.057927 -3.039339 0
M  V30 50 H -1.745315 1.201722 -3.793754 0
M  V30 51 H -0.007753 -1.926038 3.416049 0
M  V30 52 H -2.776299 -5.296088 1.868106 0
M  V30 53 H -4.442180 -6.758216 0.757827 0
M  V30 54 H -5.668552 -6.045205 -1.189092 0
M  V30 55 H -5.283381 -3.830919 -2.116229 0
M  V30 56 H -3.676417 -2.336155 -1.100547 0
M  V30 57 H 2.221775 -1.005150 0.793594 0
M  V30 END ATOM
M  V30 BEGIN BOND
M  V30 1 1 1 2
M  V30 2 1 2 3
M  V30 3 2 3 4
M  V30 4 1 3 5
M  V30 5 2 5 6
M  V30 6 1 6 7
M  V30 7 2 7 8
M  V30 8 1 8 9
M  V30 9 1 8 10
M  V30 10 1 10 11
M  V30 11 1 11 12
M  V30 12 2 12 13
M  V30 13 1 13 14
M  V30 14 1 14 15
M  V30 15 1 15 16
M  V30 16 1 16 17
M  V30 17 1 17 18
M  V30 18 1 18 19
M  V30 19 2 14 20
M  V30 20 1 20 21
M  V30 21 2 21 22
M  V30 22 1 22 23
M  V30 23 2 23 24
M  V30 24 1 24 25
M  V30 25 1 25 26
M  V30 26 2 26 27
M  V30 27 1 27 28
M  V30 28 2 28 29
M  V30 29 1 29 30
M  V30 30 2 30 31
M  V30 31 2 10 32
M  V30 32 1 32 5
M  V30 33 1 22 12
M  V30 34 1 31 26
M  V30 35 1 19 15
M  V30 36 1 25 21
M  V30 37 1 1 33
M  V30 38 1 1 34
M  V30 39 1 1 35
M  V30 40 1 2 36
M  V30 41 1 6 37
M  V30 42 1 7 38
M  V30 43 1 9 39
M  V30 44 1 9 40
M  V30 45 1 9 41
M  V30 46 1 11 42
M  V30 47 1 16 43
M  V30 48 1 16 44
M  V30 49 1 17 45
M  V30 50 1 17 46
M  V30 51 1 18 47
M  V30 52 1 18 48
M  V30 53 1 19 49
M  V30 54 1 19 50
M  V30 55 1 23 51
M  V30 56 1 27 52
M  V30 57 1 28 53
M  V30 58 1 29 54
M  V30 59 1 30 55
M  V30 60 1 31 56
M  V30 61 1 32 57
M  V30 END BOND
M  V30 END CTAB
M  END
>  <Dataset>  (559) 
ChEMBL_Kinases

>  <Ligand_Instance>  (559) 
nan

>  <PDB_ID>  (559) 
nan

>  <Standardized_SMILES>  (559) 
CNC(=O)c1ccc(C)c(Nc2nc(N3CCCC3)nc3c2cnn3-c2ccccc2)c1

>  <Name>  (559) 
nan

>  <Pocket>  (559) 
nan

>  <ATP_Site>  (559) 
nan

>  <Peripheral>  (559) 
nan

>  <Num_H_Atoms_ProtBoundConf>  (559) 
nan

>  <Num_Resolved_Atoms>  (559) 
nan

>  <Num_Not_Resolved_Atoms>  (559) 
nan

$$$$
CHEMBL258838
     RDKit          3D

  0  0  0  0  0  0  0  0  0  0999 V3000
M  V30 BEGIN CTAB
M  V30 COUNTS 45 49 0 0 0
M  V30 BEGIN ATOM
M  V30 1 C 1.067103 -5.302152 1.495554 0
M  V30 2 N 0.261789 -4.149194 1.769073 0
M  V30 3 C -0.763153 -3.914375 0.790240 0
M  V30 4 C -0.402899 -2.825084 -0.197714 0
M  V30 5 C -0.221585 -1.517095 0.533083 0
M  V30 6 C 0.015848 -1.798254 1.997232 0
M  V30 7 C 0.983532 -2.959270 2.101384 0
M  V30 8 C 0.889839 -0.705153 -0.082180 0
M  V30 9 N 0.397941 0.626708 -0.049097 0
M  V30 10 C 1.102236 1.873683 -0.034071 0
M  V30 11 N 0.854758 2.725858 -1.072944 0
M  V30 12 C 1.447408 3.928938 -1.183375 0
M  V30 13 N 2.339480 4.365319 -0.248613 0
M  V30 14 C 2.606387 3.535360 0.800437 0
M  V30 15 N 3.411214 3.637041 1.877665 0
M  V30 16 C 3.325573 2.529323 2.641618 0
M  V30 17 C 2.418197 1.652164 2.037894 0
M  V30 18 C 2.004275 2.309829 0.915227 0
M  V30 19 C -1.028042 0.617408 -0.029813 0
M  V30 20 C -1.998328 1.583846 -0.277556 0
M  V30 21 C -3.347999 1.310400 -0.188374 0
M  V30 22 C -3.747522 0.029542 0.159770 0
M  V30 23 C -2.781064 -0.915544 0.401832 0
M  V30 24 C -1.410447 -0.659144 0.316980 0
M  V30 25 H 0.548078 -6.203411 1.914305 0
M  V30 26 H 1.297844 -5.468476 0.425836 0
M  V30 27 H 2.000196 -5.188367 2.106153 0
M  V30 28 H -0.901157 -4.859632 0.218345 0
M  V30 29 H -1.700579 -3.656155 1.343151 0
M  V30 30 H 0.505137 -3.131341 -0.734793 0
M  V30 31 H -1.278747 -2.743293 -0.880654 0
M  V30 32 H 0.349279 -0.911683 2.558609 0
M  V30 33 H -0.936411 -2.129831 2.459944 0
M  V30 34 H 1.879473 -2.803415 1.457169 0
M  V30 35 H 1.279461 -3.015070 3.177158 0
M  V30 36 H 0.984940 -1.037666 -1.155574 0
M  V30 37 H 1.881427 -0.876929 0.360413 0
M  V30 38 H 1.238019 4.595065 -2.018406 0
M  V30 39 H 4.024118 4.472094 2.091178 0
M  V30 40 H 3.848520 2.307365 3.572259 0
M  V30 41 H 2.129824 0.689091 2.394120 0
M  V30 42 H -1.699801 2.588076 -0.550341 0
M  V30 43 H -4.066386 2.085352 -0.387734 0
M  V30 44 H -4.804249 -0.177730 0.227761 0
M  V30 45 H -3.174694 -1.887201 0.666993 0
M  V30 END ATOM
M  V30 BEGIN BOND
M  V30 1 1 1 2
M  V30 2 1 2 3
M  V30 3 1 3 4
M  V30 4 1 4 5
M  V30 5 1 5 6
M  V30 6 1 6 7
M  V30 7 1 5 8
M  V30 8 1 8 9
M  V30 9 1 9 10
M  V30 10 2 10 11
M  V30 11 1 11 12
M  V30 12 2 12 13
M  V30 13 1 13 14
M  V30 14 1 14 15
M  V30 15 1 15 16
M  V30 16 2 16 17
M  V30 17 1 17 18
M  V30 18 1 9 19
M  V30 19 2 19 20
M  V30 20 1 20 21
M  V30 21 2 21 22
M  V30 22 1 22 23
M  V30 23 2 23 24
M  V30 24 1 7 2
M  V30 25 1 18 10
M  V30 26 1 24 19
M  V30 27 1 24 5
M  V30 28 2 18 14
M  V30 29 1 1 25
M  V30 30 1 1 26
M  V30 31 1 1 27
M  V30 32 1 3 28
M  V30 33 1 3 29
M  V30 34 1 4 30
M  V30 35 1 4 31
M  V30 36 1 6 32
M  V30 37 1 6 33
M  V30 38 1 7 34
M  V30 39 1 7 35
M  V30 40 1 8 36
M  V30 41 1 8 37
M  V30 42 1 12 38
M  V30 43 1 15 39
M  V30 44 1 16 40
M  V30 45 1 17 41
M  V30 46 1 20 42
M  V30 47 1 21 43
M  V30 48 1 22 44
M  V30 49 1 23 45
M  V30 END BOND
M  V30 END CTAB
M  END
>  <Dataset>  (560) 
ChEMBL_Kinases

>  <Ligand_Instance>  (560) 
nan

>  <PDB_ID>  (560) 
nan

>  <Standardized_SMILES>  (560) 
CN1CCC2(CC1)CN(c1ncnc3[nH]ccc13)c1ccccc12

>  <Name>  (560) 
nan

>  <Pocket>  (560) 
nan

>  <ATP_Site>  (560) 
nan

>  <Peripheral>  (560) 
nan

>  <Num_H_Atoms_ProtBoundConf>  (560) 
nan

>  <Num_Resolved_Atoms>  (560) 
nan

>  <Num_Not_Resolved_Atoms>  (560) 
nan

$$$$
CHEMBL258837
     RDKit          3D

  0  0  0  0  0  0  0  0  0  0999 V3000
M  V30 BEGIN CTAB
M  V30 COUNTS 43 47 0 0 0
M  V30 BEGIN ATOM
M  V30 1 N -1.812885 -3.415515 2.635777 0
M  V30 2 C -1.222795 -3.773043 1.708655 0
M  V30 3 C -0.495960 -4.239219 0.568840 0
M  V30 4 C -0.544825 -5.570283 0.164899 0
M  V30 5 N 0.234053 -5.720566 -0.918239 0
M  V30 6 C 0.779428 -4.534461 -1.222153 0
M  V30 7 N 1.621535 -4.135070 -2.187843 0
M  V30 8 C 2.004782 -2.850499 -2.235890 0
M  V30 9 N 1.566779 -1.950496 -1.340943 0
M  V30 10 C 0.709187 -2.280939 -0.331019 0
M  V30 11 N 0.291936 -1.247664 0.550465 0
M  V30 12 C -0.931431 -0.504393 0.907743 0
M  V30 13 C -0.403580 0.929403 1.116684 0
M  V30 14 C -0.254956 1.541818 -0.226135 0
M  V30 15 C -0.188189 3.042295 -0.216386 0
M  V30 16 N -0.156450 3.620834 1.085417 0
M  V30 17 C -1.038065 3.096194 2.042629 0
M  V30 18 C -1.414603 1.668824 1.915024 0
M  V30 19 C 0.886003 0.678508 1.805599 0
M  V30 20 C 1.740375 1.356760 2.649379 0
M  V30 21 C 2.916991 0.842915 3.150302 0
M  V30 22 C 3.291468 -0.437141 2.799890 0
M  V30 23 C 2.443045 -1.119703 1.957731 0
M  V30 24 C 1.246388 -0.617010 1.439144 0
M  V30 25 C 0.339894 -3.599467 -0.312285 0
M  V30 26 H -1.099000 -6.382637 0.611932 0
M  V30 27 H 0.399052 -6.602035 -1.446726 0
M  V30 28 H 2.686164 -2.595449 -3.040994 0
M  V30 29 H -1.322011 -0.848777 1.881155 0
M  V30 30 H -1.652851 -0.548603 0.084187 0
M  V30 31 H 0.635003 1.069829 -0.710830 0
M  V30 32 H -1.138251 1.252543 -0.845429 0
M  V30 33 H -1.005758 3.503370 -0.808368 0
M  V30 34 H 0.759549 3.322882 -0.726955 0
M  V30 35 H 0.707818 4.067579 1.387595 0
M  V30 36 H -0.690590 3.298915 3.100434 0
M  V30 37 H -1.997560 3.698649 1.996717 0
M  V30 38 H -1.555209 1.220289 2.924892 0
M  V30 39 H -2.381659 1.597437 1.333581 0
M  V30 40 H 1.491018 2.354827 2.948476 0
M  V30 41 H 3.541851 1.430424 3.809205 0
M  V30 42 H 4.201187 -0.865373 3.173117 0
M  V30 43 H 2.788091 -2.135333 1.709519 0
M  V30 END ATOM
M  V30 BEGIN BOND
M  V30 1 3 1 2
M  V30 2 1 2 3
M  V30 3 2 3 4
M  V30 4 1 4 5
M  V30 5 1 5 6
M  V30 6 2 6 7
M  V30 7 1 7 8
M  V30 8 2 8 9
M  V30 9 1 9 10
M  V30 10 1 10 11
M  V30 11 1 11 12
M  V30 12 1 12 13
M  V30 13 1 13 14
M  V30 14 1 14 15
M  V30 15 1 15 16
M  V30 16 1 16 17
M  V30 17 1 17 18
M  V30 18 1 13 19
M  V30 19 2 19 20
M  V30 20 1 20 21
M  V30 21 2 21 22
M  V30 22 1 22 23
M  V30 23 2 23 24
M  V30 24 2 10 25
M  V30 25 1 25 3
M  V30 26 1 25 6
M  V30 27 1 24 11
M  V30 28 1 18 13
M  V30 29 1 24 19
M  V30 30 1 4 26
M  V30 31 1 5 27
M  V30 32 1 8 28
M  V30 33 1 12 29
M  V30 34 1 12 30
M  V30 35 1 14 31
M  V30 36 1 14 32
M  V30 37 1 15 33
M  V30 38 1 15 34
M  V30 39 1 16 35
M  V30 40 1 17 36
M  V30 41 1 17 37
M  V30 42 1 18 38
M  V30 43 1 18 39
M  V30 44 1 20 40
M  V30 45 1 21 41
M  V30 46 1 22 42
M  V30 47 1 23 43
M  V30 END BOND
M  V30 END CTAB
M  END
>  <Dataset>  (561) 
ChEMBL_Kinases

>  <Ligand_Instance>  (561) 
nan

>  <PDB_ID>  (561) 
nan

>  <Standardized_SMILES>  (561) 
N#Cc1c[nH]c2ncnc(N3CC4(CCNCC4)c4ccccc43)c12

>  <Name>  (561) 
nan

>  <Pocket>  (561) 
nan

>  <ATP_Site>  (561) 
nan

>  <Peripheral>  (561) 
nan

>  <Num_H_Atoms_ProtBoundConf>  (561) 
nan

>  <Num_Resolved_Atoms>  (561) 
nan

>  <Num_Not_Resolved_Atoms>  (561) 
nan

$$$$
CHEMBL258765
     RDKit          3D

  0  0  0  0  0  0  0  0  0  0999 V3000
M  V30 BEGIN CTAB
M  V30 COUNTS 32 36 0 0 0
M  V30 BEGIN ATOM
M  V30 1 O 1.185103 -0.108346 3.528504 0
M  V30 2 C 1.354304 -0.797261 2.497182 0
M  V30 3 C 2.381520 -1.843816 2.298860 0
M  V30 4 C 3.361908 -2.293601 3.171141 0
M  V30 5 C 4.195516 -3.296765 2.712729 0
M  V30 6 C 4.107646 -3.870508 1.447337 0
M  V30 7 C 3.105863 -3.373158 0.629008 0
M  V30 8 C 2.241868 -2.370860 1.031753 0
M  V30 9 N 1.144392 -1.696639 0.385381 0 CHG=1 VAL=4
M  V30 10 C 0.616911 -1.857302 -0.862421 0
M  V30 11 C -0.456342 -1.073922 -1.254695 0
M  V30 12 C -0.982346 -0.132916 -0.369924 0
M  V30 13 C -0.444851 0.027621 0.895419 0
M  V30 14 N -1.122822 0.998947 1.568823 0
M  V30 15 C -2.077230 1.442761 0.731201 0
M  V30 16 C -3.030714 2.419120 0.924828 0
M  V30 17 C -3.888622 2.664113 -0.125739 0
M  V30 18 C -3.890764 2.023345 -1.368394 0
M  V30 19 C -2.904913 1.040858 -1.516364 0
M  V30 20 C -2.035385 0.779316 -0.477149 0
M  V30 21 C 0.625682 -0.783638 1.228965 0
M  V30 22 H 3.512622 -1.912286 4.176178 0
M  V30 23 H 4.962544 -3.663611 3.366276 0
M  V30 24 H 4.790930 -4.654579 1.145405 0
M  V30 25 H 2.993310 -3.786038 -0.369247 0
M  V30 26 H 1.016292 -2.581729 -1.553452 0
M  V30 27 H -0.877793 -1.202182 -2.251450 0
M  V30 28 H -0.915580 1.312406 2.543064 0
M  V30 29 H -3.135844 2.985326 1.832722 0
M  V30 30 H -4.648676 3.436867 0.017904 0
M  V30 31 H -4.611510 2.299028 -2.115948 0
M  V30 32 H -2.875132 0.525152 -2.460522 0
M  V30 END ATOM
M  V30 BEGIN BOND
M  V30 1 2 1 2
M  V30 2 1 2 3
M  V30 3 2 3 4
M  V30 4 1 4 5
M  V30 5 2 5 6
M  V30 6 1 6 7
M  V30 7 2 7 8
M  V30 8 1 8 9
M  V30 9 2 9 10
M  V30 10 1 10 11
M  V30 11 2 11 12
M  V30 12 1 12 13
M  V30 13 1 13 14
M  V30 14 1 14 15
M  V30 15 2 15 16
M  V30 16 1 16 17
M  V30 17 2 17 18
M  V30 18 1 18 19
M  V30 19 2 19 20
M  V30 20 2 13 21
M  V30 21 1 21 2
M  V30 22 1 8 3
M  V30 23 1 21 9
M  V30 24 1 20 12
M  V30 25 1 20 15
M  V30 26 1 4 22
M  V30 27 1 5 23
M  V30 28 1 6 24
M  V30 29 1 7 25
M  V30 30 1 10 26
M  V30 31 1 11 27
M  V30 32 1 14 28
M  V30 33 1 16 29
M  V30 34 1 17 30
M  V30 35 1 18 31
M  V30 36 1 19 32
M  V30 END BOND
M  V30 END CTAB
M  END
>  <Dataset>  (562) 
ChEMBL_Kinases

>  <Ligand_Instance>  (562) 
nan

>  <PDB_ID>  (562) 
nan

>  <Standardized_SMILES>  (562) 
O=C1c2ccccc2-[n+]2ccc3c([nH]c4ccccc43)c21

>  <Name>  (562) 
FASCAPLYSIN CHLORIDE

>  <Pocket>  (562) 
nan

>  <ATP_Site>  (562) 
nan

>  <Peripheral>  (562) 
nan

>  <Num_H_Atoms_ProtBoundConf>  (562) 
nan

>  <Num_Resolved_Atoms>  (562) 
nan

>  <Num_Not_Resolved_Atoms>  (562) 
nan

$$$$
CHEMBL258705
     RDKit          3D

  0  0  0  0  0  0  0  0  0  0999 V3000
M  V30 BEGIN CTAB
M  V30 COUNTS 56 59 0 0 0
M  V30 BEGIN ATOM
M  V30 1 C 2.189797 1.527913 6.111051 0
M  V30 2 C 3.500065 1.933737 5.491368 0
M  V30 3 N 3.671137 1.281480 4.217874 0
M  V30 4 C 2.722457 1.511979 3.196082 0
M  V30 5 O 1.741566 2.289322 3.426407 0
M  V30 6 N 2.911523 0.848908 1.926490 0
M  V30 7 C 3.892769 0.009868 1.549435 0
M  V30 8 C 3.578321 -0.317662 0.247301 0
M  V30 9 C 2.405484 0.327045 -0.156632 0
M  V30 10 C 1.745653 0.223487 -1.497401 0
M  V30 11 N 0.813206 -0.874401 -1.474509 0
M  V30 12 C -0.479599 -0.813190 -1.132242 0
M  V30 13 C -1.009144 0.456136 -0.744537 0
M  V30 14 O -0.598826 1.631361 -0.615309 0
M  V30 15 C -2.185907 1.185928 -0.298754 0
M  V30 16 C -1.906490 2.656039 -0.058165 0
M  V30 17 C -1.339774 -1.883747 -1.121530 0
M  V30 18 C -2.748148 -1.844860 -0.758612 0
M  V30 19 C -3.580556 -1.609932 -1.860463 0
M  V30 20 C -4.953103 -1.542812 -1.691035 0
M  V30 21 C -5.527820 -1.703779 -0.447511 0
M  V30 22 C -4.690256 -1.934690 0.627148 0
M  V30 23 C -3.319336 -2.007558 0.494115 0
M  V30 24 C -0.858367 -3.122331 -1.486190 0
M  V30 25 C -1.662147 -4.242055 -1.499255 0
M  V30 26 C -1.124490 -5.468687 -1.875855 0
M  V30 27 Cl -2.137428 -6.883771 -1.893055 0
M  V30 28 C 0.208137 -5.581871 -2.238382 0
M  V30 29 C 1.042857 -4.467716 -2.234311 0
M  V30 30 C 0.461263 -3.277241 -1.853528 0
M  V30 31 C 1.220055 -2.126500 -1.822843 0
M  V30 32 O 2.449174 -2.236722 -2.158387 0
M  V30 33 N 2.068367 1.014558 0.925503 0
M  V30 34 H 2.300978 1.288246 7.194830 0
M  V30 35 H 1.416924 2.320297 6.028121 0
M  V30 36 H 1.769776 0.649655 5.575978 0
M  V30 37 H 3.520640 3.034668 5.415674 0
M  V30 38 H 4.307994 1.551847 6.171672 0
M  V30 39 H 4.479375 0.634610 4.013055 0
M  V30 40 H 4.713815 -0.297333 2.175803 0
M  V30 41 H 4.193604 -0.993600 -0.346813 0
M  V30 42 H 2.574660 -0.078123 -2.206364 0
M  V30 43 H 1.318259 1.181200 -1.841943 0
M  V30 44 H -2.538371 0.776938 0.675907 0
M  V30 45 H -3.070393 1.091016 -0.991941 0
M  V30 46 H -1.669696 3.180120 -0.985011 0
M  V30 47 H -2.890402 3.095498 0.281097 0
M  V30 48 H -1.221974 2.791235 0.779398 0
M  V30 49 H -3.224508 -1.468307 -2.890798 0
M  V30 50 H -5.598178 -1.360276 -2.547644 0
M  V30 51 H -6.585054 -1.653219 -0.309694 0
M  V30 52 H -5.083896 -2.070325 1.636369 0
M  V30 53 H -2.611302 -2.181608 1.271434 0
M  V30 54 H -2.704200 -4.186689 -1.222219 0
M  V30 55 H 0.633330 -6.539950 -2.533907 0
M  V30 56 H 2.091682 -4.530000 -2.514427 0
M  V30 END ATOM
M  V30 BEGIN BOND
M  V30 1 1 1 2
M  V30 2 1 2 3
M  V30 3 1 3 4
M  V30 4 2 4 5
M  V30 5 1 4 6
M  V30 6 1 6 7
M  V30 7 2 7 8
M  V30 8 1 8 9
M  V30 9 1 9 10
M  V30 10 1 10 11
M  V30 11 1 11 12
M  V30 12 1 12 13
M  V30 13 2 13 14
M  V30 14 1 13 15
M  V30 15 1 15 16
M  V30 16 2 12 17
M  V30 17 1 17 18
M  V30 18 2 18 19
M  V30 19 1 19 20
M  V30 20 2 20 21
M  V30 21 1 21 22
M  V30 22 2 22 23
M  V30 23 1 17 24
M  V30 24 2 24 25
M  V30 25 1 25 26
M  V30 26 1 26 27
M  V30 27 2 26 28
M  V30 28 1 28 29
M  V30 29 2 29 30
M  V30 30 1 30 31
M  V30 31 2 31 32
M  V30 32 2 9 33
M  V30 33 1 33 6
M  V30 34 1 31 11
M  V30 35 1 23 18
M  V30 36 1 30 24
M  V30 37 1 1 34
M  V30 38 1 1 35
M  V30 39 1 1 36
M  V30 40 1 2 37
M  V30 41 1 2 38
M  V30 42 1 3 39
M  V30 43 1 7 40
M  V30 44 1 8 41
M  V30 45 1 10 42
M  V30 46 1 10 43
M  V30 47 1 15 44
M  V30 48 1 15 45
M  V30 49 1 16 46
M  V30 50 1 16 47
M  V30 51 1 16 48
M  V30 52 1 19 49
M  V30 53 1 20 50
M  V30 54 1 21 51
M  V30 55 1 22 52
M  V30 56 1 23 53
M  V30 57 1 25 54
M  V30 58 1 28 55
M  V30 59 1 29 56
M  V30 END BOND
M  V30 END CTAB
M  END
>  <Dataset>  (563) 
ChEMBL_Kinases

>  <Ligand_Instance>  (563) 
nan

>  <PDB_ID>  (563) 
nan

>  <Standardized_SMILES>  (563) 
CCNC(=O)n1ccc(Cn2c(C(=O)CC)c(-c3ccccc3)c3cc(Cl)ccc3c2=O)n1

>  <Name>  (563) 
nan

>  <Pocket>  (563) 
nan

>  <ATP_Site>  (563) 
nan

>  <Peripheral>  (563) 
nan

>  <Num_H_Atoms_ProtBoundConf>  (563) 
nan

>  <Num_Resolved_Atoms>  (563) 
nan

>  <Num_Not_Resolved_Atoms>  (563) 
nan

$$$$
CHEMBL258703
     RDKit          3D

  0  0  0  0  0  0  0  0  0  0999 V3000
M  V30 BEGIN CTAB
M  V30 COUNTS 51 54 0 0 0
M  V30 BEGIN ATOM
M  V30 1 C -0.883011 -1.923593 4.690230 0
M  V30 2 O -1.244125 -1.321219 3.480015 0
M  V30 3 C -0.326627 -0.758158 2.634483 0
M  V30 4 O 0.448679 -1.138427 3.522708 0
M  V30 5 C 0.088518 -0.068227 1.439223 0
M  V30 6 C 1.450304 0.137177 1.392497 0
M  V30 7 C 2.383793 -0.313824 2.405068 0
M  V30 8 C 2.794134 0.370533 3.517495 0
M  V30 9 C 3.700945 -0.182997 4.414649 0
M  V30 10 C 4.227862 -1.457076 4.216192 0
M  V30 11 C 3.816152 -2.151712 3.094046 0
M  V30 12 C 2.915711 -1.575799 2.223062 0
M  V30 13 C 1.950102 0.820250 0.303119 0
M  V30 14 C 3.289409 1.083833 0.149037 0
M  V30 15 C 3.768730 1.768725 -0.947405 0
M  V30 16 Br 5.641294 2.140215 -1.168226 0
M  V30 17 C 2.892836 2.206091 -1.921886 0
M  V30 18 C 1.569841 1.914907 -1.715408 0
M  V30 19 C 1.035253 1.233930 -0.638642 0
M  V30 20 C -0.308796 0.988084 -0.517407 0
M  V30 21 O -1.002135 1.434845 -1.464437 0
M  V30 22 N -0.818458 0.324759 0.533068 0
M  V30 23 C -2.241323 0.090678 0.626294 0
M  V30 24 C -2.670036 -1.143368 -0.070596 0
M  V30 25 C -2.713632 -2.428082 0.404280 0
M  V30 26 C -3.124399 -3.542856 -0.279062 0
M  V30 27 C -3.543045 -3.389268 -1.580586 0
M  V30 28 C -3.531477 -2.125710 -2.139143 0
M  V30 29 O -3.968379 -2.070108 -3.448019 0
M  V30 30 C -4.026987 -0.860685 -4.187947 0
M  V30 31 C -3.107250 -1.061123 -1.392598 0
M  V30 32 H -0.270243 -2.855126 4.574423 0
M  V30 33 H -1.858430 -2.292967 5.124710 0
M  V30 34 H -0.468075 -1.259942 5.453753 0
M  V30 35 H 2.372006 1.359253 3.652344 0
M  V30 36 H 3.971407 0.425236 5.266759 0
M  V30 37 H 4.923956 -1.803167 4.964544 0
M  V30 38 H 4.237341 -3.137205 2.960443 0
M  V30 39 H 2.659840 -2.199008 1.381038 0
M  V30 40 H 4.007762 0.750732 0.902960 0
M  V30 41 H 3.226904 2.747580 -2.799069 0
M  V30 42 H 0.891707 2.270690 -2.499772 0
M  V30 43 H -2.739995 0.951448 0.098727 0
M  V30 44 H -2.565826 0.074729 1.690852 0
M  V30 45 H -2.395219 -2.589646 1.420103 0
M  V30 46 H -3.122807 -4.505411 0.177164 0
M  V30 47 H -3.865084 -4.272272 -2.112725 0
M  V30 48 H -4.885098 -0.263447 -3.871052 0
M  V30 49 H -4.100224 -1.080339 -5.281793 0
M  V30 50 H -3.076882 -0.306745 -3.990805 0
M  V30 51 H -3.159221 -0.142896 -1.962046 0
M  V30 END ATOM
M  V30 BEGIN BOND
M  V30 1 1 1 2
M  V30 2 1 2 3
M  V30 3 2 3 4
M  V30 4 1 3 5
M  V30 5 2 5 6
M  V30 6 1 6 7
M  V30 7 2 7 8
M  V30 8 1 8 9
M  V30 9 2 9 10
M  V30 10 1 10 11
M  V30 11 2 11 12
M  V30 12 1 6 13
M  V30 13 2 13 14
M  V30 14 1 14 15
M  V30 15 1 15 16
M  V30 16 2 15 17
M  V30 17 1 17 18
M  V30 18 2 18 19
M  V30 19 1 19 20
M  V30 20 2 20 21
M  V30 21 1 20 22
M  V30 22 1 22 23
M  V30 23 1 23 24
M  V30 24 2 24 25
M  V30 25 1 25 26
M  V30 26 2 26 27
M  V30 27 1 27 28
M  V30 28 1 28 29
M  V30 29 1 29 30
M  V30 30 2 28 31
M  V30 31 1 22 5
M  V30 32 1 31 24
M  V30 33 1 12 7
M  V30 34 1 19 13
M  V30 35 1 1 32
M  V30 36 1 1 33
M  V30 37 1 1 34
M  V30 38 1 8 35
M  V30 39 1 9 36
M  V30 40 1 10 37
M  V30 41 1 11 38
M  V30 42 1 12 39
M  V30 43 1 14 40
M  V30 44 1 17 41
M  V30 45 1 18 42
M  V30 46 1 23 43
M  V30 47 1 23 44
M  V30 48 1 25 45
M  V30 49 1 26 46
M  V30 50 1 27 47
M  V30 51 1 30 48
M  V30 52 1 30 49
M  V30 53 1 30 50
M  V30 54 1 31 51
M  V30 END BOND
M  V30 END CTAB
M  END
>  <Dataset>  (564) 
ChEMBL_Kinases

>  <Ligand_Instance>  (564) 
nan

>  <PDB_ID>  (564) 
nan

>  <Standardized_SMILES>  (564) 
COC(=O)c1c(-c2ccccc2)c2cc(Br)ccc2c(=O)n1Cc1cccc(OC)c1

>  <Name>  (564) 
nan

>  <Pocket>  (564) 
nan

>  <ATP_Site>  (564) 
nan

>  <Peripheral>  (564) 
nan

>  <Num_H_Atoms_ProtBoundConf>  (564) 
nan

>  <Num_Resolved_Atoms>  (564) 
nan

>  <Num_Not_Resolved_Atoms>  (564) 
nan

$$$$
CHEMBL258676
     RDKit          3D

  0  0  0  0  0  0  0  0  0  0999 V3000
M  V30 BEGIN CTAB
M  V30 COUNTS 47 50 0 0 0
M  V30 BEGIN ATOM
M  V30 1 C 1.946328 -2.208644 -2.188078 0
M  V30 2 O 1.610342 -1.358797 -1.128688 0
M  V30 3 C 0.912753 -1.749185 -0.000486 0
M  V30 4 O 0.914923 -2.848833 -0.551285 0
M  V30 5 C 0.568066 -0.856220 1.096781 0
M  V30 6 C 1.006231 0.439266 0.934944 0
M  V30 7 C 1.726010 0.885845 -0.251417 0
M  V30 8 C 1.003066 1.380880 -1.325860 0
M  V30 9 C 1.704801 1.793607 -2.428080 0
M  V30 10 C 3.092633 1.720207 -2.471416 0
M  V30 11 C 3.827218 1.233629 -1.419126 0
M  V30 12 C 3.107645 0.822806 -0.318655 0
M  V30 13 C 0.743442 1.333691 1.946881 0
M  V30 14 C 1.153793 2.628494 1.840344 0
M  V30 15 C 0.906054 3.549324 2.837597 0
M  V30 16 Br 1.464866 5.355192 2.715881 0
M  V30 17 C 0.224528 3.107184 3.950638 0
M  V30 18 C -0.178072 1.791258 4.030158 0
M  V30 19 C 0.059890 0.851059 3.041705 0
M  V30 20 C -0.341424 -0.465538 3.117651 0
M  V30 21 O -0.947304 -0.709805 4.190517 0
M  V30 22 N -0.100671 -1.367192 2.143685 0
M  V30 23 C -0.548625 -2.709389 2.308042 0
M  V30 24 C -1.916511 -2.997656 1.870501 0
M  V30 25 C -2.364669 -3.362662 0.641872 0
M  V30 26 C -3.667830 -3.624448 0.293076 0
M  V30 27 C -4.653147 -3.521031 1.244757 0
M  V30 28 C -4.278319 -3.153674 2.523405 0
M  V30 29 C -2.957203 -2.905362 2.808302 0
M  V30 30 H 1.008279 -2.561987 -2.660823 0
M  V30 31 H 2.454002 -1.608885 -2.979758 0
M  V30 32 H 2.538374 -3.101205 -1.905176 0
M  V30 33 H -0.074602 1.458701 -1.342216 0
M  V30 34 H 1.168771 2.183582 -3.279802 0
M  V30 35 H 3.568478 2.059058 -3.360486 0
M  V30 36 H 4.905070 1.183442 -1.469161 0
M  V30 37 H 3.604940 0.427961 0.550892 0
M  V30 38 H 1.691571 2.930423 0.936343 0
M  V30 39 H -0.000460 3.780528 4.767047 0
M  V30 40 H -0.718956 1.472711 4.931233 0
M  V30 41 H -0.500093 -2.935976 3.411855 0
M  V30 42 H 0.134809 -3.464263 1.860517 0
M  V30 43 H -1.662110 -3.465388 -0.144963 0
M  V30 44 H -3.948482 -3.910611 -0.708792 0
M  V30 45 H -5.675965 -3.722573 0.986521 0
M  V30 46 H -5.091498 -3.088676 3.226875 0
M  V30 47 H -2.830855 -2.635119 3.847845 0
M  V30 END ATOM
M  V30 BEGIN BOND
M  V30 1 1 1 2
M  V30 2 1 2 3
M  V30 3 2 3 4
M  V30 4 1 3 5
M  V30 5 2 5 6
M  V30 6 1 6 7
M  V30 7 2 7 8
M  V30 8 1 8 9
M  V30 9 2 9 10
M  V30 10 1 10 11
M  V30 11 2 11 12
M  V30 12 1 6 13
M  V30 13 2 13 14
M  V30 14 1 14 15
M  V30 15 1 15 16
M  V30 16 2 15 17
M  V30 17 1 17 18
M  V30 18 2 18 19
M  V30 19 1 19 20
M  V30 20 2 20 21
M  V30 21 1 20 22
M  V30 22 1 22 23
M  V30 23 1 23 24
M  V30 24 2 24 25
M  V30 25 1 25 26
M  V30 26 2 26 27
M  V30 27 1 27 28
M  V30 28 2 28 29
M  V30 29 1 22 5
M  V30 30 1 29 24
M  V30 31 1 12 7
M  V30 32 1 19 13
M  V30 33 1 1 30
M  V30 34 1 1 31
M  V30 35 1 1 32
M  V30 36 1 8 33
M  V30 37 1 9 34
M  V30 38 1 10 35
M  V30 39 1 11 36
M  V30 40 1 12 37
M  V30 41 1 14 38
M  V30 42 1 17 39
M  V30 43 1 18 40
M  V30 44 1 23 41
M  V30 45 1 23 42
M  V30 46 1 25 43
M  V30 47 1 26 44
M  V30 48 1 27 45
M  V30 49 1 28 46
M  V30 50 1 29 47
M  V30 END BOND
M  V30 END CTAB
M  END
>  <Dataset>  (565) 
ChEMBL_Kinases

>  <Ligand_Instance>  (565) 
nan

>  <PDB_ID>  (565) 
nan

>  <Standardized_SMILES>  (565) 
COC(=O)c1c(-c2ccccc2)c2cc(Br)ccc2c(=O)n1Cc1ccccc1

>  <Name>  (565) 
nan

>  <Pocket>  (565) 
nan

>  <ATP_Site>  (565) 
nan

>  <Peripheral>  (565) 
nan

>  <Num_H_Atoms_ProtBoundConf>  (565) 
nan

>  <Num_Resolved_Atoms>  (565) 
nan

>  <Num_Not_Resolved_Atoms>  (565) 
nan

$$$$
CHEMBL258653
     RDKit          3D

  0  0  0  0  0  0  0  0  0  0999 V3000
M  V30 BEGIN CTAB
M  V30 COUNTS 44 47 0 0 0
M  V30 BEGIN ATOM
M  V30 1 C 4.846341 -4.549331 1.146847 0
M  V30 2 N 4.217870 -3.306178 0.764370 0
M  V30 3 C 4.491435 -2.658665 -0.458597 0
M  V30 4 O 5.299290 -3.122758 -1.293910 0
M  V30 5 C 3.842364 -1.392643 -0.836147 0
M  V30 6 C 4.059473 -0.896566 -2.103383 0
M  V30 7 C 3.526644 0.275176 -2.599765 0
M  V30 8 C 2.707508 1.017915 -1.767793 0
M  V30 9 C 2.010152 2.304715 -2.066117 0
M  V30 10 C 2.461384 0.561976 -0.492151 0
M  V30 11 N 1.663390 1.140692 0.519443 0
M  V30 12 C 0.359436 1.573838 0.834645 0
M  V30 13 N -0.101457 2.856604 0.824714 0
M  V30 14 C -1.384118 3.120470 1.149998 0
M  V30 15 N -2.239226 2.114342 1.492312 0
M  V30 16 C -1.783505 0.861592 1.500185 0
M  V30 17 C -0.487495 0.517733 1.180016 0
M  V30 18 C -0.444948 -0.843693 1.309037 0
M  V30 19 N -1.660303 -1.314703 1.691199 0
M  V30 20 N -2.473993 -0.249672 1.804473 0
M  V30 21 C -3.805545 -0.524295 2.205464 0
M  V30 22 C -3.934894 -0.695194 3.590200 0
M  V30 23 C -5.132655 -0.968303 4.211466 0
M  V30 24 C -6.174160 -1.051308 3.318050 0
M  V30 25 C -6.139763 -0.897570 1.950005 0
M  V30 26 N -4.902711 -0.630551 1.443827 0
M  V30 27 C 3.011245 -0.632171 -0.000431 0
M  V30 28 H 5.951994 -4.523801 1.070329 0
M  V30 29 H 4.562471 -4.823558 2.202565 0
M  V30 30 H 4.478452 -5.381587 0.535601 0
M  V30 31 H 3.522434 -2.888405 1.455176 0
M  V30 32 H 4.689054 -1.402548 -2.839229 0
M  V30 33 H 3.661820 0.703154 -3.570378 0
M  V30 34 H 2.245297 3.106965 -1.356798 0
M  V30 35 H 0.901644 2.158198 -2.052616 0
M  V30 36 H 2.310285 2.638958 -3.087355 0
M  V30 37 H 2.114306 1.387844 1.448211 0
M  V30 38 H -1.699190 4.174215 1.126380 0
M  V30 39 H 0.447712 -1.415163 1.121173 0
M  V30 40 H -3.069920 -0.619451 4.273948 0
M  V30 41 H -5.248281 -1.104268 5.268081 0
M  V30 42 H -7.187021 -1.265209 3.693122 0
M  V30 43 H -6.987409 -0.973457 1.292461 0
M  V30 44 H 2.872477 -1.054158 0.978959 0
M  V30 END ATOM
M  V30 BEGIN BOND
M  V30 1 1 1 2
M  V30 2 1 2 3
M  V30 3 2 3 4
M  V30 4 1 3 5
M  V30 5 2 5 6
M  V30 6 1 6 7
M  V30 7 2 7 8
M  V30 8 1 8 9
M  V30 9 1 8 10
M  V30 10 1 10 11
M  V30 11 1 11 12
M  V30 12 2 12 13
M  V30 13 1 13 14
M  V30 14 2 14 15
M  V30 15 1 15 16
M  V30 16 2 16 17
M  V30 17 1 17 18
M  V30 18 2 18 19
M  V30 19 1 19 20
M  V30 20 1 20 21
M  V30 21 2 21 22
M  V30 22 1 22 23
M  V30 23 2 23 24
M  V30 24 1 24 25
M  V30 25 2 25 26
M  V30 26 2 10 27
M  V30 27 1 27 5
M  V30 28 1 17 12
M  V30 29 1 26 21
M  V30 30 1 20 16
M  V30 31 1 1 28
M  V30 32 1 1 29
M  V30 33 1 1 30
M  V30 34 1 2 31
M  V30 35 1 6 32
M  V30 36 1 7 33
M  V30 37 1 9 34
M  V30 38 1 9 35
M  V30 39 1 9 36
M  V30 40 1 11 37
M  V30 41 1 14 38
M  V30 42 1 18 39
M  V30 43 1 22 40
M  V30 44 1 23 41
M  V30 45 1 24 42
M  V30 46 1 25 43
M  V30 47 1 27 44
M  V30 END BOND
M  V30 END CTAB
M  END
>  <Dataset>  (566) 
ChEMBL_Kinases

>  <Ligand_Instance>  (566) 
nan

>  <PDB_ID>  (566) 
nan

>  <Standardized_SMILES>  (566) 
CNC(=O)c1ccc(C)c(Nc2ncnc3c2cnn3-c2ccccn2)c1

>  <Name>  (566) 
nan

>  <Pocket>  (566) 
nan

>  <ATP_Site>  (566) 
nan

>  <Peripheral>  (566) 
nan

>  <Num_H_Atoms_ProtBoundConf>  (566) 
nan

>  <Num_Resolved_Atoms>  (566) 
nan

>  <Num_Not_Resolved_Atoms>  (566) 
nan

$$$$
CHEMBL257857
     RDKit          3D

  0  0  0  0  0  0  0  0  0  0999 V3000
M  V30 BEGIN CTAB
M  V30 COUNTS 64 69 0 0 0
M  V30 BEGIN ATOM
M  V30 1 C 0.610745 1.242995 0.468194 0
M  V30 2 N 0.157970 0.258110 1.435148 0
M  V30 3 C 0.347838 -1.095880 1.399752 0
M  V30 4 C 1.015839 -1.808358 0.426981 0
M  V30 5 C 1.157168 -3.160312 0.471715 0
M  V30 6 S 1.967480 -4.242305 -0.620459 0
M  V30 7 O 0.992672 -5.321894 -1.081010 0
M  V30 8 O 3.057844 -5.008279 0.114596 0
M  V30 9 C 2.600667 -3.492423 -2.069277 0
M  V30 10 C 1.554448 -2.871736 -2.957558 0
M  V30 11 C 2.205794 -2.237887 -4.182432 0
M  V30 12 N 1.204198 -1.635610 -5.046890 0
M  V30 13 C 1.899343 -1.054501 -6.186895 0
M  V30 14 C 0.915999 -1.076768 -7.328073 0
M  V30 15 C -0.016828 -2.214832 -6.991314 0
M  V30 16 C 0.335830 -2.655296 -5.586338 0
M  V30 17 C 0.572664 -3.785235 1.585129 0
M  V30 18 O 0.640273 -5.179916 1.763924 0
M  V30 19 C -0.089863 -3.052586 2.545001 0
M  V30 20 C -0.230360 -1.697998 2.497101 0
M  V30 21 C -0.775331 -0.660935 3.195398 0
M  V30 22 C -1.465491 -0.641149 4.350699 0
M  V30 23 C -1.929937 0.536671 4.884391 0
M  V30 24 C -1.687446 1.746432 4.223756 0
M  V30 25 C -2.161407 3.018831 4.753871 0
M  V30 26 C -1.307782 3.691845 5.607171 0
M  V30 27 C -1.751467 4.899957 6.113704 0
M  V30 28 C -2.988486 5.410801 5.783428 0
M  V30 29 C -3.839030 4.723818 4.923213 0
M  V30 30 C -3.404849 3.506889 4.406375 0
M  V30 31 Cl -4.401121 2.545436 3.303243 0
M  V30 32 C -0.981182 1.737198 3.039178 0
M  V30 33 C -0.537264 0.529328 2.546253 0
M  V30 34 C -2.652723 0.354252 6.136893 0
M  V30 35 O -3.186202 1.241913 6.847327 0
M  V30 36 N -2.592920 -1.073784 6.335366 0
M  V30 37 C -1.880452 -1.660959 5.261326 0
M  V30 38 O -1.780520 -2.891371 5.350971 0
M  V30 39 H 1.504729 1.812308 0.841343 0
M  V30 40 H -0.208424 1.910043 0.182782 0
M  V30 41 H 0.950479 0.719782 -0.454786 0
M  V30 42 H 1.465774 -1.322726 -0.404379 0
M  V30 43 H 3.443495 -2.793696 -1.864845 0
M  V30 44 H 3.079549 -4.323607 -2.665098 0
M  V30 45 H 0.933314 -3.742610 -3.343355 0
M  V30 46 H 0.858035 -2.216476 -2.446576 0
M  V30 47 H 2.905536 -1.480219 -3.810727 0
M  V30 48 H 2.740766 -3.018095 -4.760413 0
M  V30 49 H 2.799539 -1.652447 -6.387974 0
M  V30 50 H 2.200966 -0.015830 -6.034492 0
M  V30 51 H 0.378093 -0.097766 -7.426602 0
M  V30 52 H 1.495778 -1.262377 -8.268144 0
M  V30 53 H 0.165857 -3.011928 -7.741611 0
M  V30 54 H -1.078776 -1.962487 -7.034434 0
M  V30 55 H -0.562795 -2.704975 -4.956704 0
M  V30 56 H 0.863992 -3.620737 -5.686659 0
M  V30 57 H -0.216121 -5.615539 2.095744 0
M  V30 58 H -0.514558 -3.574610 3.368198 0
M  V30 59 H -0.333567 3.340576 5.898402 0
M  V30 60 H -1.147868 5.498563 6.791916 0
M  V30 61 H -3.387553 6.356379 6.153003 0
M  V30 62 H -4.829096 5.050894 4.608991 0
M  V30 63 H -0.805844 2.668580 2.549608 0
M  V30 64 H -3.066943 -1.450841 7.210666 0
M  V30 END ATOM
M  V30 BEGIN BOND
M  V30 1 1 1 2
M  V30 2 1 2 3
M  V30 3 2 3 4
M  V30 4 1 4 5
M  V30 5 1 5 6
M  V30 6 2 6 7
M  V30 7 2 6 8
M  V30 8 1 6 9
M  V30 9 1 9 10
M  V30 10 1 10 11
M  V30 11 1 11 12
M  V30 12 1 12 13
M  V30 13 1 13 14
M  V30 14 1 14 15
M  V30 15 1 15 16
M  V30 16 2 5 17
M  V30 17 1 17 18
M  V30 18 1 17 19
M  V30 19 2 19 20
M  V30 20 1 20 21
M  V30 21 2 21 22
M  V30 22 1 22 23
M  V30 23 2 23 24
M  V30 24 1 24 25
M  V30 25 2 25 26
M  V30 26 1 26 27
M  V30 27 2 27 28
M  V30 28 1 28 29
M  V30 29 2 29 30
M  V30 30 1 30 31
M  V30 31 1 24 32
M  V30 32 2 32 33
M  V30 33 1 23 34
M  V30 34 2 34 35
M  V30 35 1 34 36
M  V30 36 1 36 37
M  V30 37 2 37 38
M  V30 38 1 33 2
M  V30 39 1 20 3
M  V30 40 1 33 21
M  V30 41 1 16 12
M  V30 42 1 37 22
M  V30 43 1 30 25
M  V30 44 1 1 39
M  V30 45 1 1 40
M  V30 46 1 1 41
M  V30 47 1 4 42
M  V30 48 1 9 43
M  V30 49 1 9 44
M  V30 50 1 10 45
M  V30 51 1 10 46
M  V30 52 1 11 47
M  V30 53 1 11 48
M  V30 54 1 13 49
M  V30 55 1 13 50
M  V30 56 1 14 51
M  V30 57 1 14 52
M  V30 58 1 15 53
M  V30 59 1 15 54
M  V30 60 1 16 55
M  V30 61 1 16 56
M  V30 62 1 18 57
M  V30 63 1 19 58
M  V30 64 1 26 59
M  V30 65 1 27 60
M  V30 66 1 28 61
M  V30 67 1 29 62
M  V30 68 1 32 63
M  V30 69 1 36 64
M  V30 END BOND
M  V30 END CTAB
M  END
>  <Dataset>  (567) 
ChEMBL_Kinases

>  <Ligand_Instance>  (567) 
nan

>  <PDB_ID>  (567) 
nan

>  <Standardized_SMILES>  (567) 
Cn1c2cc(S(=O)(=O)CCCN3CCCC3)c(O)cc2c2c3c(c(-c4ccccc4Cl)cc21)C(=O)NC3=O

>  <Name>  (567) 
nan

>  <Pocket>  (567) 
nan

>  <ATP_Site>  (567) 
nan

>  <Peripheral>  (567) 
nan

>  <Num_H_Atoms_ProtBoundConf>  (567) 
nan

>  <Num_Resolved_Atoms>  (567) 
nan

>  <Num_Not_Resolved_Atoms>  (567) 
nan

$$$$
CHEMBL257994
     RDKit          3D

  0  0  0  0  0  0  0  0  0  0999 V3000
M  V30 BEGIN CTAB
M  V30 COUNTS 40 41 0 0 0
M  V30 BEGIN ATOM
M  V30 1 C 0.035862 -5.346063 1.276793 0
M  V30 2 C 1.215904 -6.272086 1.208891 0
M  V30 3 C 2.554194 -5.635484 1.289154 0
M  V30 4 N 2.841036 -4.708142 0.241433 0
M  V30 5 C 2.455899 -3.417104 -0.175087 0
M  V30 6 N 2.620352 -2.663294 -1.050393 0
M  V30 7 C 2.120098 -1.461454 -1.146344 0
M  V30 8 C 1.330019 -0.982312 -0.177657 0
M  V30 9 C 0.581050 0.245172 0.128641 0
M  V30 10 O -0.052404 0.200494 1.240451 0
M  V30 11 N 0.461114 1.428614 -0.598800 0
M  V30 12 C -0.390632 2.293025 0.168483 0
M  V30 13 C 0.004152 3.203845 1.125303 0
M  V30 14 C -0.930769 3.971231 1.787624 0
M  V30 15 C -0.507154 4.931759 2.796512 0
M  V30 16 N 0.874771 5.078955 3.095971 0
M  V30 17 O -1.388235 5.613012 3.381900 0
M  V30 18 C -2.253063 3.782575 1.448925 0
M  V30 19 C -2.697128 2.886841 0.501181 0
M  V30 20 C -1.730747 2.130775 -0.146260 0
M  V30 21 C -2.240481 1.159947 -1.178467 0
M  V30 22 S 1.313886 -2.334703 0.917529 0
M  V30 23 H -0.167407 -4.831853 0.340401 0
M  V30 24 H -0.910475 -5.947536 1.478985 0
M  V30 25 H 0.100379 -4.695727 2.184155 0
M  V30 26 H 1.108882 -7.117747 1.944000 0
M  V30 27 H 1.130980 -6.793979 0.206637 0
M  V30 28 H 3.382724 -6.356423 1.408557 0
M  V30 29 H 2.558906 -5.013009 2.245158 0
M  V30 30 H 3.545687 -5.061161 -0.444027 0
M  V30 31 H 2.337189 -0.822721 -2.019039 0
M  V30 32 H 1.008757 1.402886 -1.501643 0
M  V30 33 H 1.064376 3.262732 1.304778 0
M  V30 34 H 1.674471 5.746375 2.998594 0
M  V30 35 H 1.080819 4.154770 3.580632 0
M  V30 36 H -2.944771 4.408959 1.998592 0
M  V30 37 H -3.748777 2.767639 0.262079 0
M  V30 38 H -1.460912 0.881109 -1.909276 0
M  V30 39 H -2.781647 0.318155 -0.731129 0
M  V30 40 H -2.993425 1.743485 -1.777406 0
M  V30 END ATOM
M  V30 BEGIN BOND
M  V30 1 1 1 2
M  V30 2 1 2 3
M  V30 3 1 3 4
M  V30 4 1 4 5
M  V30 5 2 5 6
M  V30 6 1 6 7
M  V30 7 2 7 8
M  V30 8 1 8 9
M  V30 9 2 9 10
M  V30 10 1 9 11
M  V30 11 1 11 12
M  V30 12 2 12 13
M  V30 13 1 13 14
M  V30 14 1 14 15
M  V30 15 1 15 16
M  V30 16 2 15 17
M  V30 17 2 14 18
M  V30 18 1 18 19
M  V30 19 2 19 20
M  V30 20 1 20 21
M  V30 21 1 8 22
M  V30 22 1 22 5
M  V30 23 1 20 12
M  V30 24 1 1 23
M  V30 25 1 1 24
M  V30 26 1 1 25
M  V30 27 1 2 26
M  V30 28 1 2 27
M  V30 29 1 3 28
M  V30 30 1 3 29
M  V30 31 1 4 30
M  V30 32 1 7 31
M  V30 33 1 11 32
M  V30 34 1 13 33
M  V30 35 1 16 34
M  V30 36 1 16 35
M  V30 37 1 18 36
M  V30 38 1 19 37
M  V30 39 1 21 38
M  V30 40 1 21 39
M  V30 41 1 21 40
M  V30 END BOND
M  V30 END CTAB
M  END
>  <Dataset>  (568) 
ChEMBL_Kinases

>  <Ligand_Instance>  (568) 
nan

>  <PDB_ID>  (568) 
nan

>  <Standardized_SMILES>  (568) 
CCCNc1ncc(C(=O)Nc2cc(C(N)=O)ccc2C)s1

>  <Name>  (568) 
nan

>  <Pocket>  (568) 
nan

>  <ATP_Site>  (568) 
nan

>  <Peripheral>  (568) 
nan

>  <Num_H_Atoms_ProtBoundConf>  (568) 
nan

>  <Num_Resolved_Atoms>  (568) 
nan

>  <Num_Not_Resolved_Atoms>  (568) 
nan

$$$$
CHEMBL257995
     RDKit          3D

  0  0  0  0  0  0  0  0  0  0999 V3000
M  V30 BEGIN CTAB
M  V30 COUNTS 40 41 0 0 0
M  V30 BEGIN ATOM
M  V30 1 C -0.494943 -2.752334 -1.743377 0
M  V30 2 C 0.972244 -2.483688 -1.670652 0
M  V30 3 C 1.867819 -3.318486 -2.298180 0
M  V30 4 C 3.230521 -3.111953 -2.259555 0
M  V30 5 C 3.719967 -2.010164 -1.554374 0
M  V30 6 C 5.126902 -1.624193 -1.398124 0
M  V30 7 N 6.010919 -2.510278 -2.057156 0
M  V30 8 O 5.590073 -0.639138 -0.771012 0
M  V30 9 C 2.782293 -1.204852 -0.943579 0
M  V30 10 C 1.414031 -1.378692 -0.959799 0
M  V30 11 N 0.540351 -0.477552 -0.289184 0
M  V30 12 C -0.094961 0.701557 -0.728742 0
M  V30 13 O 0.071148 1.113123 -1.887945 0
M  V30 14 C -0.897271 1.208510 0.454418 0
M  V30 15 C -1.616649 2.345590 0.307099 0
M  V30 16 N -2.347771 2.875639 1.264714 0
M  V30 17 C -2.383941 2.289783 2.395485 0
M  V30 18 N -2.993320 2.450728 3.691224 0
M  V30 19 C -2.754481 1.494852 4.759785 0
M  V30 20 C -3.211852 0.111758 4.351641 0
M  V30 21 C -1.281210 1.403093 5.097056 0
M  V30 22 S -1.248084 0.796687 2.093034 0
M  V30 23 H -0.940932 -2.246677 -2.632889 0
M  V30 24 H -0.645602 -3.847103 -1.947108 0
M  V30 25 H -1.016438 -2.527804 -0.798192 0
M  V30 26 H 1.554975 -4.194848 -2.864720 0
M  V30 27 H 3.991942 -3.721420 -2.725618 0
M  V30 28 H 6.648214 -3.176466 -2.529613 0
M  V30 29 H 6.209944 -3.532319 -2.126114 0
M  V30 30 H 3.156761 -0.350216 -0.396129 0
M  V30 31 H 0.543380 -0.996457 0.621464 0
M  V30 32 H -1.716423 2.994630 -0.583059 0
M  V30 33 H -3.568586 3.315607 3.655616 0
M  V30 34 H -3.329920 1.773535 5.670058 0
M  V30 35 H -2.343999 -0.486676 3.994877 0
M  V30 36 H -4.047915 0.136736 3.628150 0
M  V30 37 H -3.555043 -0.407365 5.269549 0
M  V30 38 H -0.986869 0.342601 5.227455 0
M  V30 39 H -0.678493 1.909611 4.311440 0
M  V30 40 H -1.073302 1.886196 6.077883 0
M  V30 END ATOM
M  V30 BEGIN BOND
M  V30 1 1 1 2
M  V30 2 2 2 3
M  V30 3 1 3 4
M  V30 4 2 4 5
M  V30 5 1 5 6
M  V30 6 1 6 7
M  V30 7 2 6 8
M  V30 8 1 5 9
M  V30 9 2 9 10
M  V30 10 1 10 11
M  V30 11 1 11 12
M  V30 12 2 12 13
M  V30 13 1 12 14
M  V30 14 2 14 15
M  V30 15 1 15 16
M  V30 16 2 16 17
M  V30 17 1 17 18
M  V30 18 1 18 19
M  V30 19 1 19 20
M  V30 20 1 19 21
M  V30 21 1 17 22
M  V30 22 1 10 2
M  V30 23 1 22 14
M  V30 24 1 1 23
M  V30 25 1 1 24
M  V30 26 1 1 25
M  V30 27 1 3 26
M  V30 28 1 4 27
M  V30 29 1 7 28
M  V30 30 1 7 29
M  V30 31 1 9 30
M  V30 32 1 11 31
M  V30 33 1 15 32
M  V30 34 1 18 33
M  V30 35 1 19 34
M  V30 36 1 20 35
M  V30 37 1 20 36
M  V30 38 1 20 37
M  V30 39 1 21 38
M  V30 40 1 21 39
M  V30 41 1 21 40
M  V30 END BOND
M  V30 END CTAB
M  END
>  <Dataset>  (569) 
ChEMBL_Kinases

>  <Ligand_Instance>  (569) 
nan

>  <PDB_ID>  (569) 
nan

>  <Standardized_SMILES>  (569) 
Cc1ccc(C(N)=O)cc1NC(=O)c1cnc(NC(C)C)s1

>  <Name>  (569) 
nan

>  <Pocket>  (569) 
nan

>  <ATP_Site>  (569) 
nan

>  <Peripheral>  (569) 
nan

>  <Num_H_Atoms_ProtBoundConf>  (569) 
nan

>  <Num_Resolved_Atoms>  (569) 
nan

>  <Num_Not_Resolved_Atoms>  (569) 
nan

$$$$
CHEMBL257996
     RDKit          3D

  0  0  0  0  0  0  0  0  0  0999 V3000
M  V30 BEGIN CTAB
M  V30 COUNTS 43 44 0 0 0
M  V30 BEGIN ATOM
M  V30 1 C -0.154366 -6.915226 1.171576 0
M  V30 2 C 0.807313 -6.048999 0.389096 0
M  V30 3 C 0.449663 -6.079225 -1.057897 0
M  V30 4 N 1.334357 -5.269007 -1.870237 0
M  V30 5 C 1.474510 -3.818587 -1.769195 0
M  V30 6 N 2.113701 -2.908770 -2.266011 0
M  V30 7 C 1.936254 -1.663595 -1.892208 0
M  V30 8 C 1.015441 -1.346993 -0.920092 0
M  V30 9 C 0.824292 0.092556 -0.502924 0
M  V30 10 O 1.440689 1.083642 -0.963097 0
M  V30 11 N -0.166910 0.214759 0.506352 0
M  V30 12 C -0.401136 1.560205 0.951725 0
M  V30 13 C 0.310007 2.068698 1.990313 0
M  V30 14 C 0.037634 3.358444 2.364776 0
M  V30 15 C 0.706145 4.059970 3.459959 0
M  V30 16 O 0.472288 5.254818 3.812869 0
M  V30 17 N 1.713087 3.445423 4.255496 0
M  V30 18 C 2.390373 4.120763 5.347053 0
M  V30 19 C -0.932825 4.117500 1.702944 0
M  V30 20 C -1.623954 3.536088 0.648067 0
M  V30 21 C -1.375978 2.233407 0.240603 0
M  V30 22 C -2.116450 1.602119 -0.895137 0
M  V30 23 S 0.381177 -2.884975 -0.527079 0
M  V30 24 H -0.642181 -6.370431 1.997691 0
M  V30 25 H 0.430888 -7.729320 1.640704 0
M  V30 26 H -0.877968 -7.393524 0.478843 0
M  V30 27 H 1.858019 -6.358230 0.518281 0
M  V30 28 H 0.682365 -5.020029 0.772002 0
M  V30 29 H -0.553640 -5.554066 -1.130806 0
M  V30 30 H 0.279567 -7.066170 -1.474713 0
M  V30 31 H 1.968169 -5.599627 -2.610045 0
M  V30 32 H 2.588476 -0.956017 -2.434172 0
M  V30 33 H -0.710655 -0.593113 0.922344 0
M  V30 34 H 1.065684 1.523420 2.529114 0
M  V30 35 H 2.007034 2.461056 4.076290 0
M  V30 36 H 1.743936 4.895587 5.821561 0
M  V30 37 H 2.675808 3.378364 6.140088 0
M  V30 38 H 3.362038 4.557955 5.023713 0
M  V30 39 H -1.197856 5.137919 1.945484 0
M  V30 40 H -2.395355 4.103780 0.103716 0
M  V30 41 H -2.389247 0.536568 -0.665524 0
M  V30 42 H -1.529193 1.645448 -1.841186 0
M  V30 43 H -3.026239 2.208035 -1.101546 0
M  V30 END ATOM
M  V30 BEGIN BOND
M  V30 1 1 1 2
M  V30 2 1 2 3
M  V30 3 1 3 4
M  V30 4 1 4 5
M  V30 5 2 5 6
M  V30 6 1 6 7
M  V30 7 2 7 8
M  V30 8 1 8 9
M  V30 9 2 9 10
M  V30 10 1 9 11
M  V30 11 1 11 12
M  V30 12 2 12 13
M  V30 13 1 13 14
M  V30 14 1 14 15
M  V30 15 2 15 16
M  V30 16 1 15 17
M  V30 17 1 17 18
M  V30 18 2 14 19
M  V30 19 1 19 20
M  V30 20 2 20 21
M  V30 21 1 21 22
M  V30 22 1 8 23
M  V30 23 1 23 5
M  V30 24 1 21 12
M  V30 25 1 1 24
M  V30 26 1 1 25
M  V30 27 1 1 26
M  V30 28 1 2 27
M  V30 29 1 2 28
M  V30 30 1 3 29
M  V30 31 1 3 30
M  V30 32 1 4 31
M  V30 33 1 7 32
M  V30 34 1 11 33
M  V30 35 1 13 34
M  V30 36 1 17 35
M  V30 37 1 18 36
M  V30 38 1 18 37
M  V30 39 1 18 38
M  V30 40 1 19 39
M  V30 41 1 20 40
M  V30 42 1 22 41
M  V30 43 1 22 42
M  V30 44 1 22 43
M  V30 END BOND
M  V30 END CTAB
M  END
>  <Dataset>  (570) 
ChEMBL_Kinases

>  <Ligand_Instance>  (570) 
nan

>  <PDB_ID>  (570) 
nan

>  <Standardized_SMILES>  (570) 
CCCNc1ncc(C(=O)Nc2cc(C(=O)NC)ccc2C)s1

>  <Name>  (570) 
nan

>  <Pocket>  (570) 
nan

>  <ATP_Site>  (570) 
nan

>  <Peripheral>  (570) 
nan

>  <Num_H_Atoms_ProtBoundConf>  (570) 
nan

>  <Num_Resolved_Atoms>  (570) 
nan

>  <Num_Not_Resolved_Atoms>  (570) 
nan

$$$$
CHEMBL258067
     RDKit          3D

  0  0  0  0  0  0  0  0  0  0999 V3000
M  V30 BEGIN CTAB
M  V30 COUNTS 69 74 0 0 0
M  V30 BEGIN ATOM
M  V30 1 O 5.368158 -0.080252 3.277235 0
M  V30 2 C 4.343534 -0.722305 2.948419 0
M  V30 3 N 4.147809 -2.149528 2.885951 0
M  V30 4 C 2.817114 -2.379754 2.459251 0
M  V30 5 O 2.513367 -3.575525 2.362054 0
M  V30 6 C 2.108470 -1.145008 2.231511 0
M  V30 7 C 3.040275 -0.180855 2.530186 0
M  V30 8 C 2.705756 1.167569 2.420460 0
M  V30 9 C 3.658575 2.226179 2.727772 0
M  V30 10 C 4.413216 2.609387 1.619884 0
M  V30 11 C 5.367932 3.600888 1.729999 0
M  V30 12 C 5.588276 4.227238 2.941198 0
M  V30 13 C 4.838405 3.845088 4.036930 0
M  V30 14 C 3.880939 2.855909 3.942223 0
M  V30 15 Cl 2.871729 2.287667 5.249499 0
M  V30 16 C 1.414471 1.432698 2.003307 0
M  V30 17 C 0.456679 0.485734 1.695921 0
M  V30 18 C 0.843309 -0.832264 1.823074 0
M  V30 19 C -0.216088 -1.611264 1.486690 0
M  V30 20 C -0.524549 -2.937697 1.426616 0
M  V30 21 C -1.758805 -3.409722 1.062889 0
M  V30 22 O -1.961371 -4.798899 1.039424 0
M  V30 23 C -2.808979 -2.567170 0.719745 0
M  V30 24 C -4.137726 -3.108515 0.480924 0
M  V30 25 C -4.337795 -4.120827 -0.553127 0
M  V30 26 C -4.071881 -4.008429 -1.973373 0
M  V30 27 C -2.693869 -3.765225 -2.445829 0
M  V30 28 N -2.130967 -2.472346 -2.093492 0
M  V30 29 C -0.753321 -2.471246 -2.557915 0
M  V30 30 C -0.259578 -1.167519 -3.064435 0
M  V30 31 O -0.991861 -0.111098 -2.547486 0
M  V30 32 C -2.286558 -0.180595 -3.030570 0
M  V30 33 C -2.912741 -1.513953 -2.875896 0
M  V30 34 C -2.499782 -1.197484 0.776472 0
M  V30 35 C -1.222052 -0.762976 1.157305 0
M  V30 36 N -0.833092 0.539042 1.281076 0
M  V30 37 C -1.434976 1.817946 1.107834 0
M  V30 38 C -1.313682 2.490815 -0.193342 0
M  V30 39 O -1.976227 3.749158 -0.121840 0
M  V30 40 H 4.958975 -2.765010 3.146462 0
M  V30 41 H 4.329895 2.191217 0.618624 0
M  V30 42 H 5.988826 3.941849 0.896613 0
M  V30 43 H 6.341965 5.020279 3.062440 0
M  V30 44 H 4.946417 4.284283 5.023052 0
M  V30 45 H 1.188763 2.488761 1.927682 0
M  V30 46 H 0.190248 -3.685973 1.664162 0
M  V30 47 H -2.216483 -5.308466 1.879432 0
M  V30 48 H -4.442282 -3.552860 1.505438 0
M  V30 49 H -4.854626 -2.223135 0.332729 0
M  V30 50 H -5.460384 -4.445635 -0.485264 0
M  V30 51 H -3.832023 -5.128734 -0.220586 0
M  V30 52 H -4.450416 -4.927951 -2.544370 0
M  V30 53 H -4.770962 -3.204025 -2.405039 0
M  V30 54 H -2.049227 -4.592643 -2.039467 0
M  V30 55 H -2.647152 -3.924377 -3.560164 0
M  V30 56 H -0.566929 -3.284854 -3.291247 0
M  V30 57 H -0.129094 -2.739163 -1.666047 0
M  V30 58 H 0.813732 -1.012289 -2.750947 0
M  V30 59 H -0.286155 -1.152518 -4.185451 0
M  V30 60 H -2.216789 0.078035 -4.132020 0
M  V30 61 H -2.879122 0.628913 -2.562683 0
M  V30 62 H -3.905465 -1.373441 -2.385905 0
M  V30 63 H -3.085090 -1.958801 -3.888307 0
M  V30 64 H -3.262990 -0.503100 0.521745 0
M  V30 65 H -1.134577 2.547008 1.917425 0
M  V30 66 H -2.544571 1.692794 1.312481 0
M  V30 67 H -0.240812 2.805851 -0.355975 0
M  V30 68 H -1.746714 2.007346 -1.057715 0
M  V30 69 H -1.680233 4.226003 -0.939319 0
M  V30 END ATOM
M  V30 BEGIN BOND
M  V30 1 2 1 2
M  V30 2 1 2 3
M  V30 3 1 3 4
M  V30 4 2 4 5
M  V30 5 1 4 6
M  V30 6 2 6 7
M  V30 7 1 7 8
M  V30 8 1 8 9
M  V30 9 2 9 10
M  V30 10 1 10 11
M  V30 11 2 11 12
M  V30 12 1 12 13
M  V30 13 2 13 14
M  V30 14 1 14 15
M  V30 15 2 8 16
M  V30 16 1 16 17
M  V30 17 2 17 18
M  V30 18 1 18 19
M  V30 19 2 19 20
M  V30 20 1 20 21
M  V30 21 1 21 22
M  V30 22 2 21 23
M  V30 23 1 23 24
M  V30 24 1 24 25
M  V30 25 1 25 26
M  V30 26 1 26 27
M  V30 27 1 27 28
M  V30 28 1 28 29
M  V30 29 1 29 30
M  V30 30 1 30 31
M  V30 31 1 31 32
M  V30 32 1 32 33
M  V30 33 1 23 34
M  V30 34 2 34 35
M  V30 35 1 35 36
M  V30 36 1 36 37
M  V30 37 1 37 38
M  V30 38 1 38 39
M  V30 39 1 7 2
M  V30 40 1 14 9
M  V30 41 1 36 17
M  V30 42 1 18 6
M  V30 43 1 35 19
M  V30 44 1 33 28
M  V30 45 1 3 40
M  V30 46 1 10 41
M  V30 47 1 11 42
M  V30 48 1 12 43
M  V30 49 1 13 44
M  V30 50 1 16 45
M  V30 51 1 20 46
M  V30 52 1 22 47
M  V30 53 1 24 48
M  V30 54 1 24 49
M  V30 55 1 25 50
M  V30 56 1 25 51
M  V30 57 1 26 52
M  V30 58 1 26 53
M  V30 59 1 27 54
M  V30 60 1 27 55
M  V30 61 1 29 56
M  V30 62 1 29 57
M  V30 63 1 30 58
M  V30 64 1 30 59
M  V30 65 1 32 60
M  V30 66 1 32 61
M  V30 67 1 33 62
M  V30 68 1 33 63
M  V30 69 1 34 64
M  V30 70 1 37 65
M  V30 71 1 37 66
M  V30 72 1 38 67
M  V30 73 1 38 68
M  V30 74 1 39 69
M  V30 END BOND
M  V30 END CTAB
M  END
>  <Dataset>  (571) 
ChEMBL_Kinases

>  <Ligand_Instance>  (571) 
nan

>  <PDB_ID>  (571) 
nan

>  <Standardized_SMILES>  (571) 
O=C1NC(=O)c2c1c(-c1ccccc1Cl)cc1c2c2cc(O)c(CCCCN3CCOCC3)cc2n1CCO

>  <Name>  (571) 
nan

>  <Pocket>  (571) 
nan

>  <ATP_Site>  (571) 
nan

>  <Peripheral>  (571) 
nan

>  <Num_H_Atoms_ProtBoundConf>  (571) 
nan

>  <Num_Resolved_Atoms>  (571) 
nan

>  <Num_Not_Resolved_Atoms>  (571) 
nan

$$$$
CHEMBL258150
     RDKit          3D

  0  0  0  0  0  0  0  0  0  0999 V3000
M  V30 BEGIN CTAB
M  V30 COUNTS 49 52 0 0 0
M  V30 BEGIN ATOM
M  V30 1 C 2.877462 -5.124478 -1.504349 0
M  V30 2 C 2.734448 -3.705801 -1.037421 0
M  V30 3 N 3.746609 -3.010368 -0.527267 0
M  V30 4 C 3.319070 -1.766226 -0.195982 0
M  V30 5 C 3.936284 -0.571108 0.387955 0
M  V30 6 C 3.484988 -0.091256 1.602716 0
M  V30 7 C 4.079020 1.030085 2.131056 0
M  V30 8 C 5.116814 1.651452 1.430372 0
M  V30 9 C 5.578262 1.176834 0.207663 0
M  V30 10 C 4.965608 0.049150 -0.302091 0
M  V30 11 C 1.960824 -1.700463 -0.525285 0
M  V30 12 C 1.003181 -0.608559 -0.384228 0
M  V30 13 C 1.234673 0.561957 -1.087375 0
M  V30 14 C 0.340648 1.612638 -0.971142 0
M  V30 15 C -0.761014 1.469870 -0.157318 0
M  V30 16 N -1.791400 2.307753 0.149605 0
M  V30 17 C -2.623221 1.684292 1.004128 0
M  V30 18 N -3.782739 2.338743 1.490956 0
M  V30 19 N -2.188758 0.442262 1.289592 0
M  V30 20 S -2.901942 -0.741103 2.316007 0
M  V30 21 O -3.031360 -0.136558 3.707277 0
M  V30 22 O -1.997352 -1.937162 2.365187 0
M  V30 23 C -4.514915 -1.239938 1.762257 0
M  V30 24 C -5.572967 -0.200875 1.999325 0
M  V30 25 C -4.910044 -2.445058 2.634275 0
M  V30 26 C -1.042412 0.330046 0.565417 0
M  V30 27 C -0.120650 -0.684216 0.413419 0
M  V30 28 N 1.651621 -2.925303 -1.041082 0
M  V30 29 H 3.879866 -5.256289 -1.980798 0
M  V30 30 H 2.796873 -5.818368 -0.623012 0
M  V30 31 H 2.056070 -5.427444 -2.175356 0
M  V30 32 H 2.680747 -0.611058 2.098242 0
M  V30 33 H 3.746030 1.427365 3.079958 0
M  V30 34 H 5.542747 2.527254 1.896485 0
M  V30 35 H 6.388224 1.679045 -0.318150 0
M  V30 36 H 5.287903 -0.360935 -1.250391 0
M  V30 37 H 2.089663 0.721796 -1.741763 0
M  V30 38 H 0.491633 2.540792 -1.506198 0
M  V30 39 H -4.484426 2.638278 0.769373 0
M  V30 40 H -4.039100 2.568127 2.490937 0
M  V30 41 H -4.488827 -1.650964 0.736772 0
M  V30 42 H -5.731672 0.397311 1.077665 0
M  V30 43 H -6.573224 -0.689898 2.206675 0
M  V30 44 H -5.321249 0.468801 2.845357 0
M  V30 45 H -5.998970 -2.603095 2.449001 0
M  V30 46 H -4.326430 -3.316327 2.248724 0
M  V30 47 H -4.652959 -2.288334 3.686909 0
M  V30 48 H -0.235737 -1.609386 0.922611 0
M  V30 49 H 0.694998 -3.210732 -1.391110 0
M  V30 END ATOM
M  V30 BEGIN BOND
M  V30 1 1 1 2
M  V30 2 2 2 3
M  V30 3 1 3 4
M  V30 4 1 4 5
M  V30 5 2 5 6
M  V30 6 1 6 7
M  V30 7 2 7 8
M  V30 8 1 8 9
M  V30 9 2 9 10
M  V30 10 2 4 11
M  V30 11 1 11 12
M  V30 12 2 12 13
M  V30 13 1 13 14
M  V30 14 2 14 15
M  V30 15 1 15 16
M  V30 16 2 16 17
M  V30 17 1 17 18
M  V30 18 1 17 19
M  V30 19 1 19 20
M  V30 20 2 20 21
M  V30 21 2 20 22
M  V30 22 1 20 23
M  V30 23 1 23 24
M  V30 24 1 23 25
M  V30 25 1 19 26
M  V30 26 2 26 27
M  V30 27 1 11 28
M  V30 28 1 28 2
M  V30 29 1 10 5
M  V30 30 1 27 12
M  V30 31 1 26 15
M  V30 32 1 1 29
M  V30 33 1 1 30
M  V30 34 1 1 31
M  V30 35 1 6 32
M  V30 36 1 7 33
M  V30 37 1 8 34
M  V30 38 1 9 35
M  V30 39 1 10 36
M  V30 40 1 13 37
M  V30 41 1 14 38
M  V30 42 1 18 39
M  V30 43 1 18 40
M  V30 44 1 23 41
M  V30 45 1 24 42
M  V30 46 1 24 43
M  V30 47 1 24 44
M  V30 48 1 25 45
M  V30 49 1 25 46
M  V30 50 1 25 47
M  V30 51 1 27 48
M  V30 52 1 28 49
M  V30 END BOND
M  V30 END CTAB
M  END
>  <Dataset>  (572) 
ChEMBL_Kinases

>  <Ligand_Instance>  (572) 
nan

>  <PDB_ID>  (572) 
nan

>  <Standardized_SMILES>  (572) 
Cc1nc(-c2ccccc2)c(-c2ccc3nc(N)n(S(=O)(=O)C(C)C)c3c2)[nH]1

>  <Name>  (572) 
nan

>  <Pocket>  (572) 
nan

>  <ATP_Site>  (572) 
nan

>  <Peripheral>  (572) 
nan

>  <Num_H_Atoms_ProtBoundConf>  (572) 
nan

>  <Num_Resolved_Atoms>  (572) 
nan

>  <Num_Not_Resolved_Atoms>  (572) 
nan

$$$$
CHEMBL258201
     RDKit          3D

  0  0  0  0  0  0  0  0  0  0999 V3000
M  V30 BEGIN CTAB
M  V30 COUNTS 43 44 0 0 0
M  V30 BEGIN ATOM
M  V30 1 C -1.281286 -7.557583 -0.687203 0
M  V30 2 N -1.826011 -6.267257 -1.090102 0
M  V30 3 C -1.100859 -5.184354 -0.583954 0
M  V30 4 O -0.085920 -5.416973 0.144312 0
M  V30 5 C -1.480997 -3.808094 -0.870454 0
M  V30 6 C -2.572300 -3.456598 -1.641857 0
M  V30 7 C -2.881486 -2.132549 -1.874521 0
M  V30 8 C -2.100747 -1.133699 -1.336648 0
M  V30 9 C -2.422968 0.294662 -1.581536 0
M  V30 10 C -0.973295 -1.401013 -0.540352 0
M  V30 11 N -0.198147 -0.346699 0.004302 0
M  V30 12 C 0.899210 0.365401 -0.499907 0
M  V30 13 O 1.414215 0.149003 -1.638617 0
M  V30 14 C 1.364027 1.376564 0.448197 0
M  V30 15 C 2.448834 2.233931 0.161399 0
M  V30 16 N 2.819573 3.129709 1.047990 0
M  V30 17 C 2.359773 3.334263 2.098826 0
M  V30 18 N 2.385141 4.117996 3.313418 0
M  V30 19 C 3.493238 3.479619 4.004161 0
M  V30 20 C 3.275340 1.973567 4.157633 0
M  V30 21 C 3.576363 3.998851 5.439542 0
M  V30 22 S 0.940928 2.040995 2.194507 0
M  V30 23 C -0.759061 -2.750828 -0.374499 0
M  V30 24 H -1.374191 -7.684251 0.429558 0
M  V30 25 H -0.206923 -7.668479 -0.941926 0
M  V30 26 H -1.822630 -8.381826 -1.170659 0
M  V30 27 H -2.664150 -6.136332 -1.690869 0
M  V30 28 H -3.197523 -4.222221 -2.072942 0
M  V30 29 H -3.748986 -1.880374 -2.488677 0
M  V30 30 H -2.051313 0.933850 -0.757974 0
M  V30 31 H -3.529080 0.363228 -1.579738 0
M  V30 32 H -2.079524 0.662234 -2.568047 0
M  V30 33 H -0.664564 -0.214879 0.926979 0
M  V30 34 H 3.018513 2.202624 -0.767147 0
M  V30 35 H 1.726665 4.921545 3.539195 0
M  V30 36 H 4.464631 3.600527 3.472120 0
M  V30 37 H 4.182468 1.607633 4.707605 0
M  V30 38 H 2.400594 1.795143 4.785712 0
M  V30 39 H 3.280999 1.471441 3.173492 0
M  V30 40 H 2.717558 3.537843 5.968893 0
M  V30 41 H 3.606787 5.092134 5.500293 0
M  V30 42 H 4.515729 3.608457 5.892579 0
M  V30 43 H 0.106340 -3.026592 0.235707 0
M  V30 END ATOM
M  V30 BEGIN BOND
M  V30 1 1 1 2
M  V30 2 1 2 3
M  V30 3 2 3 4
M  V30 4 1 3 5
M  V30 5 2 5 6
M  V30 6 1 6 7
M  V30 7 2 7 8
M  V30 8 1 8 9
M  V30 9 1 8 10
M  V30 10 1 10 11
M  V30 11 1 11 12
M  V30 12 2 12 13
M  V30 13 1 12 14
M  V30 14 2 14 15
M  V30 15 1 15 16
M  V30 16 2 16 17
M  V30 17 1 17 18
M  V30 18 1 18 19
M  V30 19 1 19 20
M  V30 20 1 19 21
M  V30 21 1 17 22
M  V30 22 2 10 23
M  V30 23 1 23 5
M  V30 24 1 22 14
M  V30 25 1 1 24
M  V30 26 1 1 25
M  V30 27 1 1 26
M  V30 28 1 2 27
M  V30 29 1 6 28
M  V30 30 1 7 29
M  V30 31 1 9 30
M  V30 32 1 9 31
M  V30 33 1 9 32
M  V30 34 1 11 33
M  V30 35 1 15 34
M  V30 36 1 18 35
M  V30 37 1 19 36
M  V30 38 1 20 37
M  V30 39 1 20 38
M  V30 40 1 20 39
M  V30 41 1 21 40
M  V30 42 1 21 41
M  V30 43 1 21 42
M  V30 44 1 23 43
M  V30 END BOND
M  V30 END CTAB
M  END
>  <Dataset>  (573) 
ChEMBL_Kinases

>  <Ligand_Instance>  (573) 
nan

>  <PDB_ID>  (573) 
nan

>  <Standardized_SMILES>  (573) 
CNC(=O)c1ccc(C)c(NC(=O)c2cnc(NC(C)C)s2)c1

>  <Name>  (573) 
nan

>  <Pocket>  (573) 
nan

>  <ATP_Site>  (573) 
nan

>  <Peripheral>  (573) 
nan

>  <Num_H_Atoms_ProtBoundConf>  (573) 
nan

>  <Num_Resolved_Atoms>  (573) 
nan

>  <Num_Not_Resolved_Atoms>  (573) 
nan

$$$$
CHEMBL258203
     RDKit          3D

  0  0  0  0  0  0  0  0  0  0999 V3000
M  V30 BEGIN CTAB
M  V30 COUNTS 46 47 0 0 0
M  V30 BEGIN ATOM
M  V30 1 C 0.736881 -8.081928 1.405817 0
M  V30 2 C 1.465298 -7.238650 0.382573 0
M  V30 3 C 1.372991 -5.767632 0.724406 0 CFG=2
M  V30 4 C -0.073666 -5.352667 0.751517 0
M  V30 5 N 2.105968 -4.952588 -0.216954 0
M  V30 6 C 2.045109 -3.526059 0.073033 0
M  V30 7 N 2.676437 -2.807942 0.694194 0
M  V30 8 C 2.512849 -1.512848 0.879573 0
M  V30 9 C 1.316140 -0.986360 0.143530 0
M  V30 10 C 1.151327 0.528071 0.379338 0
M  V30 11 O 1.731835 1.428367 1.006609 0
M  V30 12 N 0.035114 1.022072 -0.306468 0
M  V30 13 C -0.148290 2.440557 -0.106375 0
M  V30 14 C -0.916823 2.906700 0.937328 0
M  V30 15 C -1.089552 4.242848 1.126030 0
M  V30 16 C -1.884886 4.830533 2.202358 0
M  V30 17 O -2.021126 6.070390 2.344505 0
M  V30 18 N -2.553956 4.014433 3.156405 0
M  V30 19 C -3.359598 4.549001 4.249086 0
M  V30 20 C -0.472861 5.119750 0.241936 0
M  V30 21 C 0.291079 4.623234 -0.794299 0
M  V30 22 C 0.485375 3.274343 -1.012306 0
M  V30 23 C 1.313614 2.764907 -2.136879 0
M  V30 24 S 0.687577 -2.378752 -0.633315 0
M  V30 25 H 1.033976 -7.735228 2.430151 0
M  V30 26 H -0.351096 -8.054972 1.275923 0
M  V30 27 H 1.122820 -9.117732 1.327861 0
M  V30 28 H 2.546982 -7.517877 0.454414 0
M  V30 29 H 1.132776 -7.463474 -0.631754 0
M  V30 30 H 1.769916 -5.585225 1.742677 0
M  V30 31 H -0.675037 -6.038668 1.369753 0
M  V30 32 H -0.528330 -5.300345 -0.270904 0
M  V30 33 H -0.157787 -4.346843 1.223329 0
M  V30 34 H 2.660363 -5.264997 -1.060658 0
M  V30 35 H 3.239026 -0.988859 1.523435 0
M  V30 36 H -0.649358 0.490722 -0.922126 0
M  V30 37 H -1.378964 2.217983 1.601048 0
M  V30 38 H -2.503609 2.976375 3.125284 0
M  V30 39 H -3.340633 5.648289 4.127428 0
M  V30 40 H -2.772204 4.334414 5.185180 0
M  V30 41 H -4.363550 4.121573 4.281161 0
M  V30 42 H -0.553787 6.198198 0.313508 0
M  V30 43 H 0.790369 5.295777 -1.508669 0
M  V30 44 H 2.367614 3.022401 -1.932830 0
M  V30 45 H 0.957398 3.201097 -3.091124 0
M  V30 46 H 1.134574 1.651144 -2.166825 0
M  V30 END ATOM
M  V30 BEGIN BOND
M  V30 1 1 1 2
M  V30 2 1 2 3
M  V30 3 1 3 4
M  V30 4 1 3 5
M  V30 5 1 5 6
M  V30 6 2 6 7
M  V30 7 1 7 8
M  V30 8 2 8 9
M  V30 9 1 9 10
M  V30 10 2 10 11
M  V30 11 1 10 12
M  V30 12 1 12 13
M  V30 13 2 13 14
M  V30 14 1 14 15
M  V30 15 1 15 16
M  V30 16 2 16 17
M  V30 17 1 16 18
M  V30 18 1 18 19
M  V30 19 2 15 20
M  V30 20 1 20 21
M  V30 21 2 21 22
M  V30 22 1 22 23
M  V30 23 1 9 24
M  V30 24 1 24 6
M  V30 25 1 22 13
M  V30 26 1 1 25
M  V30 27 1 1 26
M  V30 28 1 1 27
M  V30 29 1 2 28
M  V30 30 1 2 29
M  V30 31 1 3 30 CFG=1
M  V30 32 1 4 31
M  V30 33 1 4 32
M  V30 34 1 4 33
M  V30 35 1 5 34
M  V30 36 1 8 35
M  V30 37 1 12 36
M  V30 38 1 14 37
M  V30 39 1 18 38
M  V30 40 1 19 39
M  V30 41 1 19 40
M  V30 42 1 19 41
M  V30 43 1 20 42
M  V30 44 1 21 43
M  V30 45 1 23 44
M  V30 46 1 23 45
M  V30 47 1 23 46
M  V30 END BOND
M  V30 END CTAB
M  END
>  <Dataset>  (574) 
ChEMBL_Kinases

>  <Ligand_Instance>  (574) 
nan

>  <PDB_ID>  (574) 
nan

>  <Standardized_SMILES>  (574) 
CC[C@H](C)Nc1ncc(C(=O)Nc2cc(C(=O)NC)ccc2C)s1

>  <Name>  (574) 
nan

>  <Pocket>  (574) 
nan

>  <ATP_Site>  (574) 
nan

>  <Peripheral>  (574) 
nan

>  <Num_H_Atoms_ProtBoundConf>  (574) 
nan

>  <Num_Resolved_Atoms>  (574) 
nan

>  <Num_Not_Resolved_Atoms>  (574) 
nan

$$$$
CHEMBL258631
     RDKit          3D

  0  0  0  0  0  0  0  0  0  0999 V3000
M  V30 BEGIN CTAB
M  V30 COUNTS 59 62 0 0 0
M  V30 BEGIN ATOM
M  V30 1 C 3.685825 -2.503473 2.808584 0
M  V30 2 C 2.796266 -1.295782 2.703168 0
M  V30 3 C 1.391798 -1.595326 2.332346 0
M  V30 4 O 2.031713 -2.615036 2.423656 0
M  V30 5 C 0.390385 -0.567313 2.152486 0
M  V30 6 C 0.494197 0.770545 2.225481 0
M  V30 7 C 1.677705 1.551953 2.442268 0
M  V30 8 C 2.352698 2.022597 3.557447 0
M  V30 9 C 3.483237 2.793513 3.470100 0
M  V30 10 C 4.035821 3.159694 2.259106 0
M  V30 11 C 3.392737 2.710316 1.125869 0
M  V30 12 C 2.249816 1.931044 1.216174 0
M  V30 13 C -0.695978 1.421934 2.043355 0
M  V30 14 C -0.713249 2.804597 2.086562 0
M  V30 15 C -1.885685 3.492226 1.900745 0
M  V30 16 Cl -1.865378 5.242509 1.960405 0
M  V30 17 C -3.109324 2.906326 1.663748 0
M  V30 18 C -3.095349 1.526325 1.620298 0
M  V30 19 C -1.912913 0.824972 1.806892 0
M  V30 20 C -1.944859 -0.550543 1.745079 0
M  V30 21 O -3.074157 -1.084632 1.530764 0
M  V30 22 N -0.775133 -1.222434 1.920381 0
M  V30 23 C -0.963053 -2.671663 1.771639 0
M  V30 24 C -0.671590 -2.928601 0.316791 0
M  V30 25 C -1.394112 -2.614673 -0.816580 0
M  V30 26 C -0.724236 -3.072173 -1.960479 0
M  V30 27 C -1.332281 -2.798534 -3.253378 0
M  V30 28 O -0.371200 -2.411138 -3.994612 0
M  V30 29 N -2.695237 -2.931099 -3.608377 0
M  V30 30 C -3.852884 -3.374666 -2.833543 0
M  V30 31 C -3.007552 -2.534442 -4.985931 0
M  V30 32 N 0.383368 -3.651009 -1.486057 0
M  V30 33 C 1.297312 -4.246779 -2.440372 0
M  V30 34 N 0.424516 -3.573681 -0.171540 0
M  V30 35 H 3.328409 -3.151938 3.644357 0
M  V30 36 H 4.752098 -2.179691 3.055348 0
M  V30 37 H 3.714923 -3.061679 1.887103 0
M  V30 38 H 3.239965 -0.650090 1.922257 0
M  V30 39 H 2.843561 -0.699004 3.660859 0
M  V30 40 H 1.836900 1.676651 4.453125 0
M  V30 41 H 3.902129 3.091330 4.423965 0
M  V30 42 H 4.922215 3.767653 2.346051 0
M  V30 43 H 3.859984 3.027502 0.203042 0
M  V30 44 H 1.881448 1.673874 0.213892 0
M  V30 45 H 0.195497 3.376233 2.269234 0
M  V30 46 H -4.060323 3.393204 1.509919 0
M  V30 47 H -4.043601 0.999689 1.436903 0
M  V30 48 H -0.208781 -3.230404 2.353584 0
M  V30 49 H -1.985125 -2.948425 1.960228 0
M  V30 50 H -2.344031 -2.090791 -0.810956 0
M  V30 51 H -4.476529 -4.053186 -3.430140 0
M  V30 52 H -3.561543 -3.892544 -1.900028 0
M  V30 53 H -4.486098 -2.504356 -2.542752 0
M  V30 54 H -3.940997 -1.907415 -4.994682 0
M  V30 55 H -3.078851 -3.417950 -5.630812 0
M  V30 56 H -2.230297 -1.831252 -5.398155 0
M  V30 57 H 1.747846 -3.489036 -3.107302 0
M  V30 58 H 0.743791 -4.999862 -3.075291 0
M  V30 59 H 2.113057 -4.829003 -1.972678 0
M  V30 END ATOM
M  V30 BEGIN BOND
M  V30 1 1 1 2
M  V30 2 1 2 3
M  V30 3 2 3 4
M  V30 4 1 3 5
M  V30 5 2 5 6
M  V30 6 1 6 7
M  V30 7 2 7 8
M  V30 8 1 8 9
M  V30 9 2 9 10
M  V30 10 1 10 11
M  V30 11 2 11 12
M  V30 12 1 6 13
M  V30 13 2 13 14
M  V30 14 1 14 15
M  V30 15 1 15 16
M  V30 16 2 15 17
M  V30 17 1 17 18
M  V30 18 2 18 19
M  V30 19 1 19 20
M  V30 20 2 20 21
M  V30 21 1 20 22
M  V30 22 1 22 23
M  V30 23 1 23 24
M  V30 24 1 24 25
M  V30 25 2 25 26
M  V30 26 1 26 27
M  V30 27 2 27 28
M  V30 28 1 27 29
M  V30 29 1 29 30
M  V30 30 1 29 31
M  V30 31 1 26 32
M  V30 32 1 32 33
M  V30 33 1 32 34
M  V30 34 1 22 5
M  V30 35 2 34 24
M  V30 36 1 12 7
M  V30 37 1 19 13
M  V30 38 1 1 35
M  V30 39 1 1 36
M  V30 40 1 1 37
M  V30 41 1 2 38
M  V30 42 1 2 39
M  V30 43 1 8 40
M  V30 44 1 9 41
M  V30 45 1 10 42
M  V30 46 1 11 43
M  V30 47 1 12 44
M  V30 48 1 14 45
M  V30 49 1 17 46
M  V30 50 1 18 47
M  V30 51 1 23 48
M  V30 52 1 23 49
M  V30 53 1 25 50
M  V30 54 1 30 51
M  V30 55 1 30 52
M  V30 56 1 30 53
M  V30 57 1 31 54
M  V30 58 1 31 55
M  V30 59 1 31 56
M  V30 60 1 33 57
M  V30 61 1 33 58
M  V30 62 1 33 59
M  V30 END BOND
M  V30 END CTAB
M  END
>  <Dataset>  (575) 
ChEMBL_Kinases

>  <Ligand_Instance>  (575) 
nan

>  <PDB_ID>  (575) 
nan

>  <Standardized_SMILES>  (575) 
CCC(=O)c1c(-c2ccccc2)c2cc(Cl)ccc2c(=O)n1Cc1cc(C(=O)N(C)C)n(C)n1

>  <Name>  (575) 
nan

>  <Pocket>  (575) 
nan

>  <ATP_Site>  (575) 
nan

>  <Peripheral>  (575) 
nan

>  <Num_H_Atoms_ProtBoundConf>  (575) 
nan

>  <Num_Resolved_Atoms>  (575) 
nan

>  <Num_Not_Resolved_Atoms>  (575) 
nan

$$$$
CHEMBL258247
     RDKit          3D

  0  0  0  0  0  0  0  0  0  0999 V3000
M  V30 BEGIN CTAB
M  V30 COUNTS 48 51 0 0 0
M  V30 BEGIN ATOM
M  V30 1 C 2.205915 -6.606649 -2.437463 0
M  V30 2 N 2.148592 -5.173193 -2.189368 0
M  V30 3 C 3.158282 -4.255351 -2.593050 0
M  V30 4 O 4.187821 -4.641988 -3.205153 0
M  V30 5 C 3.054850 -2.825613 -2.320714 0
M  V30 6 C 4.075487 -1.999376 -2.744016 0
M  V30 7 C 4.047538 -0.627386 -2.520927 0
M  V30 8 C 2.969952 -0.063272 -1.856151 0
M  V30 9 C 3.032443 1.401758 -1.667927 0
M  V30 10 C 1.940371 -0.874677 -1.425758 0
M  V30 11 N 0.852564 -0.265987 -0.748331 0
M  V30 12 C 0.735432 -0.051470 0.679840 0
M  V30 13 C -0.584283 0.615751 0.850276 0
M  V30 14 N -1.262431 1.063884 1.885546 0
M  V30 15 C -2.290360 1.571540 1.903524 0
M  V30 16 N -3.258039 2.147712 2.809406 0
M  V30 17 C -2.711055 2.025995 4.145498 0
M  V30 18 C -2.445236 0.612818 4.566393 0
M  V30 19 C -3.607129 0.176820 5.422018 0
M  V30 20 C -4.424497 1.399151 5.730485 0
M  V30 21 C -3.740072 2.586659 5.098196 0
M  V30 22 S -2.711013 1.573135 0.048057 0
M  V30 23 C -1.198089 0.780489 -0.390058 0
M  V30 24 C -0.280883 0.213484 -1.447008 0
M  V30 25 O -0.638503 0.257494 -2.639546 0
M  V30 26 C 1.994326 -2.239623 -1.661773 0
M  V30 27 H 2.984824 -6.883360 -3.178440 0
M  V30 28 H 2.295251 -7.168131 -1.478276 0
M  V30 29 H 1.221272 -6.907861 -2.880551 0
M  V30 30 H 1.295575 -4.852487 -1.682167 0
M  V30 31 H 4.958499 -2.384392 -3.277029 0
M  V30 32 H 4.886408 -0.015984 -2.879130 0
M  V30 33 H 2.656034 1.951980 -2.578961 0
M  V30 34 H 2.443863 1.753690 -0.821943 0
M  V30 35 H 4.091419 1.745334 -1.545013 0
M  V30 36 H 0.760493 -1.030548 1.237885 0
M  V30 37 H 1.579156 0.559222 1.070490 0
M  V30 38 H -4.154213 2.552164 2.478187 0
M  V30 39 H -1.751407 2.592227 4.196552 0
M  V30 40 H -2.280686 -0.061814 3.725583 0
M  V30 41 H -1.543360 0.552231 5.238162 0
M  V30 42 H -4.203160 -0.548972 4.829435 0
M  V30 43 H -3.291154 -0.288983 6.387581 0
M  V30 44 H -5.471624 1.265792 5.411269 0
M  V30 45 H -4.479359 1.584038 6.838715 0
M  V30 46 H -3.226194 3.213207 5.855096 0
M  V30 47 H -4.472199 3.252132 4.578548 0
M  V30 48 H 1.192602 -2.848805 -1.323266 0
M  V30 END ATOM
M  V30 BEGIN BOND
M  V30 1 1 1 2
M  V30 2 1 2 3
M  V30 3 2 3 4
M  V30 4 1 3 5
M  V30 5 2 5 6
M  V30 6 1 6 7
M  V30 7 2 7 8
M  V30 8 1 8 9
M  V30 9 1 8 10
M  V30 10 1 10 11
M  V30 11 1 11 12
M  V30 12 1 12 13
M  V30 13 1 13 14
M  V30 14 2 14 15
M  V30 15 1 15 16
M  V30 16 1 16 17
M  V30 17 1 17 18
M  V30 18 1 18 19
M  V30 19 1 19 20
M  V30 20 1 20 21
M  V30 21 1 15 22
M  V30 22 1 22 23
M  V30 23 1 23 24
M  V30 24 2 24 25
M  V30 25 2 10 26
M  V30 26 1 26 5
M  V30 27 1 24 11
M  V30 28 2 23 13
M  V30 29 1 21 17
M  V30 30 1 1 27
M  V30 31 1 1 28
M  V30 32 1 1 29
M  V30 33 1 2 30
M  V30 34 1 6 31
M  V30 35 1 7 32
M  V30 36 1 9 33
M  V30 37 1 9 34
M  V30 38 1 9 35
M  V30 39 1 12 36
M  V30 40 1 12 37
M  V30 41 1 16 38
M  V30 42 1 17 39
M  V30 43 1 18 40
M  V30 44 1 18 41
M  V30 45 1 19 42
M  V30 46 1 19 43
M  V30 47 1 20 44
M  V30 48 1 20 45
M  V30 49 1 21 46
M  V30 50 1 21 47
M  V30 51 1 26 48
M  V30 END BOND
M  V30 END CTAB
M  END
>  <Dataset>  (576) 
ChEMBL_Kinases

>  <Ligand_Instance>  (576) 
nan

>  <PDB_ID>  (576) 
nan

>  <Standardized_SMILES>  (576) 
CNC(=O)c1ccc(C)c(N2Cc3nc(NC4CCCC4)sc3C2=O)c1

>  <Name>  (576) 
nan

>  <Pocket>  (576) 
nan

>  <ATP_Site>  (576) 
nan

>  <Peripheral>  (576) 
nan

>  <Num_H_Atoms_ProtBoundConf>  (576) 
nan

>  <Num_Resolved_Atoms>  (576) 
nan

>  <Num_Not_Resolved_Atoms>  (576) 
nan

$$$$
CHEMBL258259
     RDKit          3D

  0  0  0  0  0  0  0  0  0  0999 V3000
M  V30 BEGIN CTAB
M  V30 COUNTS 48 52 0 0 0
M  V30 BEGIN ATOM
M  V30 1 N 1.618978 -1.215740 3.140294 0
M  V30 2 C 2.868363 -0.529450 3.188647 0
M  V30 3 N 3.746456 -0.714646 4.189720 0
M  V30 4 C 4.928788 -0.072513 4.245347 0
M  V30 5 N 5.218927 0.782840 3.247493 0
M  V30 6 C 4.367418 0.998682 2.224340 0
M  V30 7 O 4.468668 1.771153 1.190127 0
M  V30 8 C 3.419425 1.699629 0.419525 0
M  V30 9 C 3.017276 2.331744 -0.832999 0
M  V30 10 C 2.783304 1.560217 -1.976790 0
M  V30 11 C 2.403344 2.189589 -3.157278 0
M  V30 12 C 2.281352 3.561198 -3.115914 0
M  V30 13 N 2.503913 4.318914 -2.019914 0
M  V30 14 C 2.875372 3.700319 -0.866757 0
M  V30 15 C 2.515780 0.788571 0.985570 0
M  V30 16 C 1.192817 0.246190 0.678165 0
M  V30 17 C 1.210928 -1.025406 0.117237 0
M  V30 18 C -0.045507 -1.572109 -0.184602 0
M  V30 19 C -1.206397 -0.870803 0.069743 0
M  V30 20 N -2.463738 -1.494562 -0.269049 0
M  V30 21 C -2.865769 -2.248322 0.893009 0
M  V30 22 O -1.996455 -2.121259 1.822955 0
M  V30 23 C -4.106991 -3.046780 0.978369 0
M  V30 24 C -5.042340 -3.166693 -0.017798 0
M  V30 25 C -6.143801 -3.958424 0.233293 0
M  V30 26 C -6.336459 -4.630216 1.444818 0
M  V30 27 C -5.363603 -4.469937 2.402376 0
M  V30 28 F -5.501540 -5.101025 3.600385 0
M  V30 29 C -4.250420 -3.690457 2.194573 0
M  V30 30 C -1.153371 0.387451 0.628811 0
M  V30 31 C 0.051767 0.973793 0.945146 0
M  V30 32 C 3.138503 0.343151 2.149579 0
M  V30 33 H 1.424751 -2.178910 2.782994 0
M  V30 34 H 0.963657 -0.517423 3.546892 0
M  V30 35 H 5.538420 -0.313956 5.104681 0
M  V30 36 H 2.889201 0.490673 -1.967774 0
M  V30 37 H 2.206470 1.652142 -4.076770 0
M  V30 38 H 1.983752 4.055308 -4.041532 0
M  V30 39 H 3.063168 4.263253 0.031109 0
M  V30 40 H 2.128836 -1.562358 -0.077233 0
M  V30 41 H -0.046059 -2.565248 -0.623826 0
M  V30 42 H -3.119253 -1.531825 -1.105927 0
M  V30 43 H -4.859457 -2.640670 -0.920959 0
M  V30 44 H -6.900649 -4.072660 -0.534832 0
M  V30 45 H -7.215490 -5.242848 1.604495 0
M  V30 46 H -3.523686 -3.618770 3.010899 0
M  V30 47 H -2.070112 0.931065 0.826939 0
M  V30 48 H 0.145492 1.959923 1.387151 0
M  V30 END ATOM
M  V30 BEGIN BOND
M  V30 1 1 1 2
M  V30 2 2 2 3
M  V30 3 1 3 4
M  V30 4 2 4 5
M  V30 5 1 5 6
M  V30 6 1 6 7
M  V30 7 1 7 8
M  V30 8 1 8 9
M  V30 9 2 9 10
M  V30 10 1 10 11
M  V30 11 2 11 12
M  V30 12 1 12 13
M  V30 13 2 13 14
M  V30 14 2 8 15
M  V30 15 1 15 16
M  V30 16 2 16 17
M  V30 17 1 17 18
M  V30 18 2 18 19
M  V30 19 1 19 20
M  V30 20 1 20 21
M  V30 21 2 21 22
M  V30 22 1 21 23
M  V30 23 2 23 24
M  V30 24 1 24 25
M  V30 25 2 25 26
M  V30 26 1 26 27
M  V30 27 1 27 28
M  V30 28 2 27 29
M  V30 29 1 19 30
M  V30 30 2 30 31
M  V30 31 1 15 32
M  V30 32 1 32 2
M  V30 33 2 32 6
M  V30 34 1 14 9
M  V30 35 1 31 16
M  V30 36 1 29 23
M  V30 37 1 1 33
M  V30 38 1 1 34
M  V30 39 1 4 35
M  V30 40 1 10 36
M  V30 41 1 11 37
M  V30 42 1 12 38
M  V30 43 1 14 39
M  V30 44 1 17 40
M  V30 45 1 18 41
M  V30 46 1 20 42
M  V30 47 1 24 43
M  V30 48 1 25 44
M  V30 49 1 26 45
M  V30 50 1 29 46
M  V30 51 1 30 47
M  V30 52 1 31 48
M  V30 END BOND
M  V30 END CTAB
M  END
>  <Dataset>  (577) 
ChEMBL_Kinases

>  <Ligand_Instance>  (577) 
nan

>  <PDB_ID>  (577) 
nan

>  <Standardized_SMILES>  (577) 
Nc1ncnc2oc(-c3cccnc3)c(-c3ccc(NC(=O)c4cccc(F)c4)cc3)c12

>  <Name>  (577) 
nan

>  <Pocket>  (577) 
nan

>  <ATP_Site>  (577) 
nan

>  <Peripheral>  (577) 
nan

>  <Num_H_Atoms_ProtBoundConf>  (577) 
nan

>  <Num_Resolved_Atoms>  (577) 
nan

>  <Num_Not_Resolved_Atoms>  (577) 
nan

$$$$
CHEMBL25829
     RDKit          3D

  0  0  0  0  0  0  0  0  0  0999 V3000
M  V30 BEGIN CTAB
M  V30 COUNTS 21 21 0 0 0
M  V30 BEGIN ATOM
M  V30 1 C 2.020363 2.758410 2.282204 0
M  V30 2 C 1.031560 1.737052 2.713679 0
M  V30 3 N 1.029867 0.626257 1.829622 0
M  V30 4 S 2.107835 -0.719877 2.157050 0
M  V30 5 C 1.548529 -1.698713 0.655363 0
M  V30 6 O 1.897076 -2.797471 0.234429 0
M  V30 7 N 0.608425 -0.854407 0.107999 0
M  V30 8 C -0.095613 -1.237910 -1.114099 0
M  V30 9 C -1.352870 -1.998802 -0.853482 0
M  V30 10 C 0.371358 0.309271 0.724985 0
M  V30 11 O -0.455764 1.173040 0.339558 0
M  V30 12 H 2.404190 3.277944 3.194363 0
M  V30 13 H 1.599312 3.499632 1.573662 0
M  V30 14 H 2.892249 2.304990 1.769637 0
M  V30 15 H 0.005974 2.206116 2.651628 0
M  V30 16 H 1.191681 1.428295 3.745906 0
M  V30 17 H -0.323377 -0.344122 -1.738494 0
M  V30 18 H 0.573976 -1.861726 -1.733348 0
M  V30 19 H -1.500511 -2.738725 -1.645237 0
M  V30 20 H -2.227800 -1.311725 -0.888024 0
M  V30 21 H -1.278622 -2.472363 0.161155 0
M  V30 END ATOM
M  V30 BEGIN BOND
M  V30 1 1 1 2
M  V30 2 1 2 3
M  V30 3 1 3 4
M  V30 4 1 4 5
M  V30 5 2 5 6
M  V30 6 1 5 7
M  V30 7 1 7 8
M  V30 8 1 8 9
M  V30 9 1 7 10
M  V30 10 2 10 11
M  V30 11 1 10 3
M  V30 12 1 1 12
M  V30 13 1 1 13
M  V30 14 1 1 14
M  V30 15 1 2 15
M  V30 16 1 2 16
M  V30 17 1 8 17
M  V30 18 1 8 18
M  V30 19 1 9 19
M  V30 20 1 9 20
M  V30 21 1 9 21
M  V30 END BOND
M  V30 END CTAB
M  END
>  <Dataset>  (578) 
ChEMBL_Kinases

>  <Ligand_Instance>  (578) 
nan

>  <PDB_ID>  (578) 
nan

>  <Standardized_SMILES>  (578) 
CCn1sc(=O)n(CC)c1=O

>  <Name>  (578) 
nan

>  <Pocket>  (578) 
nan

>  <ATP_Site>  (578) 
nan

>  <Peripheral>  (578) 
nan

>  <Num_H_Atoms_ProtBoundConf>  (578) 
nan

>  <Num_Resolved_Atoms>  (578) 
nan

>  <Num_Not_Resolved_Atoms>  (578) 
nan

$$$$
CHEMBL258403
     RDKit          3D

  0  0  0  0  0  0  0  0  0  0999 V3000
M  V30 BEGIN CTAB
M  V30 COUNTS 34 36 0 0 0
M  V30 BEGIN ATOM
M  V30 1 C 2.313894 -2.369535 2.917967 0
M  V30 2 C 2.736505 -3.065087 1.669041 0
M  V30 3 C 3.327322 -4.318352 1.618092 0
M  V30 4 C 3.681556 -4.873029 0.400126 0
M  V30 5 C 3.451758 -4.187746 -0.774090 0
M  V30 6 C 2.862679 -2.936416 -0.733872 0
M  V30 7 Cl 2.571598 -2.067020 -2.229540 0
M  V30 8 C 2.504232 -2.374520 0.494868 0
M  V30 9 N 1.895620 -1.065366 0.437948 0
M  V30 10 C 0.502045 -0.962721 0.325202 0
M  V30 11 O -0.346548 -1.886926 0.262539 0
M  V30 12 C 0.010704 0.411951 0.277322 0
M  V30 13 C 0.396405 1.692137 0.300585 0
M  V30 14 N -0.486280 2.654016 0.223720 0
M  V30 15 C -1.638792 2.554182 0.131575 0
M  V30 16 N -2.822464 3.357438 0.038167 0
M  V30 17 C -4.200634 3.012094 -0.083152 0
M  V30 18 C -4.849550 2.159779 0.947409 0
M  V30 19 C -4.738932 1.733497 -0.532607 0
M  V30 20 S -1.839296 0.665811 0.126922 0
M  V30 21 H 2.780066 -1.343922 2.931667 0
M  V30 22 H 1.207927 -2.331758 2.904210 0
M  V30 23 H 2.650016 -2.936675 3.815466 0
M  V30 24 H 3.482557 -4.809085 2.579012 0
M  V30 25 H 4.143681 -5.870182 0.462196 0
M  V30 26 H 3.746145 -4.662062 -1.705714 0
M  V30 27 H 2.539985 -0.247245 0.484820 0
M  V30 28 H 1.467031 1.822824 0.385940 0
M  V30 29 H -2.524325 4.361163 0.074835 0
M  V30 30 H -4.831596 3.913369 -0.358611 0
M  V30 31 H -5.885589 2.328816 1.285703 0
M  V30 32 H -4.233692 1.537890 1.644663 0
M  V30 33 H -4.167497 0.824267 -0.753650 0
M  V30 34 H -5.708141 1.734928 -1.110516 0
M  V30 END ATOM
M  V30 BEGIN BOND
M  V30 1 1 1 2
M  V30 2 2 2 3
M  V30 3 1 3 4
M  V30 4 2 4 5
M  V30 5 1 5 6
M  V30 6 1 6 7
M  V30 7 2 6 8
M  V30 8 1 8 9
M  V30 9 1 9 10
M  V30 10 2 10 11
M  V30 11 1 10 12
M  V30 12 2 12 13
M  V30 13 1 13 14
M  V30 14 2 14 15
M  V30 15 1 15 16
M  V30 16 1 16 17
M  V30 17 1 17 18
M  V30 18 1 18 19
M  V30 19 1 15 20
M  V30 20 1 8 2
M  V30 21 1 20 12
M  V30 22 1 19 17
M  V30 23 1 1 21
M  V30 24 1 1 22
M  V30 25 1 1 23
M  V30 26 1 3 24
M  V30 27 1 4 25
M  V30 28 1 5 26
M  V30 29 1 9 27
M  V30 30 1 13 28
M  V30 31 1 16 29
M  V30 32 1 17 30
M  V30 33 1 18 31
M  V30 34 1 18 32
M  V30 35 1 19 33
M  V30 36 1 19 34
M  V30 END BOND
M  V30 END CTAB
M  END
>  <Dataset>  (579) 
ChEMBL_Kinases

>  <Ligand_Instance>  (579) 
nan

>  <PDB_ID>  (579) 
nan

>  <Standardized_SMILES>  (579) 
Cc1cccc(Cl)c1NC(=O)c1cnc(NC2CC2)s1

>  <Name>  (579) 
nan

>  <Pocket>  (579) 
nan

>  <ATP_Site>  (579) 
nan

>  <Peripheral>  (579) 
nan

>  <Num_H_Atoms_ProtBoundConf>  (579) 
nan

>  <Num_Resolved_Atoms>  (579) 
nan

>  <Num_Not_Resolved_Atoms>  (579) 
nan

$$$$
CHEMBL258418
     RDKit          3D

  0  0  0  0  0  0  0  0  0  0999 V3000
M  V30 BEGIN CTAB
M  V30 COUNTS 44 45 0 0 0
M  V30 BEGIN ATOM
M  V30 1 C 3.637894 -6.296655 -1.944024 0
M  V30 2 N 3.149814 -4.933495 -1.756525 0
M  V30 3 C 2.588763 -4.284189 -2.891122 0
M  V30 4 O 2.573774 -4.965238 -3.949011 0
M  V30 5 C 2.048647 -2.929312 -2.909600 0
M  V30 6 C 1.552180 -2.496351 -4.121314 0
M  V30 7 C 1.015356 -1.209779 -4.227956 0
M  V30 8 C 1.008672 -0.420388 -3.091951 0
M  V30 9 C 0.450923 0.942824 -3.163762 0
M  V30 10 C 1.515242 -0.873535 -1.872320 0
M  V30 11 N 1.463575 0.025851 -0.742030 0
M  V30 12 C 0.300300 -0.053850 0.031306 0
M  V30 13 O -0.699357 -0.798833 -0.125250 0
M  V30 14 C 0.279804 0.883999 1.184987 0
M  V30 15 C 1.042456 1.812239 1.741270 0
M  V30 16 N 0.577837 2.407735 2.811610 0
M  V30 17 C -0.402072 2.246563 3.348903 0
M  V30 18 N -1.207041 2.701636 4.503473 0
M  V30 19 C -2.505125 2.166502 4.824396 0
M  V30 20 C -3.106509 2.794264 6.036854 0
M  V30 21 O -2.381935 2.657337 7.198564 0
M  V30 22 C -2.225769 1.328836 7.502168 0
M  V30 23 S -1.199669 0.883425 2.290864 0
M  V30 24 C 2.045667 -2.148556 -1.772522 0
M  V30 25 H 4.365572 -6.591174 -1.177698 0
M  V30 26 H 2.767808 -6.991967 -1.998834 0
M  V30 27 H 4.152284 -6.370510 -2.929056 0
M  V30 28 H 3.177412 -4.397117 -0.864515 0
M  V30 29 H 1.539247 -3.080847 -5.029020 0
M  V30 30 H 0.619026 -0.839650 -5.159240 0
M  V30 31 H 0.312321 1.253228 -4.220132 0
M  V30 32 H -0.565404 1.007662 -2.697227 0
M  V30 33 H 1.089154 1.708382 -2.682350 0
M  V30 34 H 2.253517 0.676429 -0.543239 0
M  V30 35 H 1.998660 1.992731 1.245151 0
M  V30 36 H -0.668662 3.441455 4.999218 0
M  V30 37 H -2.533299 1.067176 4.939307 0
M  V30 38 H -3.196840 2.381713 3.959902 0
M  V30 39 H -4.128943 2.391040 6.249853 0
M  V30 40 H -3.289766 3.891175 5.832025 0
M  V30 41 H -1.636599 1.282529 8.461807 0
M  V30 42 H -3.181511 0.799050 7.696215 0
M  V30 43 H -1.636354 0.765304 6.719118 0
M  V30 44 H 2.436836 -2.498458 -0.830706 0
M  V30 END ATOM
M  V30 BEGIN BOND
M  V30 1 1 1 2
M  V30 2 1 2 3
M  V30 3 2 3 4
M  V30 4 1 3 5
M  V30 5 2 5 6
M  V30 6 1 6 7
M  V30 7 2 7 8
M  V30 8 1 8 9
M  V30 9 1 8 10
M  V30 10 1 10 11
M  V30 11 1 11 12
M  V30 12 2 12 13
M  V30 13 1 12 14
M  V30 14 2 14 15
M  V30 15 1 15 16
M  V30 16 2 16 17
M  V30 17 1 17 18
M  V30 18 1 18 19
M  V30 19 1 19 20
M  V30 20 1 20 21
M  V30 21 1 21 22
M  V30 22 1 17 23
M  V30 23 2 10 24
M  V30 24 1 24 5
M  V30 25 1 23 14
M  V30 26 1 1 25
M  V30 27 1 1 26
M  V30 28 1 1 27
M  V30 29 1 2 28
M  V30 30 1 6 29
M  V30 31 1 7 30
M  V30 32 1 9 31
M  V30 33 1 9 32
M  V30 34 1 9 33
M  V30 35 1 11 34
M  V30 36 1 15 35
M  V30 37 1 18 36
M  V30 38 1 19 37
M  V30 39 1 19 38
M  V30 40 1 20 39
M  V30 41 1 20 40
M  V30 42 1 22 41
M  V30 43 1 22 42
M  V30 44 1 22 43
M  V30 45 1 24 44
M  V30 END BOND
M  V30 END CTAB
M  END
>  <Dataset>  (580) 
ChEMBL_Kinases

>  <Ligand_Instance>  (580) 
nan

>  <PDB_ID>  (580) 
nan

>  <Standardized_SMILES>  (580) 
CNC(=O)c1ccc(C)c(NC(=O)c2cnc(NCCOC)s2)c1

>  <Name>  (580) 
nan

>  <Pocket>  (580) 
nan

>  <ATP_Site>  (580) 
nan

>  <Peripheral>  (580) 
nan

>  <Num_H_Atoms_ProtBoundConf>  (580) 
nan

>  <Num_Resolved_Atoms>  (580) 
nan

>  <Num_Not_Resolved_Atoms>  (580) 
nan

$$$$
CHEMBL258457
     RDKit          3D

  0  0  0  0  0  0  0  0  0  0999 V3000
M  V30 BEGIN CTAB
M  V30 COUNTS 50 53 0 0 0
M  V30 BEGIN ATOM
M  V30 1 C -0.127370 0.301805 -3.986177 0
M  V30 2 O -0.609784 0.031235 -2.709716 0
M  V30 3 C 0.045378 0.324709 -1.534638 0
M  V30 4 O 1.093067 0.851975 -1.969834 0
M  V30 5 C -0.182899 0.176442 -0.115150 0
M  V30 6 C 0.833424 0.653866 0.672484 0
M  V30 7 C 2.053230 1.269075 0.169973 0
M  V30 8 C 2.236633 2.610713 -0.079346 0
M  V30 9 C 3.444069 3.095159 -0.559481 0
M  V30 10 C 4.485094 2.196891 -0.790391 0
M  V30 11 C 4.324595 0.846716 -0.547713 0
M  V30 12 C 3.102905 0.393559 -0.067058 0
M  V30 13 C 0.659769 0.528042 2.056144 0
M  V30 14 C 1.668995 1.000233 2.900368 0
M  V30 15 C 1.546005 0.899542 4.275691 0
M  V30 16 Br 2.908563 1.535808 5.458487 0
M  V30 17 C 0.418947 0.328162 4.842230 0
M  V30 18 C -0.564293 -0.130878 3.985821 0
M  V30 19 C -0.466380 -0.042577 2.612210 0
M  V30 20 C -1.439741 -0.496386 1.745935 0
M  V30 21 O -2.443045 -1.006372 2.308073 0
M  V30 22 N -1.290741 -0.383597 0.394426 0
M  V30 23 C -2.346177 -0.881657 -0.445567 0
M  V30 24 C -2.140220 -2.338892 -0.845569 0
M  V30 25 C -2.083755 -3.222639 0.338305 0
M  V30 26 C -3.221255 -3.819326 0.885358 0
M  V30 27 C -3.189715 -4.647221 1.987112 0
M  V30 28 C -1.981122 -4.906716 2.587657 0
M  V30 29 C -0.850024 -4.308895 2.037746 0
M  V30 30 C -0.847659 -3.476901 0.937785 0
M  V30 31 H 0.525364 -0.471023 -4.403200 0
M  V30 32 H 0.415028 1.290596 -3.954333 0
M  V30 33 H -0.998110 0.513830 -4.674933 0
M  V30 34 H 1.382883 3.219275 0.127841 0
M  V30 35 H 3.551905 4.161336 -0.744651 0
M  V30 36 H 5.429248 2.587258 -1.167441 0
M  V30 37 H 5.169811 0.181143 -0.744057 0
M  V30 38 H 3.024816 -0.662797 0.106581 0
M  V30 39 H 2.589763 1.464674 2.518421 0
M  V30 40 H 0.287476 0.231909 5.922410 0
M  V30 41 H -1.457700 -0.582899 4.403874 0
M  V30 42 H -2.438053 -0.236697 -1.335278 0
M  V30 43 H -3.309195 -0.777576 0.117686 0
M  V30 44 H -3.013021 -2.675196 -1.440302 0
M  V30 45 H -1.181276 -2.471048 -1.381638 0
M  V30 46 H -4.164204 -3.597207 0.390803 0
M  V30 47 H -4.137560 -5.052890 2.321891 0
M  V30 48 H -1.935921 -5.547728 3.445126 0
M  V30 49 H 0.071795 -4.557144 2.562368 0
M  V30 50 H 0.051978 -3.041127 0.552929 0
M  V30 END ATOM
M  V30 BEGIN BOND
M  V30 1 1 1 2
M  V30 2 1 2 3
M  V30 3 2 3 4
M  V30 4 1 3 5
M  V30 5 2 5 6
M  V30 6 1 6 7
M  V30 7 2 7 8
M  V30 8 1 8 9
M  V30 9 2 9 10
M  V30 10 1 10 11
M  V30 11 2 11 12
M  V30 12 1 6 13
M  V30 13 2 13 14
M  V30 14 1 14 15
M  V30 15 1 15 16
M  V30 16 2 15 17
M  V30 17 1 17 18
M  V30 18 2 18 19
M  V30 19 1 19 20
M  V30 20 2 20 21
M  V30 21 1 20 22
M  V30 22 1 22 23
M  V30 23 1 23 24
M  V30 24 1 24 25
M  V30 25 2 25 26
M  V30 26 1 26 27
M  V30 27 2 27 28
M  V30 28 1 28 29
M  V30 29 2 29 30
M  V30 30 1 22 5
M  V30 31 1 30 25
M  V30 32 1 12 7
M  V30 33 1 19 13
M  V30 34 1 1 31
M  V30 35 1 1 32
M  V30 36 1 1 33
M  V30 37 1 8 34
M  V30 38 1 9 35
M  V30 39 1 10 36
M  V30 40 1 11 37
M  V30 41 1 12 38
M  V30 42 1 14 39
M  V30 43 1 17 40
M  V30 44 1 18 41
M  V30 45 1 23 42
M  V30 46 1 23 43
M  V30 47 1 24 44
M  V30 48 1 24 45
M  V30 49 1 26 46
M  V30 50 1 27 47
M  V30 51 1 28 48
M  V30 52 1 29 49
M  V30 53 1 30 50
M  V30 END BOND
M  V30 END CTAB
M  END
>  <Dataset>  (581) 
ChEMBL_Kinases

>  <Ligand_Instance>  (581) 
nan

>  <PDB_ID>  (581) 
nan

>  <Standardized_SMILES>  (581) 
COC(=O)c1c(-c2ccccc2)c2cc(Br)ccc2c(=O)n1CCc1ccccc1

>  <Name>  (581) 
nan

>  <Pocket>  (581) 
nan

>  <ATP_Site>  (581) 
nan

>  <Peripheral>  (581) 
nan

>  <Num_H_Atoms_ProtBoundConf>  (581) 
nan

>  <Num_Resolved_Atoms>  (581) 
nan

>  <Num_Not_Resolved_Atoms>  (581) 
nan

$$$$
CHEMBL258483
     RDKit          3D

  0  0  0  0  0  0  0  0  0  0999 V3000
M  V30 BEGIN CTAB
M  V30 COUNTS 41 44 0 0 0
M  V30 BEGIN ATOM
M  V30 1 O -1.706214 -1.530346 2.380591 0
M  V30 2 C -0.571169 -1.910073 2.826782 0
M  V30 3 N 0.369289 -2.701459 2.138549 0
M  V30 4 C -0.132903 -3.036527 0.825767 0
M  V30 5 N -0.859963 -4.132476 0.582220 0
M  V30 6 N -1.192167 -4.197373 -0.706831 0
M  V30 7 C -0.675060 -3.123059 -1.330914 0
M  V30 8 N -0.680437 -2.657811 -2.609116 0
M  V30 9 C -0.044079 -1.502468 -2.922923 0
M  V30 10 C 0.630697 -0.754868 -1.968863 0
M  V30 11 C 1.287271 0.479234 -2.397915 0
M  V30 12 C 2.429866 0.993821 -1.832959 0
M  V30 13 C 3.015558 2.165057 -2.270546 0
M  V30 14 C 2.409024 2.835951 -3.326712 0
M  V30 15 C 1.269761 2.375715 -3.932326 0
M  V30 16 C 0.716796 1.189744 -3.455130 0
M  V30 17 C 0.661719 -1.191169 -0.656244 0
M  V30 18 C -0.004349 -2.380381 -0.381338 0
M  V30 19 C -0.375450 -1.393722 4.194639 0
M  V30 20 C -1.522977 -0.583690 4.694237 0
M  V30 21 C -0.938253 0.690197 5.299703 0
M  V30 22 C 0.473930 0.221715 5.628653 0
M  V30 23 C 0.812428 -0.466399 4.309544 0
M  V30 24 H 1.265738 -2.948344 2.608268 0
M  V30 25 H -1.747890 -4.903614 -1.246063 0
M  V30 26 H -0.120549 -1.232456 -3.986361 0
M  V30 27 H 2.840148 0.399330 -1.005450 0
M  V30 28 H 3.916016 2.492704 -1.762906 0
M  V30 29 H 2.883038 3.767586 -3.667807 0
M  V30 30 H 0.803067 2.913715 -4.762412 0
M  V30 31 H -0.175919 0.872091 -3.964999 0
M  V30 32 H 1.184333 -0.619039 0.099396 0
M  V30 33 H -0.179799 -2.214467 4.924386 0
M  V30 34 H -2.079609 -1.089409 5.522095 0
M  V30 35 H -2.202539 -0.259288 3.872518 0
M  V30 36 H -1.490158 1.050615 6.169176 0
M  V30 37 H -0.825489 1.478090 4.508746 0
M  V30 38 H 0.385138 -0.562251 6.387639 0
M  V30 39 H 1.143812 1.044715 5.879901 0
M  V30 40 H 1.775372 -1.009671 4.361493 0
M  V30 41 H 0.804806 0.334032 3.528592 0
M  V30 END ATOM
M  V30 BEGIN BOND
M  V30 1 2 1 2
M  V30 2 1 2 3
M  V30 3 1 3 4
M  V30 4 2 4 5
M  V30 5 1 5 6
M  V30 6 1 6 7
M  V30 7 2 7 8
M  V30 8 1 8 9
M  V30 9 2 9 10
M  V30 10 1 10 11
M  V30 11 2 11 12
M  V30 12 1 12 13
M  V30 13 2 13 14
M  V30 14 1 14 15
M  V30 15 2 15 16
M  V30 16 1 10 17
M  V30 17 2 17 18
M  V30 18 1 2 19
M  V30 19 1 19 20
M  V30 20 1 20 21
M  V30 21 1 21 22
M  V30 22 1 22 23
M  V30 23 1 18 4
M  V30 24 1 23 19
M  V30 25 1 18 7
M  V30 26 1 16 11
M  V30 27 1 3 24
M  V30 28 1 6 25
M  V30 29 1 9 26
M  V30 30 1 12 27
M  V30 31 1 13 28
M  V30 32 1 14 29
M  V30 33 1 15 30
M  V30 34 1 16 31
M  V30 35 1 17 32
M  V30 36 1 19 33
M  V30 37 1 20 34
M  V30 38 1 20 35
M  V30 39 1 21 36
M  V30 40 1 21 37
M  V30 41 1 22 38
M  V30 42 1 22 39
M  V30 43 1 23 40
M  V30 44 1 23 41
M  V30 END BOND
M  V30 END CTAB
M  END
>  <Dataset>  (582) 
ChEMBL_Kinases

>  <Ligand_Instance>  (582) 
nan

>  <PDB_ID>  (582) 
nan

>  <Standardized_SMILES>  (582) 
O=C(Nc1n[nH]c2ncc(-c3ccccc3)cc12)C1CCCC1

>  <Name>  (582) 
nan

>  <Pocket>  (582) 
nan

>  <ATP_Site>  (582) 
nan

>  <Peripheral>  (582) 
nan

>  <Num_H_Atoms_ProtBoundConf>  (582) 
nan

>  <Num_Resolved_Atoms>  (582) 
nan

>  <Num_Not_Resolved_Atoms>  (582) 
nan

$$$$
CHEMBL25856
     RDKit          3D

  0  0  0  0  0  0  0  0  0  0999 V3000
M  V30 BEGIN CTAB
M  V30 COUNTS 37 40 0 0 0
M  V30 BEGIN ATOM
M  V30 1 O 3.200783 -3.581096 3.493747 0
M  V30 2 C 2.300466 -2.822399 2.755728 0
M  V30 3 C 1.227078 -3.391324 2.106472 0
M  V30 4 C 0.352754 -2.579059 1.378021 0
M  V30 5 C 0.554098 -1.203527 1.301333 0
M  V30 6 C 1.634691 -0.651398 1.958002 0
M  V30 7 C 2.491043 -1.459228 2.673445 0
M  V30 8 O 3.542691 -0.790671 3.292125 0
M  V30 9 C -0.508423 -0.598856 0.473332 0 CFG=1
M  V30 10 C -0.499487 0.835010 0.311957 0
M  V30 11 C -0.465991 1.606158 1.468176 0
M  V30 12 C -0.454995 2.979595 1.418031 0
M  V30 13 C -0.476722 3.667395 0.217864 0
M  V30 14 C -0.510554 2.937553 -0.958790 0
M  V30 15 C -0.521200 1.560163 -0.890572 0
M  V30 16 C -0.564112 0.733838 -2.152080 0
M  V30 17 N -1.110697 -0.576071 -1.888299 0
M  V30 18 C -0.410392 -1.295804 -0.880355 0 CFG=2
M  V30 19 C -0.728204 -2.755210 -0.776264 0
M  V30 20 C -0.810439 -3.221274 0.677059 0
M  V30 21 H 2.864019 -3.977133 4.371020 0
M  V30 22 H 1.109374 -4.469387 2.194201 0
M  V30 23 H 1.675350 0.418959 1.815451 0
M  V30 24 H 4.462710 -1.215992 3.411567 0
M  V30 25 H -1.503445 -0.917418 0.896619 0
M  V30 26 H -0.448162 1.264582 2.493108 0
M  V30 27 H -0.429296 3.652955 2.269411 0
M  V30 28 H -0.470496 4.737862 0.075028 0
M  V30 29 H -0.529626 3.383032 -1.949122 0
M  V30 30 H 0.487131 0.594541 -2.477426 0
M  V30 31 H -1.187664 1.209172 -2.933001 0
M  V30 32 H -1.247038 -1.102456 -2.764990 0
M  V30 33 H 0.686168 -1.243678 -1.147812 0
M  V30 34 H 0.042661 -3.400886 -1.255633 0
M  V30 35 H -1.684257 -3.039519 -1.305024 0
M  V30 36 H -0.686074 -4.322053 0.652549 0
M  V30 37 H -1.786099 -2.922801 1.118092 0
M  V30 END ATOM
M  V30 BEGIN BOND
M  V30 1 1 1 2
M  V30 2 2 2 3
M  V30 3 1 3 4
M  V30 4 2 4 5
M  V30 5 1 5 6
M  V30 6 2 6 7
M  V30 7 1 7 8
M  V30 8 1 5 9
M  V30 9 1 9 10
M  V30 10 2 10 11
M  V30 11 1 11 12
M  V30 12 2 12 13
M  V30 13 1 13 14
M  V30 14 2 14 15
M  V30 15 1 15 16
M  V30 16 1 16 17
M  V30 17 1 17 18
M  V30 18 1 18 19
M  V30 19 1 19 20
M  V30 20 1 7 2
M  V30 21 1 18 9
M  V30 22 1 20 4
M  V30 23 1 15 10
M  V30 24 1 1 21
M  V30 25 1 3 22
M  V30 26 1 6 23
M  V30 27 1 8 24
M  V30 28 1 9 25 CFG=1
M  V30 29 1 11 26
M  V30 30 1 12 27
M  V30 31 1 13 28
M  V30 32 1 14 29
M  V30 33 1 16 30
M  V30 34 1 16 31
M  V30 35 1 17 32
M  V30 36 1 18 33 CFG=3
M  V30 37 1 19 34
M  V30 38 1 19 35
M  V30 39 1 20 36
M  V30 40 1 20 37
M  V30 END BOND
M  V30 END CTAB
M  END
>  <Dataset>  (583) 
ChEMBL_Kinases

>  <Ligand_Instance>  (583) 
nan

>  <PDB_ID>  (583) 
nan

>  <Standardized_SMILES>  (583) 
Oc1cc2c(cc1O)[C@H]1c3ccccc3CN[C@@H]1CC2

>  <Name>  (583) 
DIHYDREXIDINE

>  <Pocket>  (583) 
nan

>  <ATP_Site>  (583) 
nan

>  <Peripheral>  (583) 
nan

>  <Num_H_Atoms_ProtBoundConf>  (583) 
nan

>  <Num_Resolved_Atoms>  (583) 
nan

>  <Num_Not_Resolved_Atoms>  (583) 
nan

$$$$
CHEMBL258223
     RDKit          3D

  0  0  0  0  0  0  0  0  0  0999 V3000
M  V30 BEGIN CTAB
M  V30 COUNTS 50 52 0 0 0
M  V30 BEGIN ATOM
M  V30 1 C -1.282742 -0.291928 3.894984 0
M  V30 2 C -0.182002 0.354204 3.159691 0
M  V30 3 C 0.450634 1.483988 3.636528 0
M  V30 4 C 1.477975 2.061200 2.919601 0
M  V30 5 C 1.933247 1.568561 1.714285 0
M  V30 6 C 3.010738 2.134926 0.915990 0
M  V30 7 O 3.324471 1.575546 -0.175325 0
M  V30 8 N 3.740004 3.288970 1.289582 0
M  V30 9 C 4.796486 3.876868 0.545379 0
M  V30 10 C 5.353731 3.506544 -0.654247 0
M  V30 11 C 6.375518 4.374920 -1.018415 0
M  V30 12 N 6.391495 5.258139 0.007438 0
M  V30 13 N 5.484282 4.972583 0.906587 0
M  V30 14 C 5.245630 5.724447 2.124121 0
M  V30 15 C 1.270896 0.439705 1.279092 0
M  V30 16 C 0.242126 -0.172560 1.956396 0
M  V30 17 N -0.395759 -1.353813 1.425728 0
M  V30 18 C -1.524154 -1.227723 0.567209 0
M  V30 19 O -1.929483 -0.093126 0.298009 0
M  V30 20 C -1.922221 -2.633285 0.212239 0
M  V30 21 C -3.002500 -2.754890 -0.617929 0
M  V30 22 N -3.570967 -3.862011 -1.092187 0
M  V30 23 C -2.854811 -4.987348 -0.585079 0
M  V30 24 N -3.057765 -6.390733 -0.790439 0
M  V30 25 C -4.174775 -6.596775 -1.651548 0
M  V30 26 C -5.462295 -6.017815 -1.077207 0
M  V30 27 C -3.960581 -6.149082 -3.068011 0
M  V30 28 S -1.471106 -4.274408 0.498229 0
M  V30 29 H -1.126358 -0.040243 4.968844 0
M  V30 30 H -1.340705 -1.377931 3.760237 0
M  V30 31 H -2.294415 0.104826 3.635049 0
M  V30 32 H 0.129035 1.912220 4.583107 0
M  V30 33 H 1.953925 2.945700 3.319305 0
M  V30 34 H 3.448356 3.715956 2.193733 0
M  V30 35 H 5.064105 2.661964 -1.260827 0
M  V30 36 H 7.008703 4.373630 -1.883926 0
M  V30 37 H 5.831538 5.285247 2.978095 0
M  V30 38 H 5.561811 6.765214 2.032730 0
M  V30 39 H 4.159716 5.678475 2.354143 0
M  V30 40 H 1.582238 -0.002186 0.330320 0
M  V30 41 H 0.132504 -2.161042 1.800535 0
M  V30 42 H -3.650057 -1.988316 -1.085481 0
M  V30 43 H -2.410499 -7.019604 -0.318224 0
M  V30 44 H -4.318208 -7.714230 -1.710322 0
M  V30 45 H -5.380112 -5.962125 0.042023 0
M  V30 46 H -6.347032 -6.624251 -1.386747 0
M  V30 47 H -5.634368 -5.000946 -1.522342 0
M  V30 48 H -2.909882 -6.100154 -3.371107 0
M  V30 49 H -4.350778 -5.095782 -3.139951 0
M  V30 50 H -4.514062 -6.812965 -3.770632 0
M  V30 END ATOM
M  V30 BEGIN BOND
M  V30 1 1 1 2
M  V30 2 2 2 3
M  V30 3 1 3 4
M  V30 4 2 4 5
M  V30 5 1 5 6
M  V30 6 2 6 7
M  V30 7 1 6 8
M  V30 8 1 8 9
M  V30 9 2 9 10
M  V30 10 1 10 11
M  V30 11 2 11 12
M  V30 12 1 12 13
M  V30 13 1 13 14
M  V30 14 1 5 15
M  V30 15 2 15 16
M  V30 16 1 16 17
M  V30 17 1 17 18
M  V30 18 2 18 19
M  V30 19 1 18 20
M  V30 20 2 20 21
M  V30 21 1 21 22
M  V30 22 2 22 23
M  V30 23 1 23 24
M  V30 24 1 24 25
M  V30 25 1 25 26
M  V30 26 1 25 27
M  V30 27 1 23 28
M  V30 28 1 16 2
M  V30 29 1 28 20
M  V30 30 1 13 9
M  V30 31 1 1 29
M  V30 32 1 1 30
M  V30 33 1 1 31
M  V30 34 1 3 32
M  V30 35 1 4 33
M  V30 36 1 8 34
M  V30 37 1 10 35
M  V30 38 1 11 36
M  V30 39 1 14 37
M  V30 40 1 14 38
M  V30 41 1 14 39
M  V30 42 1 15 40
M  V30 43 1 17 41
M  V30 44 1 21 42
M  V30 45 1 24 43
M  V30 46 1 25 44
M  V30 47 1 26 45
M  V30 48 1 26 46
M  V30 49 1 26 47
M  V30 50 1 27 48
M  V30 51 1 27 49
M  V30 52 1 27 50
M  V30 END BOND
M  V30 END CTAB
M  END
>  <Dataset>  (584) 
ChEMBL_Kinases

>  <Ligand_Instance>  (584) 
nan

>  <PDB_ID>  (584) 
nan

>  <Standardized_SMILES>  (584) 
Cc1ccc(C(=O)Nc2ccnn2C)cc1NC(=O)c1cnc(NC(C)C)s1

>  <Name>  (584) 
nan

>  <Pocket>  (584) 
nan

>  <ATP_Site>  (584) 
nan

>  <Peripheral>  (584) 
nan

>  <Num_H_Atoms_ProtBoundConf>  (584) 
nan

>  <Num_Resolved_Atoms>  (584) 
nan

>  <Num_Not_Resolved_Atoms>  (584) 
nan

$$$$
CHEMBL251283
     RDKit          3D

  0  0  0  0  0  0  0  0  0  0999 V3000
M  V30 BEGIN CTAB
M  V30 COUNTS 37 39 0 0 0
M  V30 BEGIN ATOM
M  V30 1 C -1.077498 -4.567351 2.358469 0
M  V30 2 C 0.295163 -4.136767 1.863867 0
M  V30 3 C 0.585270 -4.734825 0.507469 0
M  V30 4 N 1.890140 -4.353732 -0.012689 0
M  V30 5 C 2.249895 -2.999300 -0.256304 0
M  V30 6 N 3.472119 -2.675836 -0.738151 0
M  V30 7 C 3.833778 -1.418449 -0.975238 0
M  V30 8 C 2.978417 -0.362462 -0.742348 0
M  V30 9 C 1.727658 -0.673997 -0.250835 0
M  V30 10 C 0.756974 0.382725 0.024928 0
M  V30 11 C -0.517659 0.179976 0.516378 0
M  V30 12 C -1.051494 1.440588 0.612728 0
M  V30 13 C -0.148328 2.397678 0.198313 0
M  V30 14 N 0.955294 1.700571 -0.156193 0
M  V30 15 C -0.398610 3.861978 0.172300 0
M  V30 16 C -1.424530 4.203926 1.235733 0
M  V30 17 N -2.587287 3.361795 1.028949 0
M  V30 18 C -2.366609 1.944118 1.061930 0
M  V30 19 O -3.251790 1.112559 1.459400 0
M  V30 20 N 1.421066 -1.965581 -0.031489 0
M  V30 21 H -1.484291 -3.847363 3.106702 0
M  V30 22 H -0.956801 -5.550973 2.850818 0
M  V30 23 H -1.814411 -4.626649 1.543519 0
M  V30 24 H 0.266384 -3.037050 1.746904 0
M  V30 25 H 1.082518 -4.472813 2.548548 0
M  V30 26 H -0.226262 -4.316964 -0.159850 0
M  V30 27 H 0.442505 -5.815828 0.472867 0
M  V30 28 H 2.582101 -5.091562 -0.213157 0
M  V30 29 H 4.848720 -1.276096 -1.365102 0
M  V30 30 H 3.288026 0.654155 -0.940437 0
M  V30 31 H -0.982780 -0.764044 0.766494 0
M  V30 32 H 1.828234 2.107580 -0.514572 0
M  V30 33 H -0.913604 4.086883 -0.802264 0
M  V30 34 H 0.530057 4.423283 0.280844 0
M  V30 35 H -1.689735 5.279691 1.186745 0
M  V30 36 H -0.955179 3.933958 2.202981 0
M  V30 37 H -3.589804 3.659753 0.854713 0
M  V30 END ATOM
M  V30 BEGIN BOND
M  V30 1 1 1 2
M  V30 2 1 2 3
M  V30 3 1 3 4
M  V30 4 1 4 5
M  V30 5 2 5 6
M  V30 6 1 6 7
M  V30 7 2 7 8
M  V30 8 1 8 9
M  V30 9 1 9 10
M  V30 10 2 10 11
M  V30 11 1 11 12
M  V30 12 2 12 13
M  V30 13 1 13 14
M  V30 14 1 13 15
M  V30 15 1 15 16
M  V30 16 1 16 17
M  V30 17 1 17 18
M  V30 18 2 18 19
M  V30 19 2 9 20
M  V30 20 1 20 5
M  V30 21 1 14 10
M  V30 22 1 18 12
M  V30 23 1 1 21
M  V30 24 1 1 22
M  V30 25 1 1 23
M  V30 26 1 2 24
M  V30 27 1 2 25
M  V30 28 1 3 26
M  V30 29 1 3 27
M  V30 30 1 4 28
M  V30 31 1 7 29
M  V30 32 1 8 30
M  V30 33 1 11 31
M  V30 34 1 14 32
M  V30 35 1 15 33
M  V30 36 1 15 34
M  V30 37 1 16 35
M  V30 38 1 16 36
M  V30 39 1 17 37
M  V30 END BOND
M  V30 END CTAB
M  END
>  <Dataset>  (585) 
ChEMBL_Kinases

>  <Ligand_Instance>  (585) 
nan

>  <PDB_ID>  (585) 
nan

>  <Standardized_SMILES>  (585) 
CCCNc1nccc(-c2cc3c([nH]2)CCNC3=O)n1

>  <Name>  (585) 
nan

>  <Pocket>  (585) 
nan

>  <ATP_Site>  (585) 
nan

>  <Peripheral>  (585) 
nan

>  <Num_H_Atoms_ProtBoundConf>  (585) 
nan

>  <Num_Resolved_Atoms>  (585) 
nan

>  <Num_Not_Resolved_Atoms>  (585) 
nan

$$$$
CHEMBL251282
     RDKit          3D

  0  0  0  0  0  0  0  0  0  0999 V3000
M  V30 BEGIN CTAB
M  V30 COUNTS 41 44 0 0 0
M  V30 BEGIN ATOM
M  V30 1 N 0.215463 -2.448421 -3.724347 0
M  V30 2 C 1.300889 -2.334165 -2.795484 0
M  V30 3 N 2.587055 -2.585831 -3.109926 0
M  V30 4 C 3.534522 -2.442722 -2.140522 0
M  V30 5 C 3.099975 -2.048018 -0.902083 0
M  V30 6 C 1.799697 -1.779042 -0.530998 0
M  V30 7 C 1.464663 -1.364731 0.826081 0
M  V30 8 C 2.441436 -1.229091 1.820937 0
M  V30 9 C 1.759221 -0.853748 2.957219 0
M  V30 10 C 0.427301 -0.778251 2.611826 0
M  V30 11 N 0.235178 -1.090117 1.301097 0
M  V30 12 C -1.038347 -1.109242 0.658256 0
M  V30 13 C -1.370652 0.247875 0.169563 0
M  V30 14 C -2.079882 1.086819 1.041336 0
M  V30 15 C -2.456672 2.369698 0.722181 0
M  V30 16 C -2.142645 2.902994 -0.509885 0
M  V30 17 C -1.446847 2.123929 -1.407145 0
M  V30 18 C -1.097015 0.849608 -1.032968 0
M  V30 19 C -0.456031 -0.381759 3.739630 0
M  V30 20 C 0.076474 -0.835814 5.079500 0
M  V30 21 N 1.384761 -0.215577 5.319056 0
M  V30 22 C 2.313605 -0.589123 4.279183 0
M  V30 23 O 3.566984 -0.686097 4.496903 0
M  V30 24 N 0.976285 -1.958210 -1.573810 0
M  V30 25 H -0.225720 -3.391860 -3.535599 0
M  V30 26 H -0.074646 -1.735986 -4.441667 0
M  V30 27 H 4.565192 -2.643449 -2.389004 0
M  V30 28 H 3.927089 -1.959623 -0.189408 0
M  V30 29 H 3.495892 -1.386139 1.712689 0
M  V30 30 H -1.089284 -1.861228 -0.162889 0
M  V30 31 H -1.804957 -1.399585 1.420570 0
M  V30 32 H -2.411867 0.834478 2.038630 0
M  V30 33 H -2.999815 3.048011 1.356768 0
M  V30 34 H -2.408338 3.901683 -0.822667 0
M  V30 35 H -1.180577 2.492250 -2.373679 0
M  V30 36 H -0.562419 0.266866 -1.749794 0
M  V30 37 H -0.569608 0.715596 3.720004 0
M  V30 38 H -1.464473 -0.878703 3.649083 0
M  V30 39 H -0.621564 -0.435622 5.839730 0
M  V30 40 H 0.124654 -1.940021 5.106702 0
M  V30 41 H 1.757854 0.426317 6.080012 0
M  V30 END ATOM
M  V30 BEGIN BOND
M  V30 1 1 1 2
M  V30 2 2 2 3
M  V30 3 1 3 4
M  V30 4 2 4 5
M  V30 5 1 5 6
M  V30 6 1 6 7
M  V30 7 2 7 8
M  V30 8 1 8 9
M  V30 9 2 9 10
M  V30 10 1 10 11
M  V30 11 1 11 12
M  V30 12 1 12 13
M  V30 13 2 13 14
M  V30 14 1 14 15
M  V30 15 2 15 16
M  V30 16 1 16 17
M  V30 17 2 17 18
M  V30 18 1 10 19
M  V30 19 1 19 20
M  V30 20 1 20 21
M  V30 21 1 21 22
M  V30 22 2 22 23
M  V30 23 2 6 24
M  V30 24 1 24 2
M  V30 25 1 11 7
M  V30 26 1 18 13
M  V30 27 1 22 9
M  V30 28 1 1 25
M  V30 29 1 1 26
M  V30 30 1 4 27
M  V30 31 1 5 28
M  V30 32 1 8 29
M  V30 33 1 12 30
M  V30 34 1 12 31
M  V30 35 1 14 32
M  V30 36 1 15 33
M  V30 37 1 16 34
M  V30 38 1 17 35
M  V30 39 1 18 36
M  V30 40 1 19 37
M  V30 41 1 19 38
M  V30 42 1 20 39
M  V30 43 1 20 40
M  V30 44 1 21 41
M  V30 END BOND
M  V30 END CTAB
M  END
>  <Dataset>  (586) 
ChEMBL_Kinases

>  <Ligand_Instance>  (586) 
nan

>  <PDB_ID>  (586) 
nan

>  <Standardized_SMILES>  (586) 
Nc1nccc(-c2cc3c(n2Cc2ccccc2)CCNC3=O)n1

>  <Name>  (586) 
nan

>  <Pocket>  (586) 
nan

>  <ATP_Site>  (586) 
nan

>  <Peripheral>  (586) 
nan

>  <Num_H_Atoms_ProtBoundConf>  (586) 
nan

>  <Num_Resolved_Atoms>  (586) 
nan

>  <Num_Not_Resolved_Atoms>  (586) 
nan

$$$$
CHEMBL251247
     RDKit          3D

  0  0  0  0  0  0  0  0  0  0999 V3000
M  V30 BEGIN CTAB
M  V30 COUNTS 40 42 0 0 0
M  V30 BEGIN ATOM
M  V30 1 C 1.347815 -4.949776 1.246885 0
M  V30 2 C 0.188314 -4.043253 0.861815 0
M  V30 3 C 0.637891 -2.621928 1.179676 0
M  V30 4 C -0.448300 -1.681009 0.827838 0
M  V30 5 N -0.261179 -0.302259 1.031496 0
M  V30 6 C 0.304345 0.527392 0.148390 0
M  V30 7 C 0.915299 0.429883 -1.157683 0
M  V30 8 C 1.128538 -0.689176 -1.903079 0
M  V30 9 C 1.728951 -0.764078 -3.128375 0
M  V30 10 N 2.169263 0.404109 -3.678023 0
M  V30 11 C 1.982580 1.538134 -2.980101 0
M  V30 12 N 2.391384 2.821712 -3.433000 0
M  V30 13 N 1.388249 1.512774 -1.796236 0
M  V30 14 C 0.244297 1.789126 0.736704 0
M  V30 15 C -0.354433 1.719495 1.972454 0
M  V30 16 C -0.663388 0.389273 2.134706 0
M  V30 17 C -1.329588 -0.091177 3.369811 0
M  V30 18 C -2.170636 0.997462 4.011184 0
M  V30 19 N -1.353381 2.184719 4.240376 0
M  V30 20 C -0.701735 2.645612 3.040898 0
M  V30 21 O -0.401976 3.857530 2.855645 0
M  V30 22 H 1.317558 -5.917334 0.692487 0
M  V30 23 H 1.290724 -5.163147 2.343691 0
M  V30 24 H 2.320072 -4.495490 1.046141 0
M  V30 25 H -0.005505 -4.126802 -0.214679 0
M  V30 26 H -0.732506 -4.331194 1.382813 0
M  V30 27 H 1.551975 -2.469569 0.570725 0
M  V30 28 H 1.000339 -2.538970 2.223888 0
M  V30 29 H -1.354665 -1.963754 1.495436 0
M  V30 30 H -0.848557 -1.916516 -0.169045 0
M  V30 31 H 0.831967 -1.645493 -1.544272 0
M  V30 32 H 1.875588 -1.665014 -3.679275 0
M  V30 33 H 1.759078 3.248655 -4.136611 0
M  V30 34 H 3.226856 3.406606 -3.172126 0
M  V30 35 H 0.575520 2.786293 0.404013 0
M  V30 36 H -2.040694 -0.912916 3.177809 0
M  V30 37 H -0.562023 -0.353535 4.127978 0
M  V30 38 H -3.094107 1.225644 3.461823 0
M  V30 39 H -2.483300 0.565876 5.000467 0
M  V30 40 H -1.167149 2.743650 5.113185 0
M  V30 END ATOM
M  V30 BEGIN BOND
M  V30 1 1 1 2
M  V30 2 1 2 3
M  V30 3 1 3 4
M  V30 4 1 4 5
M  V30 5 1 5 6
M  V30 6 1 6 7
M  V30 7 2 7 8
M  V30 8 1 8 9
M  V30 9 2 9 10
M  V30 10 1 10 11
M  V30 11 1 11 12
M  V30 12 2 11 13
M  V30 13 2 6 14
M  V30 14 1 14 15
M  V30 15 2 15 16
M  V30 16 1 16 17
M  V30 17 1 17 18
M  V30 18 1 18 19
M  V30 19 1 19 20
M  V30 20 2 20 21
M  V30 21 1 16 5
M  V30 22 1 13 7
M  V30 23 1 20 15
M  V30 24 1 1 22
M  V30 25 1 1 23
M  V30 26 1 1 24
M  V30 27 1 2 25
M  V30 28 1 2 26
M  V30 29 1 3 27
M  V30 30 1 3 28
M  V30 31 1 4 29
M  V30 32 1 4 30
M  V30 33 1 8 31
M  V30 34 1 9 32
M  V30 35 1 12 33
M  V30 36 1 12 34
M  V30 37 1 14 35
M  V30 38 1 17 36
M  V30 39 1 17 37
M  V30 40 1 18 38
M  V30 41 1 18 39
M  V30 42 1 19 40
M  V30 END BOND
M  V30 END CTAB
M  END
>  <Dataset>  (587) 
ChEMBL_Kinases

>  <Ligand_Instance>  (587) 
nan

>  <PDB_ID>  (587) 
nan

>  <Standardized_SMILES>  (587) 
CCCCn1c(-c2ccnc(N)n2)cc2c1CCNC2=O

>  <Name>  (587) 
nan

>  <Pocket>  (587) 
nan

>  <ATP_Site>  (587) 
nan

>  <Peripheral>  (587) 
nan

>  <Num_H_Atoms_ProtBoundConf>  (587) 
nan

>  <Num_Resolved_Atoms>  (587) 
nan

>  <Num_Not_Resolved_Atoms>  (587) 
nan

$$$$
CHEMBL251246
     RDKit          3D

  0  0  0  0  0  0  0  0  0  0999 V3000
M  V30 BEGIN CTAB
M  V30 COUNTS 37 39 0 0 0
M  V30 BEGIN ATOM
M  V30 1 C -0.665308 -1.427157 3.005505 0
M  V30 2 C -0.229115 -2.080257 1.679326 0
M  V30 3 C -1.254774 -3.184601 1.507760 0
M  V30 4 N -0.157334 -1.114955 0.646790 0
M  V30 5 C 0.858995 -0.241535 0.601468 0
M  V30 6 C 2.066079 0.082730 1.330817 0
M  V30 7 C 2.580350 -0.501848 2.440845 0
M  V30 8 C 3.717241 -0.195705 3.127027 0
M  V30 9 N 4.427226 0.849731 2.610863 0
M  V30 10 C 3.993688 1.487928 1.514356 0
M  V30 11 N 4.662207 2.594493 0.893237 0
M  V30 12 N 2.872536 1.086695 0.947514 0
M  V30 13 C 0.583411 0.554632 -0.525625 0
M  V30 14 C -0.588730 0.121006 -1.106373 0
M  V30 15 C -1.055338 -0.936500 -0.363091 0
M  V30 16 C -2.304999 -1.572122 -0.794731 0
M  V30 17 C -2.534962 -1.350675 -2.281275 0
M  V30 18 N -2.491187 0.021510 -2.676083 0
M  V30 19 C -1.277014 0.659759 -2.301436 0
M  V30 20 O -0.800567 1.650702 -2.961077 0
M  V30 21 H -0.227558 -0.445515 3.162817 0
M  V30 22 H -0.424220 -2.088923 3.842155 0
M  V30 23 H -1.773059 -1.262681 2.948440 0
M  V30 24 H 0.717324 -2.631009 1.828803 0
M  V30 25 H -2.289675 -2.868677 1.574350 0
M  V30 26 H -0.977002 -3.910577 0.733902 0
M  V30 27 H -1.116501 -3.796334 2.469401 0
M  V30 28 H 2.086230 -1.312891 2.893048 0
M  V30 29 H 4.070270 -0.703231 4.006486 0
M  V30 30 H 5.630958 2.648924 0.480810 0
M  V30 31 H 4.211692 3.526899 0.783563 0
M  V30 32 H 1.151754 1.406195 -0.951519 0
M  V30 33 H -3.189663 -1.144990 -0.287003 0
M  V30 34 H -2.296980 -2.696310 -0.735650 0
M  V30 35 H -3.459718 -1.871486 -2.620463 0
M  V30 36 H -1.708604 -1.904956 -2.796033 0
M  V30 37 H -3.210007 0.595306 -3.185954 0
M  V30 END ATOM
M  V30 BEGIN BOND
M  V30 1 1 1 2
M  V30 2 1 2 3
M  V30 3 1 2 4
M  V30 4 1 4 5
M  V30 5 1 5 6
M  V30 6 2 6 7
M  V30 7 1 7 8
M  V30 8 2 8 9
M  V30 9 1 9 10
M  V30 10 1 10 11
M  V30 11 2 10 12
M  V30 12 2 5 13
M  V30 13 1 13 14
M  V30 14 2 14 15
M  V30 15 1 15 16
M  V30 16 1 16 17
M  V30 17 1 17 18
M  V30 18 1 18 19
M  V30 19 2 19 20
M  V30 20 1 15 4
M  V30 21 1 12 6
M  V30 22 1 19 14
M  V30 23 1 1 21
M  V30 24 1 1 22
M  V30 25 1 1 23
M  V30 26 1 2 24
M  V30 27 1 3 25
M  V30 28 1 3 26
M  V30 29 1 3 27
M  V30 30 1 7 28
M  V30 31 1 8 29
M  V30 32 1 11 30
M  V30 33 1 11 31
M  V30 34 1 13 32
M  V30 35 1 16 33
M  V30 36 1 16 34
M  V30 37 1 17 35
M  V30 38 1 17 36
M  V30 39 1 18 37
M  V30 END BOND
M  V30 END CTAB
M  END
>  <Dataset>  (588) 
ChEMBL_Kinases

>  <Ligand_Instance>  (588) 
nan

>  <PDB_ID>  (588) 
nan

>  <Standardized_SMILES>  (588) 
CC(C)n1c(-c2ccnc(N)n2)cc2c1CCNC2=O

>  <Name>  (588) 
nan

>  <Pocket>  (588) 
nan

>  <ATP_Site>  (588) 
nan

>  <Peripheral>  (588) 
nan

>  <Num_H_Atoms_ProtBoundConf>  (588) 
nan

>  <Num_Resolved_Atoms>  (588) 
nan

>  <Num_Not_Resolved_Atoms>  (588) 
nan

$$$$
CHEMBL251196
     RDKit          3D

  0  0  0  0  0  0  0  0  0  0999 V3000
M  V30 BEGIN CTAB
M  V30 COUNTS 43 46 0 0 0
M  V30 BEGIN ATOM
M  V30 1 Br 1.325123 -4.298031 4.591452 0
M  V30 2 C 1.639942 -3.940476 2.730116 0
M  V30 3 C 2.314288 -4.724091 1.789365 0
M  V30 4 N 2.266656 -4.042351 0.613454 0
M  V30 5 N 1.599564 -2.891306 0.796910 0
M  V30 6 C 1.357582 -1.958699 -0.130685 0
M  V30 7 N 1.714110 -2.008044 -1.482633 0
M  V30 8 C 2.236389 -1.134984 -2.496976 0
M  V30 9 C 1.552953 0.176820 -2.588785 0
M  V30 10 C 0.349477 0.199318 -3.265995 0
M  V30 11 C -0.283418 1.441369 -3.362669 0
M  V30 12 C 0.301398 2.570211 -2.793813 0
M  V30 13 N 1.478764 2.470567 -2.148333 0
M  V30 14 C 2.150590 1.305662 -2.013331 0
M  V30 15 C 0.661481 -0.861080 0.292041 0
M  V30 16 C 0.230606 -0.718467 1.601079 0
M  V30 17 C -0.539372 0.451158 2.149063 0
M  V30 18 C -1.932598 -0.057203 2.400622 0
M  V30 19 C -2.486970 0.259346 3.742063 0
M  V30 20 N -1.593147 0.110003 4.832409 0
M  V30 21 C -0.213837 0.360684 4.587713 0
M  V30 22 C 0.113851 1.083547 3.326170 0
M  V30 23 N 0.516742 -1.712089 2.491929 0
M  V30 24 C 1.212196 -2.811669 2.074578 0
M  V30 25 H 2.770817 -5.687672 1.998744 0
M  V30 26 H 1.514447 -2.998394 -1.788967 0
M  V30 27 H 2.149802 -1.598670 -3.492286 0
M  V30 28 H 3.330016 -0.974964 -2.297178 0
M  V30 29 H -0.063421 -0.691384 -3.686228 0
M  V30 30 H -1.226694 1.456125 -3.895280 0
M  V30 31 H -0.256649 3.486115 -2.910210 0
M  V30 32 H 3.105962 1.234702 -1.492978 0
M  V30 33 H 0.348315 -0.004798 -0.261566 0
M  V30 34 H -0.535431 1.216628 1.315548 0
M  V30 35 H -2.057448 -1.144724 2.179004 0
M  V30 36 H -2.602235 0.441124 1.645976 0
M  V30 37 H -3.327567 -0.470952 3.920438 0
M  V30 38 H -3.001415 1.248834 3.725653 0
M  V30 39 H -1.725737 -0.723442 5.426723 0
M  V30 40 H 0.410674 -0.568888 4.699697 0
M  V30 41 H 0.151375 1.011936 5.436005 0
M  V30 42 H 1.220661 0.989359 3.188846 0
M  V30 43 H -0.202874 2.129490 3.441105 0
M  V30 END ATOM
M  V30 BEGIN BOND
M  V30 1 1 1 2
M  V30 2 1 2 3
M  V30 3 2 3 4
M  V30 4 1 4 5
M  V30 5 1 5 6
M  V30 6 1 6 7
M  V30 7 1 7 8
M  V30 8 1 8 9
M  V30 9 2 9 10
M  V30 10 1 10 11
M  V30 11 2 11 12
M  V30 12 1 12 13
M  V30 13 2 13 14
M  V30 14 2 6 15
M  V30 15 1 15 16
M  V30 16 1 16 17
M  V30 17 1 17 18
M  V30 18 1 18 19
M  V30 19 1 19 20
M  V30 20 1 20 21
M  V30 21 1 21 22
M  V30 22 2 16 23
M  V30 23 1 23 24
M  V30 24 2 24 2
M  V30 25 1 24 5
M  V30 26 1 14 9
M  V30 27 1 22 17
M  V30 28 1 3 25
M  V30 29 1 7 26
M  V30 30 1 8 27
M  V30 31 1 8 28
M  V30 32 1 10 29
M  V30 33 1 11 30
M  V30 34 1 12 31
M  V30 35 1 14 32
M  V30 36 1 15 33
M  V30 37 1 17 34
M  V30 38 1 18 35
M  V30 39 1 18 36
M  V30 40 1 19 37
M  V30 41 1 19 38
M  V30 42 1 20 39
M  V30 43 1 21 40
M  V30 44 1 21 41
M  V30 45 1 22 42
M  V30 46 1 22 43
M  V30 END BOND
M  V30 END CTAB
M  END
>  <Dataset>  (589) 
ChEMBL_Kinases

>  <Ligand_Instance>  (589) 
nan

>  <PDB_ID>  (589) 
nan

>  <Standardized_SMILES>  (589) 
Brc1cnn2c(NCc3cccnc3)cc(C3CCNCC3)nc12

>  <Name>  (589) 
nan

>  <Pocket>  (589) 
nan

>  <ATP_Site>  (589) 
nan

>  <Peripheral>  (589) 
nan

>  <Num_H_Atoms_ProtBoundConf>  (589) 
nan

>  <Num_Resolved_Atoms>  (589) 
nan

>  <Num_Not_Resolved_Atoms>  (589) 
nan

$$$$
CHEMBL251185
     RDKit          3D

  0  0  0  0  0  0  0  0  0  0999 V3000
M  V30 BEGIN CTAB
M  V30 COUNTS 56 60 0 0 0
M  V30 BEGIN ATOM
M  V30 1 C 2.817309 0.107709 5.483893 0
M  V30 2 N 3.622008 -1.012784 5.124934 0
M  V30 3 C 2.972086 -2.263629 5.395858 0
M  V30 4 C 4.242271 -0.951927 3.840952 0
M  V30 5 C 3.276320 -0.832984 2.706664 0
M  V30 6 C 2.870503 0.403731 2.245445 0
M  V30 7 C 1.972947 0.545146 1.191514 0
M  V30 8 N 1.465864 -0.564834 0.580753 0
M  V30 9 C 0.591844 -0.762853 -0.449782 0
M  V30 10 C 0.003379 0.388901 -1.127415 0
M  V30 11 C 0.932282 1.222437 -1.749491 0
M  V30 12 C 0.364928 2.323437 -2.396460 0
M  V30 13 N -0.947108 2.601447 -2.445996 0
M  V30 14 C -1.795994 1.755623 -1.823966 0
M  V30 15 N -3.202443 1.966917 -1.819620 0
M  V30 16 C -4.164742 1.118008 -1.188136 0
M  V30 17 C -3.890550 1.006986 0.310554 0
M  V30 18 C -4.161916 -0.483108 0.164504 0
M  V30 19 C -4.012421 -0.357078 -1.333787 0
M  V30 20 N -1.305068 0.690476 -1.192335 0
M  V30 21 C 0.435136 -2.123505 -0.651622 0
M  V30 22 C -0.454705 -2.606316 -1.704373 0
M  V30 23 C -0.363246 -2.415484 -3.067468 0
M  V30 24 C -1.334716 -2.973854 -3.884253 0
M  V30 25 C -2.374967 -3.707338 -3.348784 0
M  V30 26 F -3.307366 -4.238811 -4.176367 0
M  V30 27 C -2.479947 -3.907294 -1.984069 0
M  V30 28 C -1.497837 -3.341116 -1.174479 0
M  V30 29 N 1.224657 -2.728965 0.269191 0
M  V30 30 C 1.851065 -1.793811 1.017851 0
M  V30 31 C 2.741496 -1.950254 2.063108 0
M  V30 32 H 1.909119 0.249863 4.872498 0
M  V30 33 H 2.428329 -0.095768 6.520120 0
M  V30 34 H 3.343118 1.059634 5.540930 0
M  V30 35 H 3.013813 -2.511062 6.488979 0
M  V30 36 H 1.947073 -2.330163 5.021346 0
M  V30 37 H 3.545717 -3.072661 4.872245 0
M  V30 38 H 4.765614 -1.936461 3.694522 0
M  V30 39 H 5.002804 -0.176460 3.738586 0
M  V30 40 H 3.249412 1.307077 2.702957 0
M  V30 41 H 1.665352 1.520966 0.842137 0
M  V30 42 H 2.007672 1.103368 -1.778199 0
M  V30 43 H 1.041002 3.006552 -2.897657 0
M  V30 44 H -3.543976 2.833371 -2.334152 0
M  V30 45 H -5.207937 1.412367 -1.422899 0
M  V30 46 H -2.826395 1.215239 0.584748 0
M  V30 47 H -4.636760 1.587497 0.860244 0
M  V30 48 H -3.355293 -1.075685 0.627792 0
M  V30 49 H -5.175712 -0.779613 0.509793 0
M  V30 50 H -4.879104 -0.882105 -1.812755 0
M  V30 51 H -3.092149 -0.755558 -1.760303 0
M  V30 52 H 0.491295 -1.827687 -3.357491 0
M  V30 53 H -1.208860 -2.788878 -4.948968 0
M  V30 54 H -3.315374 -4.491196 -1.606112 0
M  V30 55 H -1.677274 -3.560150 -0.114668 0
M  V30 56 H 3.040948 -2.933228 2.402332 0
M  V30 END ATOM
M  V30 BEGIN BOND
M  V30 1 1 1 2
M  V30 2 1 2 3
M  V30 3 1 2 4
M  V30 4 1 4 5
M  V30 5 1 5 6
M  V30 6 2 6 7
M  V30 7 1 7 8
M  V30 8 1 8 9
M  V30 9 1 9 10
M  V30 10 2 10 11
M  V30 11 1 11 12
M  V30 12 2 12 13
M  V30 13 1 13 14
M  V30 14 1 14 15
M  V30 15 1 15 16
M  V30 16 1 16 17
M  V30 17 1 17 18
M  V30 18 1 18 19
M  V30 19 2 14 20
M  V30 20 2 9 21
M  V30 21 1 21 22
M  V30 22 2 22 23
M  V30 23 1 23 24
M  V30 24 2 24 25
M  V30 25 1 25 26
M  V30 26 1 25 27
M  V30 27 2 27 28
M  V30 28 1 21 29
M  V30 29 2 29 30
M  V30 30 1 30 31
M  V30 31 2 31 5
M  V30 32 1 30 8
M  V30 33 1 20 10
M  V30 34 1 28 22
M  V30 35 1 19 16
M  V30 36 1 1 32
M  V30 37 1 1 33
M  V30 38 1 1 34
M  V30 39 1 3 35
M  V30 40 1 3 36
M  V30 41 1 3 37
M  V30 42 1 4 38
M  V30 43 1 4 39
M  V30 44 1 6 40
M  V30 45 1 7 41
M  V30 46 1 11 42
M  V30 47 1 12 43
M  V30 48 1 15 44
M  V30 49 1 16 45
M  V30 50 1 17 46
M  V30 51 1 17 47
M  V30 52 1 18 48
M  V30 53 1 18 49
M  V30 54 1 19 50
M  V30 55 1 19 51
M  V30 56 1 23 52
M  V30 57 1 24 53
M  V30 58 1 27 54
M  V30 59 1 28 55
M  V30 60 1 31 56
M  V30 END BOND
M  V30 END CTAB
M  END
>  <Dataset>  (590) 
ChEMBL_Kinases

>  <Ligand_Instance>  (590) 
nan

>  <PDB_ID>  (590) 
nan

>  <Standardized_SMILES>  (590) 
CN(C)Cc1ccn2c(-c3ccnc(NC4CCC4)n3)c(-c3ccc(F)cc3)nc2c1

>  <Name>  (590) 
nan

>  <Pocket>  (590) 
nan

>  <ATP_Site>  (590) 
nan

>  <Peripheral>  (590) 
nan

>  <Num_H_Atoms_ProtBoundConf>  (590) 
nan

>  <Num_Resolved_Atoms>  (590) 
nan

>  <Num_Not_Resolved_Atoms>  (590) 
nan

$$$$
CHEMBL251184
     RDKit          3D

  0  0  0  0  0  0  0  0  0  0999 V3000
M  V30 BEGIN CTAB
M  V30 COUNTS 56 60 0 0 0
M  V30 BEGIN ATOM
M  V30 1 C 3.373483 -0.021596 5.107317 0
M  V30 2 N 4.290276 -1.031643 4.624205 0
M  V30 3 C 3.619411 -2.310355 4.757773 0
M  V30 4 C 4.743133 -0.771308 3.277700 0
M  V30 5 C 3.623973 -0.726044 2.306277 0
M  V30 6 C 3.026090 0.498422 2.085531 0
M  V30 7 C 1.981522 0.578773 1.187813 0
M  V30 8 N 1.486301 -0.465190 0.493139 0
M  V30 9 C 0.491230 -0.615364 -0.418675 0
M  V30 10 C -0.296334 0.538636 -0.820436 0
M  V30 11 C 0.494534 1.421625 -1.563776 0
M  V30 12 C -0.014821 2.604777 -2.059063 0
M  V30 13 N -1.302689 2.893301 -1.808295 0
M  V30 14 C -2.090253 2.044095 -1.084598 0
M  V30 15 N -3.453014 2.316180 -0.791459 0
M  V30 16 C -4.349885 1.473236 -0.032321 0
M  V30 17 C -4.503163 0.136235 -0.724482 0
M  V30 18 C -5.405916 -0.844983 -0.055055 0
M  V30 19 C -3.913368 -1.086226 -0.174144 0
M  V30 20 N -1.575045 0.890370 -0.607927 0
M  V30 21 C 0.484180 -1.951888 -0.757583 0
M  V30 22 C -0.453755 -2.514306 -1.723659 0
M  V30 23 C -0.605856 -2.176151 -3.064067 0
M  V30 24 C -1.557257 -2.845464 -3.812162 0
M  V30 25 C -2.337764 -3.828999 -3.234618 0
M  V30 26 F -3.215990 -4.384284 -4.096329 0
M  V30 27 C -2.210667 -4.182660 -1.919533 0
M  V30 28 C -1.247876 -3.505245 -1.162340 0
M  V30 29 N 1.458589 -2.578719 -0.057253 0
M  V30 30 C 2.094823 -1.663496 0.729726 0
M  V30 31 C 3.144714 -1.820125 1.613167 0
M  V30 32 H 2.401298 -0.043165 4.587990 0
M  V30 33 H 3.170461 -0.244830 6.175545 0
M  V30 34 H 3.763431 0.999335 5.036361 0
M  V30 35 H 3.727939 -2.652070 5.826868 0
M  V30 36 H 2.521876 -2.182607 4.577979 0
M  V30 37 H 4.053868 -3.101376 4.132449 0
M  V30 38 H 5.461891 -1.592823 3.030499 0
M  V30 39 H 5.259942 0.185580 3.274390 0
M  V30 40 H 3.379407 1.381840 2.615521 0
M  V30 41 H 1.552917 1.570150 1.057828 0
M  V30 42 H 1.551505 1.298633 -1.832771 0
M  V30 43 H 0.544654 3.324444 -2.637968 0
M  V30 44 H -3.798502 3.236145 -1.188300 0
M  V30 45 H -5.353055 1.958834 -0.038935 0
M  V30 46 H -3.992985 1.329170 1.014341 0
M  V30 47 H -4.528827 0.240492 -1.847394 0
M  V30 48 H -5.822545 -0.559463 0.920488 0
M  V30 49 H -6.066244 -1.524002 -0.632293 0
M  V30 50 H -3.620396 -1.873537 -0.901125 0
M  V30 51 H -3.406931 -1.152529 0.790477 0
M  V30 52 H 0.071551 -1.401749 -3.349489 0
M  V30 53 H -1.583721 -2.498641 -4.835007 0
M  V30 54 H -2.851556 -4.959473 -1.530436 0
M  V30 55 H -1.202643 -3.838659 -0.124515 0
M  V30 56 H 3.611562 -2.777169 1.785472 0
M  V30 END ATOM
M  V30 BEGIN BOND
M  V30 1 1 1 2
M  V30 2 1 2 3
M  V30 3 1 2 4
M  V30 4 1 4 5
M  V30 5 1 5 6
M  V30 6 2 6 7
M  V30 7 1 7 8
M  V30 8 1 8 9
M  V30 9 1 9 10
M  V30 10 2 10 11
M  V30 11 1 11 12
M  V30 12 2 12 13
M  V30 13 1 13 14
M  V30 14 1 14 15
M  V30 15 1 15 16
M  V30 16 1 16 17
M  V30 17 1 17 18
M  V30 18 1 18 19
M  V30 19 2 14 20
M  V30 20 2 9 21
M  V30 21 1 21 22
M  V30 22 2 22 23
M  V30 23 1 23 24
M  V30 24 2 24 25
M  V30 25 1 25 26
M  V30 26 1 25 27
M  V30 27 2 27 28
M  V30 28 1 21 29
M  V30 29 2 29 30
M  V30 30 1 30 31
M  V30 31 2 31 5
M  V30 32 1 30 8
M  V30 33 1 20 10
M  V30 34 1 28 22
M  V30 35 1 19 17
M  V30 36 1 1 32
M  V30 37 1 1 33
M  V30 38 1 1 34
M  V30 39 1 3 35
M  V30 40 1 3 36
M  V30 41 1 3 37
M  V30 42 1 4 38
M  V30 43 1 4 39
M  V30 44 1 6 40
M  V30 45 1 7 41
M  V30 46 1 11 42
M  V30 47 1 12 43
M  V30 48 1 15 44
M  V30 49 1 16 45
M  V30 50 1 16 46
M  V30 51 1 17 47
M  V30 52 1 18 48
M  V30 53 1 18 49
M  V30 54 1 19 50
M  V30 55 1 19 51
M  V30 56 1 23 52
M  V30 57 1 24 53
M  V30 58 1 27 54
M  V30 59 1 28 55
M  V30 60 1 31 56
M  V30 END BOND
M  V30 END CTAB
M  END
>  <Dataset>  (591) 
ChEMBL_Kinases

>  <Ligand_Instance>  (591) 
nan

>  <PDB_ID>  (591) 
nan

>  <Standardized_SMILES>  (591) 
CN(C)Cc1ccn2c(-c3ccnc(NCC4CC4)n3)c(-c3ccc(F)cc3)nc2c1

>  <Name>  (591) 
nan

>  <Pocket>  (591) 
nan

>  <ATP_Site>  (591) 
nan

>  <Peripheral>  (591) 
nan

>  <Num_H_Atoms_ProtBoundConf>  (591) 
nan

>  <Num_Resolved_Atoms>  (591) 
nan

>  <Num_Not_Resolved_Atoms>  (591) 
nan

$$$$
CHEMBL251170
     RDKit          3D

  0  0  0  0  0  0  0  0  0  0999 V3000
M  V30 BEGIN CTAB
M  V30 COUNTS 61 65 0 0 0
M  V30 BEGIN ATOM
M  V30 1 N 8.747216 0.786482 5.879289 0
M  V30 2 C 7.822013 -0.203450 6.350038 0
M  V30 3 O 8.160116 -0.868844 7.363006 0
M  V30 4 C 6.541835 -0.434863 5.688648 0
M  V30 5 C 5.714896 -1.407381 6.207372 0
M  V30 6 C 4.485541 -1.664090 5.612760 0
M  V30 7 C 4.117209 -0.920129 4.491867 0
M  V30 8 N 3.046042 -0.899398 3.692723 0
M  V30 9 C 3.177015 0.022389 2.727722 0
M  V30 10 C 2.281463 0.411069 1.631582 0
M  V30 11 C 2.611465 1.396124 0.728159 0
M  V30 12 C 1.695594 1.707839 -0.294864 0
M  V30 13 C 0.462641 1.024954 -0.394528 0
M  V30 14 O -0.139655 1.562697 -1.450579 0
M  V30 15 C -1.258467 1.493185 -2.197425 0
M  V30 16 C -1.582321 0.242258 -2.960979 0
M  V30 17 C -2.868610 0.453564 -3.708572 0
M  V30 18 C -3.900068 -0.525404 -3.232314 0
M  V30 19 N -3.475529 -1.869805 -3.498460 0
M  V30 20 C -4.475869 -2.871924 -3.453340 0
M  V30 21 C -5.189592 -2.957876 -2.153543 0
M  V30 22 C -6.337400 -2.197106 -1.956407 0
M  V30 23 C -7.087224 -2.190008 -0.800795 0
M  V30 24 C -6.671228 -2.999679 0.247682 0
M  V30 25 Cl -7.613793 -3.008895 1.734946 0
M  V30 26 C -5.534262 -3.775370 0.098611 0
M  V30 27 C -4.828503 -3.735996 -1.085362 0
M  V30 28 C -2.203208 -2.185821 -2.935000 0
M  V30 29 C -1.601120 -1.013593 -2.184436 0
M  V30 30 C 0.260830 0.069847 0.567186 0
M  V30 31 C 1.097189 -0.293133 1.591990 0
M  V30 32 N 4.392171 0.588951 2.956124 0
M  V30 33 C 4.986680 0.035247 4.023210 0
M  V30 34 C 6.226689 0.328170 4.584042 0
M  V30 35 H 9.102675 0.502790 4.918038 0
M  V30 36 H 9.095238 0.490427 4.916701 0
M  V30 37 H 6.029267 -1.972084 7.082724 0
M  V30 38 H 3.810963 -2.415676 5.989157 0
M  V30 39 H 2.185774 -1.510372 3.773621 0
M  V30 40 H 3.576016 1.839019 0.911485 0
M  V30 41 H 2.157379 2.512751 -0.894703 0
M  V30 42 H -2.148992 1.621700 -1.486909 0
M  V30 43 H -1.396113 2.351034 -2.914402 0
M  V30 44 H -0.747007 0.148645 -3.739316 0
M  V30 45 H -2.699500 0.351748 -4.807698 0
M  V30 46 H -3.259317 1.470128 -3.464682 0
M  V30 47 H -4.023637 -0.403571 -2.139287 0
M  V30 48 H -4.907022 -0.314119 -3.666289 0
M  V30 49 H -4.033856 -3.862198 -3.730233 0
M  V30 50 H -5.256330 -2.627209 -4.230082 0
M  V30 51 H -6.735792 -1.537513 -2.716926 0
M  V30 52 H -7.967461 -1.603290 -0.656417 0
M  V30 53 H -5.203895 -4.404222 0.903021 0
M  V30 54 H -3.956711 -4.345100 -1.173756 0
M  V30 55 H -2.264429 -3.076206 -2.282276 0
M  V30 56 H -1.500530 -2.432679 -3.756808 0
M  V30 57 H -0.584420 -1.277583 -1.802848 0
M  V30 58 H -2.247495 -0.888459 -1.294771 0
M  V30 59 H -0.699655 -0.396259 0.432190 0
M  V30 60 H 0.745562 -1.074497 2.242953 0
M  V30 61 H 6.841715 1.092168 4.152589 0
M  V30 END ATOM
M  V30 BEGIN BOND
M  V30 1 1 1 2
M  V30 2 2 2 3
M  V30 3 1 2 4
M  V30 4 2 4 5
M  V30 5 1 5 6
M  V30 6 2 6 7
M  V30 7 1 7 8
M  V30 8 1 8 9
M  V30 9 1 9 10
M  V30 10 2 10 11
M  V30 11 1 11 12
M  V30 12 2 12 13
M  V30 13 1 13 14
M  V30 14 1 14 15
M  V30 15 1 15 16
M  V30 16 1 16 17
M  V30 17 1 17 18
M  V30 18 1 18 19
M  V30 19 1 19 20
M  V30 20 1 20 21
M  V30 21 2 21 22
M  V30 22 1 22 23
M  V30 23 2 23 24
M  V30 24 1 24 25
M  V30 25 1 24 26
M  V30 26 2 26 27
M  V30 27 1 19 28
M  V30 28 1 28 29
M  V30 29 1 13 30
M  V30 30 2 30 31
M  V30 31 2 9 32
M  V30 32 1 32 33
M  V30 33 2 33 34
M  V30 34 1 34 4
M  V30 35 1 33 7
M  V30 36 1 31 10
M  V30 37 1 29 16
M  V30 38 1 27 21
M  V30 39 1 1 35
M  V30 40 1 1 36
M  V30 41 1 5 37
M  V30 42 1 6 38
M  V30 43 1 8 39
M  V30 44 1 11 40
M  V30 45 1 12 41
M  V30 46 1 15 42
M  V30 47 1 15 43
M  V30 48 1 16 44
M  V30 49 1 17 45
M  V30 50 1 17 46
M  V30 51 1 18 47
M  V30 52 1 18 48
M  V30 53 1 20 49
M  V30 54 1 20 50
M  V30 55 1 22 51
M  V30 56 1 23 52
M  V30 57 1 26 53
M  V30 58 1 27 54
M  V30 59 1 28 55
M  V30 60 1 28 56
M  V30 61 1 29 57
M  V30 62 1 29 58
M  V30 63 1 30 59
M  V30 64 1 31 60
M  V30 65 1 34 61
M  V30 END BOND
M  V30 END CTAB
M  END
>  <Dataset>  (592) 
ChEMBL_Kinases

>  <Ligand_Instance>  (592) 
nan

>  <PDB_ID>  (592) 
nan

>  <Standardized_SMILES>  (592) 
NC(=O)c1ccc2[nH]c(-c3ccc(OCC4CCN(Cc5ccc(Cl)cc5)CC4)cc3)nc2c1

>  <Name>  (592) 
nan

>  <Pocket>  (592) 
nan

>  <ATP_Site>  (592) 
nan

>  <Peripheral>  (592) 
nan

>  <Num_H_Atoms_ProtBoundConf>  (592) 
nan

>  <Num_Resolved_Atoms>  (592) 
nan

>  <Num_Not_Resolved_Atoms>  (592) 
nan

$$$$
CHEMBL251155
     RDKit          3D

  0  0  0  0  0  0  0  0  0  0999 V3000
M  V30 BEGIN CTAB
M  V30 COUNTS 64 68 0 0 0
M  V30 BEGIN ATOM
M  V30 1 N 8.999697 -4.337307 3.543541 0
M  V30 2 C 8.564149 -3.221138 2.822547 0
M  V30 3 O 9.648253 -2.977130 2.291596 0
M  V30 4 C 7.179706 -2.851462 2.977590 0
M  V30 5 C 6.328493 -3.484982 3.866064 0
M  V30 6 C 5.035954 -3.017465 3.873845 0
M  V30 7 C 4.588988 -1.973229 3.047156 0
M  V30 8 N 3.351510 -1.455873 2.980079 0
M  V30 9 C 3.464076 -0.503620 2.042136 0
M  V30 10 C 2.369609 0.355567 1.604416 0
M  V30 11 C 1.144963 0.247034 2.221095 0
M  V30 12 C 0.098574 1.034697 1.804111 0
M  V30 13 C 0.210701 1.946956 0.778574 0
M  V30 14 O -0.610990 2.829837 0.167373 0
M  V30 15 C -1.919849 3.191837 0.315708 0
M  V30 16 C -2.952053 2.098762 0.147963 0
M  V30 17 C -2.894342 1.423209 -1.186479 0
M  V30 18 C -3.107158 2.353153 -2.359986 0
M  V30 19 C -3.527880 1.503709 -3.539346 0
M  V30 20 C -2.820321 0.158379 -3.543143 0
M  V30 21 C -3.117168 -0.616126 -2.276856 0
M  V30 22 N -3.714421 0.248551 -1.273598 0
M  V30 23 C -3.992942 -0.426772 -0.058723 0
M  V30 24 C -4.870204 -1.633849 -0.265625 0
M  V30 25 C -6.260865 -1.672991 -0.222405 0
M  V30 26 C -6.880627 -2.883999 -0.448033 0
M  V30 27 C -6.220609 -4.056152 -0.711295 0
M  V30 28 Cl -7.056597 -5.551329 -0.985110 0
M  V30 29 C -4.834711 -4.033138 -0.759722 0
M  V30 30 Cl -3.892911 -5.482143 -1.091716 0
M  V30 31 C -4.188996 -2.825189 -0.535720 0
M  V30 32 C 1.471654 2.033066 0.170845 0
M  V30 33 C 2.570607 1.256177 0.557112 0
M  V30 34 N 4.737187 -0.441593 1.549160 0
M  V30 35 C 5.483311 -1.385978 2.187141 0
M  V30 36 C 6.806597 -1.810329 2.129741 0
M  V30 37 H 9.683664 -5.080534 3.789290 0
M  V30 38 H 8.730576 -5.009575 4.316354 0
M  V30 39 H 6.691200 -4.284425 4.491088 0
M  V30 40 H 4.378309 -3.525079 4.576130 0
M  V30 41 H 2.531889 -1.738143 3.528409 0
M  V30 42 H 0.941767 -0.431732 3.033508 0
M  V30 43 H -0.886512 1.037370 2.209179 0
M  V30 44 H -2.136331 4.001594 -0.443691 0
M  V30 45 H -2.157831 3.685562 1.291517 0
M  V30 46 H -2.872616 1.426186 0.998320 0
M  V30 47 H -3.944717 2.654008 0.154137 0
M  V30 48 H -1.835924 1.049514 -1.285277 0
M  V30 49 H -2.139548 2.864334 -2.582268 0
M  V30 50 H -3.839137 3.155726 -2.163011 0
M  V30 51 H -3.129039 2.039951 -4.451296 0
M  V30 52 H -4.603772 1.435481 -3.675916 0
M  V30 53 H -1.741800 0.262332 -3.739246 0
M  V30 54 H -3.228520 -0.419829 -4.394615 0
M  V30 55 H -2.145602 -0.941423 -1.856360 0
M  V30 56 H -3.763841 -1.456559 -2.535804 0
M  V30 57 H -4.463350 0.212473 0.717897 0
M  V30 58 H -3.047103 -0.777765 0.391711 0
M  V30 59 H -6.733451 -0.725662 -0.009270 0
M  V30 60 H -7.967760 -2.838396 -0.395838 0
M  V30 61 H -3.118154 -2.851228 -0.582362 0
M  V30 62 H 1.782041 2.680814 -0.649495 0
M  V30 63 H 3.553369 1.282717 0.126630 0
M  V30 64 H 7.481271 -1.332229 1.453959 0
M  V30 END ATOM
M  V30 BEGIN BOND
M  V30 1 1 1 2
M  V30 2 2 2 3
M  V30 3 1 2 4
M  V30 4 2 4 5
M  V30 5 1 5 6
M  V30 6 2 6 7
M  V30 7 1 7 8
M  V30 8 1 8 9
M  V30 9 1 9 10
M  V30 10 2 10 11
M  V30 11 1 11 12
M  V30 12 2 12 13
M  V30 13 1 13 14
M  V30 14 1 14 15
M  V30 15 1 15 16
M  V30 16 1 16 17
M  V30 17 1 17 18
M  V30 18 1 18 19
M  V30 19 1 19 20
M  V30 20 1 20 21
M  V30 21 1 21 22
M  V30 22 1 22 23
M  V30 23 1 23 24
M  V30 24 2 24 25
M  V30 25 1 25 26
M  V30 26 2 26 27
M  V30 27 1 27 28
M  V30 28 1 27 29
M  V30 29 1 29 30
M  V30 30 2 29 31
M  V30 31 1 13 32
M  V30 32 2 32 33
M  V30 33 2 9 34
M  V30 34 1 34 35
M  V30 35 2 35 36
M  V30 36 1 36 4
M  V30 37 1 35 7
M  V30 38 1 33 10
M  V30 39 1 22 17
M  V30 40 1 31 24
M  V30 41 1 1 37
M  V30 42 1 1 38
M  V30 43 1 5 39
M  V30 44 1 6 40
M  V30 45 1 8 41
M  V30 46 1 11 42
M  V30 47 1 12 43
M  V30 48 1 15 44
M  V30 49 1 15 45
M  V30 50 1 16 46
M  V30 51 1 16 47
M  V30 52 1 17 48
M  V30 53 1 18 49
M  V30 54 1 18 50
M  V30 55 1 19 51
M  V30 56 1 19 52
M  V30 57 1 20 53
M  V30 58 1 20 54
M  V30 59 1 21 55
M  V30 60 1 21 56
M  V30 61 1 23 57
M  V30 62 1 23 58
M  V30 63 1 25 59
M  V30 64 1 26 60
M  V30 65 1 31 61
M  V30 66 1 32 62
M  V30 67 1 33 63
M  V30 68 1 36 64
M  V30 END BOND
M  V30 END CTAB
M  END
>  <Dataset>  (593) 
ChEMBL_Kinases

>  <Ligand_Instance>  (593) 
nan

>  <PDB_ID>  (593) 
nan

>  <Standardized_SMILES>  (593) 
NC(=O)c1ccc2[nH]c(-c3ccc(OCCC4CCCCN4Cc4ccc(Cl)c(Cl)c4)cc3)nc2c1

>  <Name>  (593) 
nan

>  <Pocket>  (593) 
nan

>  <ATP_Site>  (593) 
nan

>  <Peripheral>  (593) 
nan

>  <Num_H_Atoms_ProtBoundConf>  (593) 
nan

>  <Num_Resolved_Atoms>  (593) 
nan

>  <Num_Not_Resolved_Atoms>  (593) 
nan

$$$$
CHEMBL250994
     RDKit          3D

  0  0  0  0  0  0  0  0  0  0999 V3000
M  V30 BEGIN CTAB
M  V30 COUNTS 59 63 0 0 0
M  V30 BEGIN ATOM
M  V30 1 C 3.189492 -1.180347 5.252453 0
M  V30 2 N 4.250272 -1.343280 4.338398 0
M  V30 3 C 4.548089 -2.689348 3.948995 0
M  V30 4 C 4.444581 -0.361157 3.342945 0
M  V30 5 C 3.351120 -0.126458 2.405067 0
M  V30 6 C 2.326473 0.762394 2.541191 0
M  V30 7 C 1.367944 0.865772 1.562965 0
M  V30 8 N 1.372973 0.114154 0.427541 0
M  V30 9 C 0.549476 0.045941 -0.652719 0
M  V30 10 C -0.626105 0.909522 -0.740487 0
M  V30 11 C -0.684878 1.858583 -1.762574 0
M  V30 12 C -1.817793 2.644061 -1.794776 0
M  V30 13 N -2.821842 2.549619 -0.935279 0
M  V30 14 C -2.754552 1.616968 0.061527 0
M  V30 15 N -3.826323 1.493091 1.010908 0
M  V30 16 C -3.708072 0.472615 2.009292 0
M  V30 17 C -3.660133 -0.900304 1.477693 0
M  V30 18 C -3.851713 -1.195288 0.144181 0
M  V30 19 C -3.822008 -2.472034 -0.408738 0
M  V30 20 F -4.019442 -2.676290 -1.733841 0
M  V30 21 C -3.580197 -3.506321 0.466499 0
M  V30 22 C -3.379842 -3.285804 1.810533 0
M  V30 23 C -3.420181 -2.002514 2.302468 0
M  V30 24 F -3.220299 -1.824692 3.621790 0
M  V30 25 N -1.665943 0.846665 0.110198 0
M  V30 26 C 1.085266 -0.917373 -1.481241 0
M  V30 27 C 0.456209 -1.262634 -2.750549 0
M  V30 28 C -0.830951 -1.805206 -2.840026 0
M  V30 29 C -1.355706 -2.106287 -4.082795 0
M  V30 30 C -0.625521 -1.876110 -5.207623 0
M  V30 31 F -1.228443 -2.205258 -6.375980 0
M  V30 32 C 0.644534 -1.344099 -5.175366 0
M  V30 33 C 1.150600 -1.050370 -3.923467 0
M  V30 34 N 2.213475 -1.407987 -0.888983 0
M  V30 35 C 2.397822 -0.777393 0.287647 0
M  V30 36 C 3.374755 -0.899560 1.259305 0
M  V30 37 H 2.597003 -0.268661 5.169944 0
M  V30 38 H 2.501301 -2.064133 5.120919 0
M  V30 39 H 3.526892 -1.255279 6.310140 0
M  V30 40 H 3.675472 -3.327224 3.790439 0
M  V30 41 H 5.252439 -2.646039 3.075756 0
M  V30 42 H 5.134744 -3.155048 4.767903 0
M  V30 43 H 4.670374 0.621083 3.853776 0
M  V30 44 H 5.396418 -0.603173 2.811998 0
M  V30 45 H 2.308606 1.363354 3.430782 0
M  V30 46 H 0.586586 1.589074 1.737589 0
M  V30 47 H 0.091022 1.998579 -2.501713 0
M  V30 48 H -1.985664 3.427986 -2.549595 0
M  V30 49 H -4.631877 2.149533 0.924488 0
M  V30 50 H -4.532381 0.523412 2.760051 0
M  V30 51 H -2.772020 0.645560 2.583159 0
M  V30 52 H -4.048548 -0.407000 -0.579151 0
M  V30 53 H -3.555643 -4.515426 0.036166 0
M  V30 54 H -3.200938 -4.155837 2.397838 0
M  V30 55 H -1.331741 -1.949647 -1.872822 0
M  V30 56 H -2.355389 -2.519495 -4.021840 0
M  V30 57 H 1.210309 -1.168185 -6.081071 0
M  V30 58 H 2.155917 -0.626403 -3.845616 0
M  V30 59 H 4.152848 -1.635242 1.063259 0
M  V30 END ATOM
M  V30 BEGIN BOND
M  V30 1 1 1 2
M  V30 2 1 2 3
M  V30 3 1 2 4
M  V30 4 1 4 5
M  V30 5 1 5 6
M  V30 6 2 6 7
M  V30 7 1 7 8
M  V30 8 1 8 9
M  V30 9 1 9 10
M  V30 10 2 10 11
M  V30 11 1 11 12
M  V30 12 2 12 13
M  V30 13 1 13 14
M  V30 14 1 14 15
M  V30 15 1 15 16
M  V30 16 1 16 17
M  V30 17 2 17 18
M  V30 18 1 18 19
M  V30 19 1 19 20
M  V30 20 2 19 21
M  V30 21 1 21 22
M  V30 22 2 22 23
M  V30 23 1 23 24
M  V30 24 2 14 25
M  V30 25 2 9 26
M  V30 26 1 26 27
M  V30 27 2 27 28
M  V30 28 1 28 29
M  V30 29 2 29 30
M  V30 30 1 30 31
M  V30 31 1 30 32
M  V30 32 2 32 33
M  V30 33 1 26 34
M  V30 34 2 34 35
M  V30 35 1 35 36
M  V30 36 2 36 5
M  V30 37 1 35 8
M  V30 38 1 25 10
M  V30 39 1 33 27
M  V30 40 1 23 17
M  V30 41 1 1 37
M  V30 42 1 1 38
M  V30 43 1 1 39
M  V30 44 1 3 40
M  V30 45 1 3 41
M  V30 46 1 3 42
M  V30 47 1 4 43
M  V30 48 1 4 44
M  V30 49 1 6 45
M  V30 50 1 7 46
M  V30 51 1 11 47
M  V30 52 1 12 48
M  V30 53 1 15 49
M  V30 54 1 16 50
M  V30 55 1 16 51
M  V30 56 1 18 52
M  V30 57 1 21 53
M  V30 58 1 22 54
M  V30 59 1 28 55
M  V30 60 1 29 56
M  V30 61 1 32 57
M  V30 62 1 33 58
M  V30 63 1 36 59
M  V30 END BOND
M  V30 END CTAB
M  END
>  <Dataset>  (594) 
ChEMBL_Kinases

>  <Ligand_Instance>  (594) 
nan

>  <PDB_ID>  (594) 
nan

>  <Standardized_SMILES>  (594) 
CN(C)Cc1ccn2c(-c3ccnc(NCc4cc(F)ccc4F)n3)c(-c3ccc(F)cc3)nc2c1

>  <Name>  (594) 
nan

>  <Pocket>  (594) 
nan

>  <ATP_Site>  (594) 
nan

>  <Peripheral>  (594) 
nan

>  <Num_H_Atoms_ProtBoundConf>  (594) 
nan

>  <Num_Resolved_Atoms>  (594) 
nan

>  <Num_Not_Resolved_Atoms>  (594) 
nan

$$$$
CHEMBL250992
     RDKit          3D

  0  0  0  0  0  0  0  0  0  0999 V3000
M  V30 BEGIN CTAB
M  V30 COUNTS 44 47 0 0 0
M  V30 BEGIN ATOM
M  V30 1 N -2.234328 -6.824326 -3.719271 0
M  V30 2 C -0.816743 -6.883232 -3.610335 0
M  V30 3 O -0.229965 -7.847603 -4.165310 0
M  V30 4 C -0.086929 -5.852717 -2.877029 0
M  V30 5 C 1.283571 -5.927982 -2.783057 0
M  V30 6 C 1.972654 -4.934647 -2.077618 0
M  V30 7 C 1.281377 -3.885081 -1.479324 0
M  V30 8 N 1.667928 -2.804649 -0.749585 0
M  V30 9 C 0.578408 -2.089630 -0.406043 0
M  V30 10 C 0.577578 -0.856337 0.381092 0
M  V30 11 C 1.787760 -0.355961 0.825112 0
M  V30 12 C 1.748959 0.816206 1.569751 0
M  V30 13 C 0.551069 1.464557 1.860663 0
M  V30 14 O 0.779547 2.605334 2.612785 0
M  V30 15 C -0.167808 3.498871 3.086234 0
M  V30 16 C 0.011117 4.925217 2.635436 0
M  V30 17 C 0.947983 5.516585 3.680571 0
M  V30 18 C 1.024564 4.542666 4.812061 0
M  V30 19 O 2.194058 3.782148 4.785584 0
M  V30 20 C -0.172266 3.640129 4.592234 0
M  V30 21 C -0.636721 0.933547 1.399366 0
M  V30 22 C -0.621717 -0.230058 0.657731 0
M  V30 23 N -0.484741 -2.728304 -0.923894 0
M  V30 24 C -0.104107 -3.834407 -1.590546 0
M  V30 25 C -0.768815 -4.826363 -2.292577 0
M  V30 26 H -2.858267 -6.314697 -3.047089 0
M  V30 27 H -2.763178 -7.285035 -4.478475 0
M  V30 28 H 1.829356 -6.739843 -3.244708 0
M  V30 29 H 3.065129 -4.959174 -1.980042 0
M  V30 30 H 2.682481 -2.608284 -0.519129 0
M  V30 31 H 2.699127 -0.883236 0.581963 0
M  V30 32 H 2.752897 1.137442 1.878219 0
M  V30 33 H -1.204715 3.199872 2.788448 0
M  V30 34 H -0.937380 5.483117 2.634278 0
M  V30 35 H 0.499376 5.020893 1.655398 0
M  V30 36 H 0.532387 6.484063 4.063595 0
M  V30 37 H 1.943282 5.743617 3.240609 0
M  V30 38 H 0.925053 5.073411 5.797390 0
M  V30 39 H 2.083733 3.109150 5.516993 0
M  V30 40 H 0.045259 2.683142 5.112161 0
M  V30 41 H -1.065473 4.130871 4.974651 0
M  V30 42 H -1.491387 1.511210 1.680426 0
M  V30 43 H -1.587790 -0.599241 0.322610 0
M  V30 44 H -1.834436 -4.702061 -2.323741 0
M  V30 END ATOM
M  V30 BEGIN BOND
M  V30 1 1 1 2
M  V30 2 2 2 3
M  V30 3 1 2 4
M  V30 4 2 4 5
M  V30 5 1 5 6
M  V30 6 2 6 7
M  V30 7 1 7 8
M  V30 8 1 8 9
M  V30 9 1 9 10
M  V30 10 2 10 11
M  V30 11 1 11 12
M  V30 12 2 12 13
M  V30 13 1 13 14
M  V30 14 1 14 15
M  V30 15 1 15 16
M  V30 16 1 16 17
M  V30 17 1 17 18
M  V30 18 1 18 19
M  V30 19 1 18 20
M  V30 20 1 13 21
M  V30 21 2 21 22
M  V30 22 2 9 23
M  V30 23 1 23 24
M  V30 24 2 24 25
M  V30 25 1 25 4
M  V30 26 1 24 7
M  V30 27 1 22 10
M  V30 28 1 20 15
M  V30 29 1 1 26
M  V30 30 1 1 27
M  V30 31 1 5 28
M  V30 32 1 6 29
M  V30 33 1 8 30
M  V30 34 1 11 31
M  V30 35 1 12 32
M  V30 36 1 15 33
M  V30 37 1 16 34
M  V30 38 1 16 35
M  V30 39 1 17 36
M  V30 40 1 17 37
M  V30 41 1 18 38
M  V30 42 1 19 39
M  V30 43 1 20 40
M  V30 44 1 20 41
M  V30 45 1 21 42
M  V30 46 1 22 43
M  V30 47 1 25 44
M  V30 END BOND
M  V30 END CTAB
M  END
>  <Dataset>  (595) 
ChEMBL_Kinases

>  <Ligand_Instance>  (595) 
nan

>  <PDB_ID>  (595) 
nan

>  <Standardized_SMILES>  (595) 
NC(=O)c1ccc2[nH]c(-c3ccc(OC4CCC(O)C4)cc3)nc2c1

>  <Name>  (595) 
nan

>  <Pocket>  (595) 
nan

>  <ATP_Site>  (595) 
nan

>  <Peripheral>  (595) 
nan

>  <Num_H_Atoms_ProtBoundConf>  (595) 
nan

>  <Num_Resolved_Atoms>  (595) 
nan

>  <Num_Not_Resolved_Atoms>  (595) 
nan

$$$$
CHEMBL250988
     RDKit          3D

  0  0  0  0  0  0  0  0  0  0999 V3000
M  V30 BEGIN CTAB
M  V30 COUNTS 56 59 0 0 0
M  V30 BEGIN ATOM
M  V30 1 C 3.524024 0.415291 5.064891 0
M  V30 2 N 4.313694 -0.761895 4.758470 0
M  V30 3 C 3.414862 -1.890650 5.009880 0
M  V30 4 C 4.806790 -0.758575 3.402166 0
M  V30 5 C 3.707668 -0.721156 2.398718 0
M  V30 6 C 3.253233 0.512995 1.978008 0
M  V30 7 C 2.236096 0.597450 1.049373 0
M  V30 8 N 1.639186 -0.480791 0.509835 0
M  V30 9 C 0.642111 -0.676498 -0.398970 0
M  V30 10 C -0.013063 0.504232 -1.000873 0
M  V30 11 C 0.707496 1.407013 -1.755628 0
M  V30 12 C -0.006035 2.481388 -2.273079 0
M  V30 13 N -1.324041 2.622864 -2.044394 0
M  V30 14 C -2.018169 1.733946 -1.304780 0
M  V30 15 N -3.411199 1.873236 -1.053959 0
M  V30 16 C -4.171555 0.923682 -0.267448 0
M  V30 17 C -4.151686 -0.475134 -0.871385 0
M  V30 18 C -4.984009 -1.371781 0.047642 0
M  V30 19 O -6.285348 -0.912452 0.137315 0
M  V30 20 N -1.329856 0.702724 -0.809152 0
M  V30 21 C 0.476776 -2.055761 -0.543425 0
M  V30 22 C -0.537336 -2.558269 -1.465715 0
M  V30 23 C -0.377135 -2.234757 -2.807136 0
M  V30 24 C -1.281454 -2.657592 -3.785746 0
M  V30 25 C -2.365689 -3.419906 -3.403232 0
M  V30 26 F -3.214684 -3.808332 -4.373755 0
M  V30 27 C -2.509779 -3.729741 -2.081780 0
M  V30 28 C -1.631592 -3.324284 -1.099959 0
M  V30 29 N 1.366826 -2.653341 0.271545 0
M  V30 30 C 2.088778 -1.695468 0.925901 0
M  V30 31 C 3.104158 -1.846738 1.853341 0
M  V30 32 H 2.671678 0.542288 4.371282 0
M  V30 33 H 3.084524 0.244226 6.072379 0
M  V30 34 H 4.101667 1.351859 5.007725 0
M  V30 35 H 2.920376 -1.676413 5.989319 0
M  V30 36 H 2.592468 -1.941103 4.262514 0
M  V30 37 H 3.959527 -2.825924 5.105315 0
M  V30 38 H 5.419778 0.135850 3.269087 0
M  V30 39 H 5.453255 -1.640048 3.289943 0
M  V30 40 H 3.682501 1.421572 2.365087 0
M  V30 41 H 1.914680 1.596068 0.750906 0
M  V30 42 H 1.759581 1.211212 -1.884942 0
M  V30 43 H 0.567704 3.183297 -2.863212 0
M  V30 44 H -3.884205 2.723415 -1.477762 0
M  V30 45 H -5.231800 1.248795 -0.257234 0
M  V30 46 H -3.823229 0.922213 0.769953 0
M  V30 47 H -4.579153 -0.491213 -1.878703 0
M  V30 48 H -3.128467 -0.849195 -0.909579 0
M  V30 49 H -4.938310 -2.424999 -0.338853 0
M  V30 50 H -4.547125 -1.382325 1.054876 0
M  V30 51 H -6.726980 -1.160001 0.984092 0
M  V30 52 H 0.463428 -1.638973 -3.134479 0
M  V30 53 H -1.120009 -2.383361 -4.820154 0
M  V30 54 H -3.375751 -4.333728 -1.805635 0
M  V30 55 H -1.741027 -3.567764 -0.047790 0
M  V30 56 H 3.459325 -2.813311 2.182042 0
M  V30 END ATOM
M  V30 BEGIN BOND
M  V30 1 1 1 2
M  V30 2 1 2 3
M  V30 3 1 2 4
M  V30 4 1 4 5
M  V30 5 1 5 6
M  V30 6 2 6 7
M  V30 7 1 7 8
M  V30 8 1 8 9
M  V30 9 1 9 10
M  V30 10 2 10 11
M  V30 11 1 11 12
M  V30 12 2 12 13
M  V30 13 1 13 14
M  V30 14 1 14 15
M  V30 15 1 15 16
M  V30 16 1 16 17
M  V30 17 1 17 18
M  V30 18 1 18 19
M  V30 19 2 14 20
M  V30 20 2 9 21
M  V30 21 1 21 22
M  V30 22 2 22 23
M  V30 23 1 23 24
M  V30 24 2 24 25
M  V30 25 1 25 26
M  V30 26 1 25 27
M  V30 27 2 27 28
M  V30 28 1 21 29
M  V30 29 2 29 30
M  V30 30 1 30 31
M  V30 31 2 31 5
M  V30 32 1 30 8
M  V30 33 1 20 10
M  V30 34 1 28 22
M  V30 35 1 1 32
M  V30 36 1 1 33
M  V30 37 1 1 34
M  V30 38 1 3 35
M  V30 39 1 3 36
M  V30 40 1 3 37
M  V30 41 1 4 38
M  V30 42 1 4 39
M  V30 43 1 6 40
M  V30 44 1 7 41
M  V30 45 1 11 42
M  V30 46 1 12 43
M  V30 47 1 15 44
M  V30 48 1 16 45
M  V30 49 1 16 46
M  V30 50 1 17 47
M  V30 51 1 17 48
M  V30 52 1 18 49
M  V30 53 1 18 50
M  V30 54 1 19 51
M  V30 55 1 23 52
M  V30 56 1 24 53
M  V30 57 1 27 54
M  V30 58 1 28 55
M  V30 59 1 31 56
M  V30 END BOND
M  V30 END CTAB
M  END
>  <Dataset>  (596) 
ChEMBL_Kinases

>  <Ligand_Instance>  (596) 
nan

>  <PDB_ID>  (596) 
nan

>  <Standardized_SMILES>  (596) 
CN(C)Cc1ccn2c(-c3ccnc(NCCCO)n3)c(-c3ccc(F)cc3)nc2c1

>  <Name>  (596) 
nan

>  <Pocket>  (596) 
nan

>  <ATP_Site>  (596) 
nan

>  <Peripheral>  (596) 
nan

>  <Num_H_Atoms_ProtBoundConf>  (596) 
nan

>  <Num_Resolved_Atoms>  (596) 
nan

>  <Num_Not_Resolved_Atoms>  (596) 
nan

$$$$
CHEMBL250971
     RDKit          3D

  0  0  0  0  0  0  0  0  0  0999 V3000
M  V30 BEGIN CTAB
M  V30 COUNTS 46 49 0 0 0
M  V30 BEGIN ATOM
M  V30 1 C 0.230446 -3.350228 5.024428 0
M  V30 2 N 1.625822 -2.978216 5.161471 0
M  V30 3 C 1.630445 -1.553307 5.455658 0
M  V30 4 C 2.318327 -3.244637 3.900121 0
M  V30 5 C 1.751323 -2.464800 2.771348 0
M  V30 6 C 2.352789 -1.216108 2.585703 0
M  V30 7 C 1.977931 -0.324572 1.585178 0
M  V30 8 N 0.965777 -0.753911 0.779771 0
M  V30 9 C 0.350682 -0.157327 -0.283777 0
M  V30 10 C 0.731760 1.163118 -0.756674 0
M  V30 11 C 1.333628 1.567640 -1.929212 0
M  V30 12 C 1.632110 2.861019 -2.235166 0
M  V30 13 N 1.310442 3.798369 -1.317503 0
M  V30 14 C 0.714808 3.446380 -0.144933 0
M  V30 15 N 0.428669 4.539631 0.740783 0
M  V30 16 N 0.433055 2.162886 0.128092 0
M  V30 17 C -0.628773 -0.980362 -0.790078 0
M  V30 18 C -1.563390 -0.838580 -1.893354 0
M  V30 19 C -1.371020 -0.853063 -3.244931 0
M  V30 20 F -0.099853 -1.044921 -3.623221 0
M  V30 21 C -2.394104 -0.694966 -4.155218 0
M  V30 22 C -3.659846 -0.516327 -3.637519 0
M  V30 23 F -4.640590 -0.364535 -4.580738 0
M  V30 24 C -3.972319 -0.484526 -2.293023 0
M  V30 25 C -2.881042 -0.651803 -1.450777 0
M  V30 26 F -3.227820 -0.614632 -0.117763 0
M  V30 27 N -0.601602 -2.101058 -0.010221 0
M  V30 28 C 0.368729 -1.947071 0.933968 0
M  V30 29 C 0.728580 -2.843920 1.921757 0
M  V30 30 H 0.103347 -4.294750 4.465414 0
M  V30 31 H -0.320179 -2.566701 4.474514 0
M  V30 32 H -0.236890 -3.427689 6.016847 0
M  V30 33 H 1.018671 -1.043577 4.673570 0
M  V30 34 H 1.061164 -1.409566 6.396359 0
M  V30 35 H 2.633333 -1.130149 5.583227 0
M  V30 36 H 2.145191 -4.321066 3.678506 0
M  V30 37 H 3.393217 -3.094910 3.970059 0
M  V30 38 H 3.160114 -0.840187 3.206259 0
M  V30 39 H 2.439349 0.627027 1.447902 0
M  V30 40 H 1.554774 0.748810 -2.590432 0
M  V30 41 H 2.102463 3.040094 -3.186253 0
M  V30 42 H 1.278859 4.965078 1.212548 0
M  V30 43 H -0.444855 5.016974 1.028385 0
M  V30 44 H -2.167885 -0.716797 -5.192597 0
M  V30 45 H -4.979492 -0.341579 -1.933666 0
M  V30 46 H 0.302153 -3.817659 2.113088 0
M  V30 END ATOM
M  V30 BEGIN BOND
M  V30 1 1 1 2
M  V30 2 1 2 3
M  V30 3 1 2 4
M  V30 4 1 4 5
M  V30 5 1 5 6
M  V30 6 2 6 7
M  V30 7 1 7 8
M  V30 8 1 8 9
M  V30 9 1 9 10
M  V30 10 2 10 11
M  V30 11 1 11 12
M  V30 12 2 12 13
M  V30 13 1 13 14
M  V30 14 1 14 15
M  V30 15 2 14 16
M  V30 16 2 9 17
M  V30 17 1 17 18
M  V30 18 2 18 19
M  V30 19 1 19 20
M  V30 20 1 19 21
M  V30 21 2 21 22
M  V30 22 1 22 23
M  V30 23 1 22 24
M  V30 24 2 24 25
M  V30 25 1 25 26
M  V30 26 1 17 27
M  V30 27 2 27 28
M  V30 28 1 28 29
M  V30 29 2 29 5
M  V30 30 1 28 8
M  V30 31 1 16 10
M  V30 32 1 25 18
M  V30 33 1 1 30
M  V30 34 1 1 31
M  V30 35 1 1 32
M  V30 36 1 3 33
M  V30 37 1 3 34
M  V30 38 1 3 35
M  V30 39 1 4 36
M  V30 40 1 4 37
M  V30 41 1 6 38
M  V30 42 1 7 39
M  V30 43 1 11 40
M  V30 44 1 12 41
M  V30 45 1 15 42
M  V30 46 1 15 43
M  V30 47 1 21 44
M  V30 48 1 24 45
M  V30 49 1 29 46
M  V30 END BOND
M  V30 END CTAB
M  END
>  <Dataset>  (597) 
ChEMBL_Kinases

>  <Ligand_Instance>  (597) 
nan

>  <PDB_ID>  (597) 
nan

>  <Standardized_SMILES>  (597) 
CN(C)Cc1ccn2c(-c3ccnc(N)n3)c(-c3c(F)cc(F)cc3F)nc2c1

>  <Name>  (597) 
nan

>  <Pocket>  (597) 
nan

>  <ATP_Site>  (597) 
nan

>  <Peripheral>  (597) 
nan

>  <Num_H_Atoms_ProtBoundConf>  (597) 
nan

>  <Num_Resolved_Atoms>  (597) 
nan

>  <Num_Not_Resolved_Atoms>  (597) 
nan

$$$$
CHEMBL250970
     RDKit          3D

  0  0  0  0  0  0  0  0  0  0999 V3000
M  V30 BEGIN CTAB
M  V30 COUNTS 46 49 0 0 0
M  V30 BEGIN ATOM
M  V30 1 C 2.337017 -4.973415 4.892605 0
M  V30 2 N 1.918139 -3.946907 3.990575 0
M  V30 3 C 0.599474 -3.427072 4.262260 0
M  V30 4 C 2.169148 -4.185559 2.610279 0
M  V30 5 C 1.661159 -3.011731 1.844769 0
M  V30 6 C 2.492863 -1.939420 1.596104 0
M  V30 7 C 2.009815 -0.859423 0.886271 0
M  V30 8 N 0.735323 -0.786189 0.406276 0
M  V30 9 C 0.068667 0.163159 -0.301738 0
M  V30 10 C 0.730535 1.404545 -0.693100 0
M  V30 11 C 1.042703 1.912771 -1.911170 0
M  V30 12 C 1.674873 3.120587 -2.033925 0
M  V30 13 N 1.997949 3.827824 -0.914469 0
M  V30 14 C 1.684916 3.318357 0.312661 0
M  V30 15 N 2.050879 4.107991 1.437227 0
M  V30 16 N 1.062291 2.127708 0.418899 0
M  V30 17 C -1.202168 -0.337290 -0.492763 0
M  V30 18 C -2.231812 0.393552 -1.219124 0
M  V30 19 C -3.292007 0.757001 -0.381379 0
M  V30 20 C -4.381594 1.456261 -0.856151 0
M  V30 21 C -4.447113 1.816076 -2.187579 0
M  V30 22 Cl -5.731171 2.698810 -2.986422 0
M  V30 23 C -3.401356 1.455901 -3.007706 0
M  V30 24 C -2.308489 0.757980 -2.545910 0
M  V30 25 N -1.275644 -1.553940 0.092022 0
M  V30 26 C -0.081091 -1.851900 0.656954 0
M  V30 27 C 0.364184 -2.951144 1.363210 0
M  V30 28 H 1.788995 -5.928747 4.809291 0
M  V30 29 H 2.167312 -4.563452 5.927830 0
M  V30 30 H 3.441150 -5.099783 4.788169 0
M  V30 31 H 0.430264 -3.248787 5.341521 0
M  V30 32 H 0.499969 -2.431923 3.767333 0
M  V30 33 H -0.225175 -4.045949 3.905009 0
M  V30 34 H 1.754278 -5.136098 2.227558 0
M  V30 35 H 3.273406 -4.206025 2.461472 0
M  V30 36 H 3.509902 -1.976340 1.967824 0
M  V30 37 H 2.710285 -0.043192 0.720476 0
M  V30 38 H 0.747987 1.279472 -2.715214 0
M  V30 39 H 1.908639 3.497162 -3.010273 0
M  V30 40 H 2.100538 5.146385 1.387939 0
M  V30 41 H 2.257936 3.534985 2.295070 0
M  V30 42 H -3.399375 0.554065 0.688261 0
M  V30 43 H -5.234572 1.770251 -0.270332 0
M  V30 44 H -3.328129 1.674006 -4.062256 0
M  V30 45 H -1.446759 0.430770 -3.106812 0
M  V30 46 H -0.315847 -3.747801 1.526360 0
M  V30 END ATOM
M  V30 BEGIN BOND
M  V30 1 1 1 2
M  V30 2 1 2 3
M  V30 3 1 2 4
M  V30 4 1 4 5
M  V30 5 1 5 6
M  V30 6 2 6 7
M  V30 7 1 7 8
M  V30 8 1 8 9
M  V30 9 1 9 10
M  V30 10 2 10 11
M  V30 11 1 11 12
M  V30 12 2 12 13
M  V30 13 1 13 14
M  V30 14 1 14 15
M  V30 15 2 14 16
M  V30 16 2 9 17
M  V30 17 1 17 18
M  V30 18 2 18 19
M  V30 19 1 19 20
M  V30 20 2 20 21
M  V30 21 1 21 22
M  V30 22 1 21 23
M  V30 23 2 23 24
M  V30 24 1 17 25
M  V30 25 2 25 26
M  V30 26 1 26 27
M  V30 27 2 27 5
M  V30 28 1 26 8
M  V30 29 1 16 10
M  V30 30 1 24 18
M  V30 31 1 1 28
M  V30 32 1 1 29
M  V30 33 1 1 30
M  V30 34 1 3 31
M  V30 35 1 3 32
M  V30 36 1 3 33
M  V30 37 1 4 34
M  V30 38 1 4 35
M  V30 39 1 6 36
M  V30 40 1 7 37
M  V30 41 1 11 38
M  V30 42 1 12 39
M  V30 43 1 15 40
M  V30 44 1 15 41
M  V30 45 1 19 42
M  V30 46 1 20 43
M  V30 47 1 23 44
M  V30 48 1 24 45
M  V30 49 1 27 46
M  V30 END BOND
M  V30 END CTAB
M  END
>  <Dataset>  (598) 
ChEMBL_Kinases

>  <Ligand_Instance>  (598) 
nan

>  <PDB_ID>  (598) 
nan

>  <Standardized_SMILES>  (598) 
CN(C)Cc1ccn2c(-c3ccnc(N)n3)c(-c3ccc(Cl)cc3)nc2c1

>  <Name>  (598) 
nan

>  <Pocket>  (598) 
nan

>  <ATP_Site>  (598) 
nan

>  <Peripheral>  (598) 
nan

>  <Num_H_Atoms_ProtBoundConf>  (598) 
nan

>  <Num_Resolved_Atoms>  (598) 
nan

>  <Num_Not_Resolved_Atoms>  (598) 
nan

$$$$
CHEMBL250963
     RDKit          3D

  0  0  0  0  0  0  0  0  0  0999 V3000
M  V30 BEGIN CTAB
M  V30 COUNTS 64 68 0 0 0
M  V30 BEGIN ATOM
M  V30 1 C 4.101407 -3.762001 -1.293627 0
M  V30 2 C 3.464781 -2.467233 -1.696869 0
M  V30 3 C 2.155294 -2.381547 -2.108724 0
M  V30 4 C 1.628296 -1.149648 -2.466023 0
M  V30 5 C 2.394955 0.018276 -2.419491 0
M  V30 6 C 1.705810 1.263576 -2.826154 0
M  V30 7 N 1.071469 1.925171 -1.691261 0
M  V30 8 C 2.091557 2.247484 -0.755506 0
M  V30 9 C 1.690671 3.191526 0.338121 0
M  V30 10 C 1.188410 4.459351 -0.276261 0
M  V30 11 C 0.075909 4.153440 -1.248929 0
M  V30 12 C -1.277519 4.233780 -0.615435 0
M  V30 13 O -1.599162 3.433209 0.428792 0
M  V30 14 C -1.748939 2.129576 0.675906 0
M  V30 15 C -2.083708 2.015321 2.040147 0
M  V30 16 C -2.318092 0.770699 2.653561 0
M  V30 17 C -2.212015 -0.361608 1.878364 0
M  V30 18 C -2.442752 -1.684879 2.462471 0
M  V30 19 N -2.372802 -2.870297 1.810411 0
M  V30 20 C -2.649709 -3.872135 2.684042 0
M  V30 21 C -2.700937 -5.235624 2.493709 0
M  V30 22 C -3.019895 -5.905092 3.648386 0
M  V30 23 C -3.102588 -7.356755 3.565872 0
M  V30 24 N -2.899231 -8.064504 2.326841 0
M  V30 25 O -3.290764 -8.454465 4.125214 0
M  V30 26 C -3.282729 -5.397840 4.915213 0
M  V30 27 C -3.203793 -4.003549 4.997249 0
M  V30 28 C -2.888465 -3.243820 3.886075 0
M  V30 29 N -2.767613 -1.909749 3.771940 0
M  V30 30 C -1.888354 -0.317601 0.538288 0
M  V30 31 C -1.675204 0.930983 0.013334 0
M  V30 32 C 0.332262 3.040379 -2.185588 0
M  V30 33 C 3.701759 -0.118598 -2.000615 0
M  V30 34 C 4.244585 -1.330099 -1.641844 0
M  V30 35 H 4.512748 -3.701946 -0.279954 0
M  V30 36 H 4.866244 -3.967482 -2.074507 0
M  V30 37 H 3.281525 -4.533512 -1.290093 0
M  V30 38 H 1.539410 -3.280239 -2.152737 0
M  V30 39 H 0.593731 -1.130314 -2.783817 0
M  V30 40 H 1.000095 1.088490 -3.655193 0
M  V30 41 H 2.506426 1.909113 -3.274926 0
M  V30 42 H 2.452652 1.292416 -0.318023 0
M  V30 43 H 2.963035 2.701811 -1.287149 0
M  V30 44 H 2.664806 3.403135 0.897578 0
M  V30 45 H 1.005411 2.718010 1.066113 0
M  V30 46 H 0.787545 5.176214 0.472228 0
M  V30 47 H 2.034356 4.909696 -0.845983 0
M  V30 48 H 0.101041 5.100706 -1.933328 0
M  V30 49 H -2.010753 4.003175 -1.467362 0
M  V30 50 H -1.511229 5.325865 -0.430778 0
M  V30 51 H -2.211524 2.796386 2.804172 0
M  V30 52 H -2.578248 0.611326 3.688373 0
M  V30 53 H -2.521223 -5.742332 1.581157 0
M  V30 54 H -3.329238 -8.630072 1.565580 0
M  V30 55 H -2.064932 -8.252953 1.696651 0
M  V30 56 H -3.524223 -6.037618 5.749899 0
M  V30 57 H -3.394192 -3.527870 5.948285 0
M  V30 58 H -2.901272 -1.211413 4.546820 0
M  V30 59 H -1.786574 -1.156118 -0.132978 0
M  V30 60 H -1.434544 1.076191 -1.022414 0
M  V30 61 H 0.871250 3.448220 -3.104628 0
M  V30 62 H -0.666513 2.683159 -2.559141 0
M  V30 63 H 4.275263 0.790496 -1.972859 0
M  V30 64 H 5.266499 -1.373650 -1.324879 0
M  V30 END ATOM
M  V30 BEGIN BOND
M  V30 1 1 1 2
M  V30 2 2 2 3
M  V30 3 1 3 4
M  V30 4 2 4 5
M  V30 5 1 5 6
M  V30 6 1 6 7
M  V30 7 1 7 8
M  V30 8 1 8 9
M  V30 9 1 9 10
M  V30 10 1 10 11
M  V30 11 1 11 12
M  V30 12 1 12 13
M  V30 13 1 13 14
M  V30 14 2 14 15
M  V30 15 1 15 16
M  V30 16 2 16 17
M  V30 17 1 17 18
M  V30 18 2 18 19
M  V30 19 1 19 20
M  V30 20 2 20 21
M  V30 21 1 21 22
M  V30 22 1 22 23
M  V30 23 1 23 24
M  V30 24 2 23 25
M  V30 25 2 22 26
M  V30 26 1 26 27
M  V30 27 2 27 28
M  V30 28 1 28 29
M  V30 29 1 17 30
M  V30 30 2 30 31
M  V30 31 1 11 32
M  V30 32 1 5 33
M  V30 33 2 33 34
M  V30 34 1 34 2
M  V30 35 1 32 7
M  V30 36 1 31 14
M  V30 37 1 29 18
M  V30 38 1 28 20
M  V30 39 1 1 35
M  V30 40 1 1 36
M  V30 41 1 1 37
M  V30 42 1 3 38
M  V30 43 1 4 39
M  V30 44 1 6 40
M  V30 45 1 6 41
M  V30 46 1 8 42
M  V30 47 1 8 43
M  V30 48 1 9 44
M  V30 49 1 9 45
M  V30 50 1 10 46
M  V30 51 1 10 47
M  V30 52 1 11 48
M  V30 53 1 12 49
M  V30 54 1 12 50
M  V30 55 1 15 51
M  V30 56 1 16 52
M  V30 57 1 21 53
M  V30 58 1 24 54
M  V30 59 1 24 55
M  V30 60 1 26 56
M  V30 61 1 27 57
M  V30 62 1 29 58
M  V30 63 1 30 59
M  V30 64 1 31 60
M  V30 65 1 32 61
M  V30 66 1 32 62
M  V30 67 1 33 63
M  V30 68 1 34 64
M  V30 END BOND
M  V30 END CTAB
M  END
>  <Dataset>  (599) 
ChEMBL_Kinases

>  <Ligand_Instance>  (599) 
nan

>  <PDB_ID>  (599) 
nan

>  <Standardized_SMILES>  (599) 
Cc1ccc(CN2CCCC(COc3ccc(-c4nc5cc(C(N)=O)ccc5[nH]4)cc3)C2)cc1

>  <Name>  (599) 
nan

>  <Pocket>  (599) 
nan

>  <ATP_Site>  (599) 
nan

>  <Peripheral>  (599) 
nan

>  <Num_H_Atoms_ProtBoundConf>  (599) 
nan

>  <Num_Resolved_Atoms>  (599) 
nan

>  <Num_Not_Resolved_Atoms>  (599) 
nan

$$$$
CHEMBL255212
     RDKit          3D

  0  0  0  0  0  0  0  0  0  0999 V3000
M  V30 BEGIN CTAB
M  V30 COUNTS 64 69 0 0 0
M  V30 BEGIN ATOM
M  V30 1 N 4.486614 2.273113 8.249370 0
M  V30 2 C 4.196685 1.968532 7.176259 0
M  V30 3 C 3.822649 1.609875 5.844358 0
M  V30 4 C 4.745654 0.979253 5.015327 0
M  V30 5 N 4.475557 0.601043 3.733043 0
M  V30 6 C 3.242293 0.849375 3.229896 0
M  V30 7 C 2.817801 0.498816 1.878961 0
M  V30 8 C 2.435581 1.396839 0.905104 0
M  V30 9 C 2.047275 0.982372 -0.340371 0
M  V30 10 C 2.027782 -0.356503 -0.657611 0
M  V30 11 C 1.638383 -0.993362 -1.938840 0
M  V30 12 N 0.257965 -1.319881 -2.012657 0
M  V30 13 C -0.569461 -0.183432 -1.914218 0
M  V30 14 C -2.012062 -0.398038 -2.308210 0
M  V30 15 C -2.280788 -1.440315 -3.283608 0
M  V30 16 N -3.089915 -2.561720 -2.915360 0
M  V30 17 C -4.008393 -3.216335 -3.691133 0
M  V30 18 O -4.281963 -2.916791 -4.886005 0
M  V30 19 N -4.592479 -4.225672 -3.030004 0
M  V30 20 C -4.077715 -4.266521 -1.802089 0
M  V30 21 C -4.318050 -5.094350 -0.727371 0
M  V30 22 C -3.633193 -4.924893 0.470224 0
M  V30 23 C -2.709715 -3.900149 0.536385 0
M  V30 24 C -2.507148 -3.104308 -0.560002 0
M  V30 25 C -3.166582 -3.242530 -1.761764 0
M  V30 26 C -1.014864 -1.846020 -4.011775 0
M  V30 27 C -0.000989 -2.272772 -3.017150 0
M  V30 28 C 2.411556 -1.273446 0.316976 0
M  V30 29 C 2.809810 -0.865943 1.590774 0
M  V30 30 C 2.268700 1.472566 3.990023 0
M  V30 31 C 0.921488 1.798585 3.587741 0
M  V30 32 C -0.049921 0.865025 3.223291 0
M  V30 33 C -1.324977 1.267171 2.849434 0
M  V30 34 C -1.622274 2.619102 2.842965 0
M  V30 35 C -0.694045 3.571778 3.195052 0
M  V30 36 C 0.580066 3.155274 3.567709 0
M  V30 37 C 2.574443 1.845293 5.291319 0
M  V30 38 H 5.746667 0.740059 5.322478 0
M  V30 39 H 2.452165 2.443808 1.157218 0
M  V30 40 H 1.743115 1.632851 -1.126528 0
M  V30 41 H 2.242874 -1.893254 -2.146600 0
M  V30 42 H 1.839201 -0.272136 -2.775986 0
M  V30 43 H -0.590068 0.127158 -0.827406 0
M  V30 44 H -0.069569 0.654116 -2.429460 0
M  V30 45 H -2.282306 0.621690 -2.738305 0
M  V30 46 H -2.708060 -0.386061 -1.413465 0
M  V30 47 H -2.871400 -0.963653 -4.138105 0
M  V30 48 H -5.325463 -4.863660 -3.423829 0
M  V30 49 H -5.041683 -5.897074 -0.782291 0
M  V30 50 H -3.790956 -5.551238 1.337469 0
M  V30 51 H -2.173370 -3.767035 1.472809 0
M  V30 52 H -1.777300 -2.338079 -0.423718 0
M  V30 53 H -1.272842 -2.697881 -4.679385 0
M  V30 54 H -0.656642 -0.964495 -4.609281 0
M  V30 55 H 0.925624 -2.556365 -3.588286 0
M  V30 56 H -0.355297 -3.249552 -2.577461 0
M  V30 57 H 2.429078 -2.350974 0.161550 0
M  V30 58 H 3.105251 -1.598048 2.336486 0
M  V30 59 H 0.225135 -0.174840 3.242763 0
M  V30 60 H -2.083127 0.552514 2.565421 0
M  V30 61 H -2.622431 2.939929 2.549929 0
M  V30 62 H -0.903989 4.629104 3.197584 0
M  V30 63 H 1.331213 3.904983 3.851840 0
M  V30 64 H 1.888876 2.341720 5.982235 0
M  V30 END ATOM
M  V30 BEGIN BOND
M  V30 1 3 1 2
M  V30 2 1 2 3
M  V30 3 2 3 4
M  V30 4 1 4 5
M  V30 5 2 5 6
M  V30 6 1 6 7
M  V30 7 2 7 8
M  V30 8 1 8 9
M  V30 9 2 9 10
M  V30 10 1 10 11
M  V30 11 1 11 12
M  V30 12 1 12 13
M  V30 13 1 13 14
M  V30 14 1 14 15
M  V30 15 1 15 16
M  V30 16 1 16 17
M  V30 17 2 17 18
M  V30 18 1 17 19
M  V30 19 1 19 20
M  V30 20 2 20 21
M  V30 21 1 21 22
M  V30 22 2 22 23
M  V30 23 1 23 24
M  V30 24 2 24 25
M  V30 25 1 15 26
M  V30 26 1 26 27
M  V30 27 1 10 28
M  V30 28 2 28 29
M  V30 29 1 6 30
M  V30 30 1 30 31
M  V30 31 2 31 32
M  V30 32 1 32 33
M  V30 33 2 33 34
M  V30 34 1 34 35
M  V30 35 2 35 36
M  V30 36 2 30 37
M  V30 37 1 37 3
M  V30 38 1 29 7
M  V30 39 1 36 31
M  V30 40 1 27 12
M  V30 41 1 25 16
M  V30 42 1 25 20
M  V30 43 1 4 38
M  V30 44 1 8 39
M  V30 45 1 9 40
M  V30 46 1 11 41
M  V30 47 1 11 42
M  V30 48 1 13 43
M  V30 49 1 13 44
M  V30 50 1 14 45
M  V30 51 1 14 46
M  V30 52 1 15 47
M  V30 53 1 19 48
M  V30 54 1 21 49
M  V30 55 1 22 50
M  V30 56 1 23 51
M  V30 57 1 24 52
M  V30 58 1 26 53
M  V30 59 1 26 54
M  V30 60 1 27 55
M  V30 61 1 27 56
M  V30 62 1 28 57
M  V30 63 1 29 58
M  V30 64 1 32 59
M  V30 65 1 33 60
M  V30 66 1 34 61
M  V30 67 1 35 62
M  V30 68 1 36 63
M  V30 69 1 37 64
M  V30 END BOND
M  V30 END CTAB
M  END
>  <Dataset>  (600) 
ChEMBL_Kinases

>  <Ligand_Instance>  (600) 
nan

>  <PDB_ID>  (600) 
nan

>  <Standardized_SMILES>  (600) 
N#Cc1cnc(-c2ccc(CN3CCC(n4c(=O)[nH]c5ccccc54)CC3)cc2)c(-c2ccccc2)c1

>  <Name>  (600) 
nan

>  <Pocket>  (600) 
nan

>  <ATP_Site>  (600) 
nan

>  <Peripheral>  (600) 
nan

>  <Num_H_Atoms_ProtBoundConf>  (600) 
nan

>  <Num_Resolved_Atoms>  (600) 
nan

>  <Num_Not_Resolved_Atoms>  (600) 
nan

$$$$
CHEMBL250601
     RDKit          3D

  0  0  0  0  0  0  0  0  0  0999 V3000
M  V30 BEGIN CTAB
M  V30 COUNTS 62 66 0 0 0
M  V30 BEGIN ATOM
M  V30 1 C 0.705680 -0.267985 3.830593 0
M  V30 2 C 1.790309 0.292637 2.945843 0
M  V30 3 C 2.497343 -0.603684 2.137202 0
M  V30 4 C 3.528868 -0.208566 1.339769 0
M  V30 5 C 3.879302 1.142053 1.342887 0
M  V30 6 C 3.201298 2.055454 2.129013 0
M  V30 7 C 2.157506 1.644676 2.931651 0
M  V30 8 C 1.294186 2.524321 3.787931 0
M  V30 9 N 0.120846 2.999062 3.142056 0
M  V30 10 C -0.878253 2.636961 2.205110 0
M  V30 11 N -2.020223 3.320863 1.907680 0
M  V30 12 C -2.836986 2.867803 0.955073 0
M  V30 13 C -2.598716 1.724870 0.230622 0
M  V30 14 C -1.451646 1.035979 0.527885 0
M  V30 15 C -1.061996 -0.177417 -0.175931 0
M  V30 16 C -0.669590 -0.026173 -1.510794 0
M  V30 17 C -0.521842 1.054119 -2.479769 0
M  V30 18 C -1.094505 1.282928 -3.711742 0
M  V30 19 C -0.759923 2.405039 -4.410153 0
M  V30 20 C 0.141723 3.353831 -3.948383 0
M  V30 21 F 0.430972 4.448183 -4.694075 0
M  V30 22 C 0.719327 3.127402 -2.710455 0
M  V30 23 C 0.391972 1.981874 -1.972992 0
M  V30 24 N -0.344261 -1.250295 -1.977649 0
M  V30 25 C -0.513252 -2.159910 -1.001309 0
M  V30 26 C -0.366434 -3.535984 -0.801813 0
M  V30 27 C -0.641588 -4.142452 0.387109 0
M  V30 28 C -0.432934 -5.610249 0.455176 0
M  V30 29 N -1.552782 -6.387014 0.123755 0
M  V30 30 C -2.715297 -6.269107 0.884410 0
M  V30 31 C -1.398700 -7.434647 -0.799695 0
M  V30 32 C -1.092390 -3.405321 1.484301 0
M  V30 33 C -1.230474 -2.051318 1.267833 0
M  V30 34 N -0.948210 -1.490767 0.079873 0
M  V30 35 N -0.671519 1.537730 1.493111 0
M  V30 36 H 1.194856 -0.339766 4.847535 0
M  V30 37 H -0.102713 0.451621 3.947497 0
M  V30 38 H 0.423112 -1.261272 3.469499 0
M  V30 39 H 2.222452 -1.664423 2.134060 0
M  V30 40 H 4.053550 -0.945345 0.722906 0
M  V30 41 H 4.701421 1.492339 0.716122 0
M  V30 42 H 3.431160 3.100215 2.165015 0
M  V30 43 H 1.042218 1.943870 4.701311 0
M  V30 44 H 1.910642 3.409207 4.120801 0
M  V30 45 H -0.128468 3.989523 3.465153 0
M  V30 46 H -3.699880 3.501259 0.820847 0
M  V30 47 H -3.284113 1.393113 -0.532049 0
M  V30 48 H -1.771952 0.494317 -3.971617 0
M  V30 49 H -1.241207 2.529367 -5.370064 0
M  V30 50 H 1.409327 3.892794 -2.401732 0
M  V30 51 H 0.936446 1.975530 -1.040098 0
M  V30 52 H -0.017476 -4.099578 -1.656903 0
M  V30 53 H 0.482876 -5.896353 -0.093014 0
M  V30 54 H -0.185273 -5.817535 1.538855 0
M  V30 55 H -3.456694 -5.569601 0.426200 0
M  V30 56 H -2.505349 -6.017686 1.943490 0
M  V30 57 H -3.236760 -7.261445 0.914551 0
M  V30 58 H -0.334685 -7.762289 -0.792308 0
M  V30 59 H -2.084817 -8.279071 -0.515891 0
M  V30 60 H -1.733819 -7.102052 -1.810645 0
M  V30 61 H -1.298957 -3.913872 2.403042 0
M  V30 62 H -1.584888 -1.480001 2.137022 0
M  V30 END ATOM
M  V30 BEGIN BOND
M  V30 1 1 1 2
M  V30 2 2 2 3
M  V30 3 1 3 4
M  V30 4 2 4 5
M  V30 5 1 5 6
M  V30 6 2 6 7
M  V30 7 1 7 8
M  V30 8 1 8 9
M  V30 9 1 9 10
M  V30 10 2 10 11
M  V30 11 1 11 12
M  V30 12 2 12 13
M  V30 13 1 13 14
M  V30 14 1 14 15
M  V30 15 2 15 16
M  V30 16 1 16 17
M  V30 17 2 17 18
M  V30 18 1 18 19
M  V30 19 2 19 20
M  V30 20 1 20 21
M  V30 21 1 20 22
M  V30 22 2 22 23
M  V30 23 1 16 24
M  V30 24 2 24 25
M  V30 25 1 25 26
M  V30 26 2 26 27
M  V30 27 1 27 28
M  V30 28 1 28 29
M  V30 29 1 29 30
M  V30 30 1 29 31
M  V30 31 1 27 32
M  V30 32 2 32 33
M  V30 33 1 33 34
M  V30 34 2 14 35
M  V30 35 1 7 2
M  V30 36 1 35 10
M  V30 37 1 34 15
M  V30 38 1 23 17
M  V30 39 1 34 25
M  V30 40 1 1 36
M  V30 41 1 1 37
M  V30 42 1 1 38
M  V30 43 1 3 39
M  V30 44 1 4 40
M  V30 45 1 5 41
M  V30 46 1 6 42
M  V30 47 1 8 43
M  V30 48 1 8 44
M  V30 49 1 9 45
M  V30 50 1 12 46
M  V30 51 1 13 47
M  V30 52 1 18 48
M  V30 53 1 19 49
M  V30 54 1 22 50
M  V30 55 1 23 51
M  V30 56 1 26 52
M  V30 57 1 28 53
M  V30 58 1 28 54
M  V30 59 1 30 55
M  V30 60 1 30 56
M  V30 61 1 30 57
M  V30 62 1 31 58
M  V30 63 1 31 59
M  V30 64 1 31 60
M  V30 65 1 32 61
M  V30 66 1 33 62
M  V30 END BOND
M  V30 END CTAB
M  END
>  <Dataset>  (601) 
ChEMBL_Kinases

>  <Ligand_Instance>  (601) 
nan

>  <PDB_ID>  (601) 
nan

>  <Standardized_SMILES>  (601) 
Cc1ccccc1CNc1nccc(-c2c(-c3ccc(F)cc3)nc3cc(CN(C)C)ccn23)n1

>  <Name>  (601) 
nan

>  <Pocket>  (601) 
nan

>  <ATP_Site>  (601) 
nan

>  <Peripheral>  (601) 
nan

>  <Num_H_Atoms_ProtBoundConf>  (601) 
nan

>  <Num_Resolved_Atoms>  (601) 
nan

>  <Num_Not_Resolved_Atoms>  (601) 
nan

$$$$
CHEMBL250628
     RDKit          3D

  0  0  0  0  0  0  0  0  0  0999 V3000
M  V30 BEGIN CTAB
M  V30 COUNTS 31 33 0 0 0
M  V30 BEGIN ATOM
M  V30 1 O -2.011481 0.487557 3.639295 0
M  V30 2 C -1.088168 -0.314729 3.437285 0
M  V30 3 N -0.821112 -1.022600 4.526159 0
M  V30 4 C 0.177918 -1.953421 4.458596 0
M  V30 5 C 0.931152 -2.208936 3.331832 0
M  V30 6 C 0.621292 -1.450038 2.218855 0
M  V30 7 C 1.354524 -1.677779 1.068413 0
M  V30 8 C 1.085181 -0.939460 -0.090327 0
M  V30 9 C 1.907851 -1.261898 -1.260354 0
M  V30 10 C 1.191395 -2.137029 -2.286846 0
M  V30 11 O 2.043110 -2.388768 -3.354212 0
M  V30 12 C 0.073708 -0.018059 0.030528 0
M  V30 13 C -0.187579 0.710520 -1.109583 0
M  V30 14 C -1.169325 1.653765 -1.099497 0
M  V30 15 C -1.915755 1.899402 0.037576 0
M  V30 16 Br -3.268383 3.255087 -0.081094 0
M  V30 17 C -1.629858 1.152339 1.165910 0
M  V30 18 C -0.644452 0.201902 1.164444 0
M  V30 19 C -0.384259 -0.514373 2.289951 0
M  V30 20 H -1.285685 -0.963832 5.458026 0
M  V30 21 H 0.431255 -2.554568 5.324928 0
M  V30 22 H 1.706313 -2.950024 3.324753 0
M  V30 23 H 2.122730 -2.420563 1.081035 0
M  V30 24 H 2.871461 -1.691431 -0.971603 0
M  V30 25 H 2.175775 -0.317468 -1.821078 0
M  V30 26 H 0.267005 -1.710512 -2.666159 0
M  V30 27 H 0.922449 -3.124578 -1.830286 0
M  V30 28 H 2.968499 -2.515297 -2.994096 0
M  V30 29 H 0.358483 0.571719 -2.024700 0
M  V30 30 H -1.367553 2.226720 -2.009017 0
M  V30 31 H -2.281852 1.452037 1.956726 0
M  V30 END ATOM
M  V30 BEGIN BOND
M  V30 1 2 1 2
M  V30 2 1 2 3
M  V30 3 1 3 4
M  V30 4 2 4 5
M  V30 5 1 5 6
M  V30 6 2 6 7
M  V30 7 1 7 8
M  V30 8 1 8 9
M  V30 9 1 9 10
M  V30 10 1 10 11
M  V30 11 2 8 12
M  V30 12 1 12 13
M  V30 13 2 13 14
M  V30 14 1 14 15
M  V30 15 1 15 16
M  V30 16 2 15 17
M  V30 17 1 17 18
M  V30 18 2 18 19
M  V30 19 1 19 2
M  V30 20 1 19 6
M  V30 21 1 18 12
M  V30 22 1 3 20
M  V30 23 1 4 21
M  V30 24 1 5 22
M  V30 25 1 7 23
M  V30 26 1 9 24
M  V30 27 1 9 25
M  V30 28 1 10 26
M  V30 29 1 10 27
M  V30 30 1 11 28
M  V30 31 1 13 29
M  V30 32 1 14 30
M  V30 33 1 17 31
M  V30 END BOND
M  V30 END CTAB
M  END
>  <Dataset>  (602) 
ChEMBL_Kinases

>  <Ligand_Instance>  (602) 
nan

>  <PDB_ID>  (602) 
nan

>  <Standardized_SMILES>  (602) 
O=c1[nH]ccc2cc(CCO)c3ccc(Br)cc3c12

>  <Name>  (602) 
nan

>  <Pocket>  (602) 
nan

>  <ATP_Site>  (602) 
nan

>  <Peripheral>  (602) 
nan

>  <Num_H_Atoms_ProtBoundConf>  (602) 
nan

>  <Num_Resolved_Atoms>  (602) 
nan

>  <Num_Not_Resolved_Atoms>  (602) 
nan

$$$$
CHEMBL250691
     RDKit          3D

  0  0  0  0  0  0  0  0  0  0999 V3000
M  V30 BEGIN CTAB
M  V30 COUNTS 26 28 0 0 0
M  V30 BEGIN ATOM
M  V30 1 O -0.986628 -3.747127 2.106196 0
M  V30 2 C -0.413147 -2.715837 2.551634 0
M  V30 3 N -0.038500 -2.568504 3.928262 0
M  V30 4 C -0.044490 -1.209347 4.457492 0
M  V30 5 C 0.885409 -0.388781 3.576517 0
M  V30 6 N 0.512317 -0.523646 2.181609 0
M  V30 7 N 0.692974 0.354032 1.181989 0
M  V30 8 C 0.205125 -0.150244 0.033862 0
M  V30 9 C 0.189638 0.458999 -1.292027 0
M  V30 10 C -0.342565 -0.160968 -2.400467 0
M  V30 11 C -0.335951 0.450896 -3.632755 0
M  V30 12 N 0.193589 1.685084 -3.803074 0
M  V30 13 C 0.729603 2.343309 -2.756441 0
M  V30 14 C 0.713171 1.713230 -1.530621 0
M  V30 15 C -0.313440 -1.403006 0.291458 0
M  V30 16 C -0.103594 -1.598013 1.634739 0
M  V30 17 H 0.209670 -3.456445 4.441122 0
M  V30 18 H -1.047808 -0.785470 4.346283 0
M  V30 19 H 0.336184 -1.175378 5.494595 0
M  V30 20 H 1.893204 -0.830244 3.720258 0
M  V30 21 H 0.829087 0.666037 3.866376 0
M  V30 22 H -0.780324 -1.162463 -2.298437 0
M  V30 23 H -0.735998 0.014435 -4.526963 0
M  V30 24 H 1.161045 3.327712 -2.851565 0
M  V30 25 H 1.152124 2.258977 -0.687318 0
M  V30 26 H -0.784735 -2.134165 -0.314582 0
M  V30 END ATOM
M  V30 BEGIN BOND
M  V30 1 2 1 2
M  V30 2 1 2 3
M  V30 3 1 3 4
M  V30 4 1 4 5
M  V30 5 1 5 6
M  V30 6 1 6 7
M  V30 7 2 7 8
M  V30 8 1 8 9
M  V30 9 2 9 10
M  V30 10 1 10 11
M  V30 11 2 11 12
M  V30 12 1 12 13
M  V30 13 2 13 14
M  V30 14 1 8 15
M  V30 15 2 15 16
M  V30 16 1 16 2
M  V30 17 1 16 6
M  V30 18 1 14 9
M  V30 19 1 3 17
M  V30 20 1 4 18
M  V30 21 1 4 19
M  V30 22 1 5 20
M  V30 23 1 5 21
M  V30 24 1 10 22
M  V30 25 1 11 23
M  V30 26 1 13 24
M  V30 27 1 14 25
M  V30 28 1 15 26
M  V30 END BOND
M  V30 END CTAB
M  END
>  <Dataset>  (603) 
ChEMBL_Kinases

>  <Ligand_Instance>  (603) 
nan

>  <PDB_ID>  (603) 
nan

>  <Standardized_SMILES>  (603) 
O=C1NCCn2nc(-c3ccncc3)cc21

>  <Name>  (603) 
nan

>  <Pocket>  (603) 
nan

>  <ATP_Site>  (603) 
nan

>  <Peripheral>  (603) 
nan

>  <Num_H_Atoms_ProtBoundConf>  (603) 
nan

>  <Num_Resolved_Atoms>  (603) 
nan

>  <Num_Not_Resolved_Atoms>  (603) 
nan

$$$$
CHEMBL250692
     RDKit          3D

  0  0  0  0  0  0  0  0  0  0999 V3000
M  V30 BEGIN CTAB
M  V30 COUNTS 26 28 0 0 0
M  V30 BEGIN ATOM
M  V30 1 O -0.930170 -3.780174 2.161225 0
M  V30 2 C -0.401050 -2.704980 2.570515 0
M  V30 3 N -0.071705 -2.516253 3.963187 0
M  V30 4 C -0.146774 -1.143833 4.452342 0
M  V30 5 C 0.792475 -0.321226 3.592565 0
M  V30 6 C 0.466277 -0.482084 2.151054 0
M  V30 7 O 0.648056 0.362721 1.165425 0
M  V30 8 C 0.222883 -0.162168 0.033274 0
M  V30 9 C 0.227568 0.414417 -1.306499 0
M  V30 10 C -0.247807 -0.234562 -2.425840 0
M  V30 11 C -0.200434 0.394987 -3.652632 0
M  V30 12 N 0.292130 1.633866 -3.834856 0
M  V30 13 C 0.769302 2.309206 -2.767938 0
M  V30 14 C 0.722358 1.681158 -1.542297 0
M  V30 15 C -0.278496 -1.446722 0.274935 0
M  V30 16 C -0.110228 -1.624456 1.636138 0
M  V30 17 H 0.194546 -3.373225 4.513712 0
M  V30 18 H -1.176521 -0.726793 4.261520 0
M  V30 19 H 0.144743 -1.059223 5.500122 0
M  V30 20 H 1.808998 -0.719733 3.794191 0
M  V30 21 H 0.687212 0.733892 3.938763 0
M  V30 22 H -0.655139 -1.246559 -2.304804 0
M  V30 23 H -0.570284 -0.100522 -4.545807 0
M  V30 24 H 1.179110 3.308303 -2.844598 0
M  V30 25 H 1.113680 2.242543 -0.685227 0
M  V30 26 H -0.704775 -2.175508 -0.380327 0
M  V30 END ATOM
M  V30 BEGIN BOND
M  V30 1 2 1 2
M  V30 2 1 2 3
M  V30 3 1 3 4
M  V30 4 1 4 5
M  V30 5 1 5 6
M  V30 6 1 6 7
M  V30 7 1 7 8
M  V30 8 1 8 9
M  V30 9 2 9 10
M  V30 10 1 10 11
M  V30 11 2 11 12
M  V30 12 1 12 13
M  V30 13 2 13 14
M  V30 14 2 8 15
M  V30 15 1 15 16
M  V30 16 1 16 2
M  V30 17 2 16 6
M  V30 18 1 14 9
M  V30 19 1 3 17
M  V30 20 1 4 18
M  V30 21 1 4 19
M  V30 22 1 5 20
M  V30 23 1 5 21
M  V30 24 1 10 22
M  V30 25 1 11 23
M  V30 26 1 13 24
M  V30 27 1 14 25
M  V30 28 1 15 26
M  V30 END BOND
M  V30 END CTAB
M  END
>  <Dataset>  (604) 
ChEMBL_Kinases

>  <Ligand_Instance>  (604) 
nan

>  <PDB_ID>  (604) 
nan

>  <Standardized_SMILES>  (604) 
O=C1NCCc2oc(-c3ccncc3)cc21

>  <Name>  (604) 
nan

>  <Pocket>  (604) 
nan

>  <ATP_Site>  (604) 
nan

>  <Peripheral>  (604) 
nan

>  <Num_H_Atoms_ProtBoundConf>  (604) 
nan

>  <Num_Resolved_Atoms>  (604) 
nan

>  <Num_Not_Resolved_Atoms>  (604) 
nan

$$$$
CHEMBL250693
     RDKit          3D

  0  0  0  0  0  0  0  0  0  0999 V3000
M  V30 BEGIN CTAB
M  V30 COUNTS 24 26 0 0 0
M  V30 BEGIN ATOM
M  V30 1 O 3.891728 -1.606271 3.181020 0
M  V30 2 C 2.757020 -1.966734 2.753884 0
M  V30 3 N 2.158886 -3.232177 3.010220 0
M  V30 4 C 0.860937 -3.231450 2.336698 0
M  V30 5 C 0.789670 -1.896283 1.701975 0
M  V30 6 N -0.060295 -1.185885 0.943097 0
M  V30 7 C 0.466123 0.025800 0.673642 0
M  V30 8 C -0.090225 1.125783 -0.107352 0
M  V30 9 C 0.591173 2.323915 -0.290358 0
M  V30 10 C 0.031459 3.340884 -1.035920 0
M  V30 11 N -1.185515 3.205823 -1.606596 0
M  V30 12 C -1.891308 2.061431 -1.460298 0
M  V30 13 C -1.332906 1.028947 -0.708468 0
M  V30 14 C 1.699385 0.078801 1.289536 0
M  V30 15 C 1.893953 -1.126624 1.930125 0
M  V30 16 H 2.543128 -4.028386 3.565985 0
M  V30 17 H 0.836961 -3.973868 1.514095 0
M  V30 18 H 0.051214 -3.456859 3.031697 0
M  V30 19 H -1.008411 -1.483691 0.584695 0
M  V30 20 H 1.564801 2.401075 0.180032 0
M  V30 21 H 0.657219 4.218371 -1.104234 0
M  V30 22 H -2.865242 1.975458 -1.926909 0
M  V30 23 H -1.934396 0.113685 -0.610653 0
M  V30 24 H 2.426778 0.880002 1.308098 0
M  V30 END ATOM
M  V30 BEGIN BOND
M  V30 1 2 1 2
M  V30 2 1 2 3
M  V30 3 1 3 4
M  V30 4 1 4 5
M  V30 5 1 5 6
M  V30 6 1 6 7
M  V30 7 1 7 8
M  V30 8 2 8 9
M  V30 9 1 9 10
M  V30 10 2 10 11
M  V30 11 1 11 12
M  V30 12 2 12 13
M  V30 13 2 7 14
M  V30 14 1 14 15
M  V30 15 1 15 2
M  V30 16 2 15 5
M  V30 17 1 13 8
M  V30 18 1 3 16
M  V30 19 1 4 17
M  V30 20 1 4 18
M  V30 21 1 6 19
M  V30 22 1 9 20
M  V30 23 1 10 21
M  V30 24 1 12 22
M  V30 25 1 13 23
M  V30 26 1 14 24
M  V30 END BOND
M  V30 END CTAB
M  END
>  <Dataset>  (605) 
ChEMBL_Kinases

>  <Ligand_Instance>  (605) 
nan

>  <PDB_ID>  (605) 
nan

>  <Standardized_SMILES>  (605) 
O=C1NCc2[nH]c(-c3ccncc3)cc21

>  <Name>  (605) 
nan

>  <Pocket>  (605) 
nan

>  <ATP_Site>  (605) 
nan

>  <Peripheral>  (605) 
nan

>  <Num_H_Atoms_ProtBoundConf>  (605) 
nan

>  <Num_Resolved_Atoms>  (605) 
nan

>  <Num_Not_Resolved_Atoms>  (605) 
nan

$$$$
CHEMBL250711
     RDKit          3D

  0  0  0  0  0  0  0  0  0  0999 V3000
M  V30 BEGIN CTAB
M  V30 COUNTS 73 73 0 0 0
M  V30 BEGIN ATOM
M  V30 1 C 1.247990 -1.849372 6.463650 0
M  V30 2 C 2.465336 -1.540173 5.609994 0
M  V30 3 C 2.513092 -2.415844 4.374719 0
M  V30 4 C 3.749701 -2.037460 3.594536 0
M  V30 5 C 3.901818 -2.848784 2.337444 0
M  V30 6 C 2.727298 -2.669775 1.402020 0
M  V30 7 C 2.564284 -1.237681 0.982347 0
M  V30 8 C 1.382812 -1.072432 0.044415 0
M  V30 9 C 1.545716 -1.878445 -1.182090 0
M  V30 10 C 1.596005 -1.481123 -2.458049 0
M  V30 11 C 1.493537 -0.071105 -2.941045 0
M  V30 12 C 0.314845 0.120696 -3.870134 0
M  V30 13 C 0.215947 1.534156 -4.363667 0
M  V30 14 C 0.046651 2.544792 -3.266530 0
M  V30 15 C -1.238319 2.226825 -2.519868 0
M  V30 16 C -1.479266 3.189146 -1.400813 0
M  V30 17 C -2.742523 2.935050 -0.647594 0
M  V30 18 C -2.820295 1.607546 0.006331 0
M  V30 19 O -1.961579 0.718465 -0.048074 0
M  V30 20 N -3.977112 1.300883 0.774185 0
M  V30 21 C -4.379961 0.177704 1.494020 0
M  V30 22 C -4.666830 -1.122613 0.911600 0
M  V30 23 C -3.614055 -1.812997 0.150501 0
M  V30 24 C -3.658203 -1.633816 -1.240983 0
M  V30 25 C -2.781179 -2.194718 -2.111105 0
M  V30 26 C -1.784550 -2.986587 -1.630416 0
M  V30 27 O -0.887980 -3.560858 -2.521031 0
M  V30 28 C -1.696770 -3.195119 -0.263863 0
M  V30 29 O -0.692841 -3.997173 0.265791 0
M  V30 30 C -2.593873 -2.619918 0.612612 0
M  V30 31 H 1.169555 -2.936089 6.578202 0
M  V30 32 H 0.334909 -1.411750 6.013384 0
M  V30 33 H 1.403125 -1.408113 7.469502 0
M  V30 34 H 3.384868 -1.687205 6.208898 0
M  V30 35 H 2.465914 -0.486611 5.271343 0
M  V30 36 H 1.597736 -2.307655 3.784194 0
M  V30 37 H 2.648390 -3.472398 4.708797 0
M  V30 38 H 4.623732 -2.299019 4.245510 0
M  V30 39 H 3.743974 -0.952887 3.401679 0
M  V30 40 H 4.828929 -2.555774 1.844778 0
M  V30 41 H 3.951207 -3.916269 2.608359 0
M  V30 42 H 2.934477 -3.302173 0.507369 0
M  V30 43 H 1.806374 -3.067811 1.880649 0
M  V30 44 H 2.446923 -0.594678 1.866129 0
M  V30 45 H 3.506786 -0.963983 0.432585 0
M  V30 46 H 0.476229 -1.421744 0.600264 0
M  V30 47 H 1.211589 -0.002425 -0.145296 0
M  V30 48 H 1.638609 -2.953956 -1.028169 0
M  V30 49 H 1.719689 -2.191188 -3.252255 0
M  V30 50 H 2.410587 0.184173 -3.477497 0
M  V30 51 H 1.385600 0.627301 -2.083348 0
M  V30 52 H -0.612953 -0.252660 -3.405296 0
M  V30 53 H 0.524212 -0.522404 -4.763740 0
M  V30 54 H 1.107715 1.734146 -4.994615 0
M  V30 55 H -0.718523 1.603395 -4.987007 0
M  V30 56 H -0.043922 3.546963 -3.760624 0
M  V30 57 H 0.940840 2.512062 -2.622539 0
M  V30 58 H -1.129521 1.208178 -2.113892 0
M  V30 59 H -2.090625 2.304595 -3.218880 0
M  V30 60 H -0.616899 3.181934 -0.695625 0
M  V30 61 H -1.527708 4.245051 -1.771723 0
M  V30 62 H -3.626108 3.072241 -1.340908 0
M  V30 63 H -2.814543 3.751912 0.132965 0
M  V30 64 H -4.679695 2.113331 0.791541 0
M  V30 65 H -5.248581 0.463627 2.169197 0
M  V30 66 H -3.564054 -0.000626 2.289191 0
M  V30 67 H -4.844336 -1.825638 1.795505 0
M  V30 68 H -5.665468 -1.199815 0.395353 0
M  V30 69 H -4.435548 -1.007261 -1.700067 0
M  V30 70 H -2.845985 -2.034473 -3.176924 0
M  V30 71 H -0.664078 -3.140911 -3.409862 0
M  V30 72 H -0.096905 -4.529554 -0.330073 0
M  V30 73 H -2.585480 -2.738737 1.687169 0
M  V30 END ATOM
M  V30 BEGIN BOND
M  V30 1 1 1 2
M  V30 2 1 2 3
M  V30 3 1 3 4
M  V30 4 1 4 5
M  V30 5 1 5 6
M  V30 6 1 6 7
M  V30 7 1 7 8
M  V30 8 1 8 9
M  V30 9 2 9 10
M  V30 10 1 10 11
M  V30 11 1 11 12
M  V30 12 1 12 13
M  V30 13 1 13 14
M  V30 14 1 14 15
M  V30 15 1 15 16
M  V30 16 1 16 17
M  V30 17 1 17 18
M  V30 18 2 18 19
M  V30 19 1 18 20
M  V30 20 1 20 21
M  V30 21 1 21 22
M  V30 22 1 22 23
M  V30 23 2 23 24
M  V30 24 1 24 25
M  V30 25 2 25 26
M  V30 26 1 26 27
M  V30 27 1 26 28
M  V30 28 1 28 29
M  V30 29 2 28 30
M  V30 30 1 30 23
M  V30 31 1 1 31
M  V30 32 1 1 32
M  V30 33 1 1 33
M  V30 34 1 2 34
M  V30 35 1 2 35
M  V30 36 1 3 36
M  V30 37 1 3 37
M  V30 38 1 4 38
M  V30 39 1 4 39
M  V30 40 1 5 40
M  V30 41 1 5 41
M  V30 42 1 6 42
M  V30 43 1 6 43
M  V30 44 1 7 44
M  V30 45 1 7 45
M  V30 46 1 8 46
M  V30 47 1 8 47
M  V30 48 1 9 48
M  V30 49 1 10 49
M  V30 50 1 11 50
M  V30 51 1 11 51
M  V30 52 1 12 52
M  V30 53 1 12 53
M  V30 54 1 13 54
M  V30 55 1 13 55
M  V30 56 1 14 56
M  V30 57 1 14 57
M  V30 58 1 15 58
M  V30 59 1 15 59
M  V30 60 1 16 60
M  V30 61 1 16 61
M  V30 62 1 17 62
M  V30 63 1 17 63
M  V30 64 1 20 64
M  V30 65 1 21 65
M  V30 66 1 21 66
M  V30 67 1 22 67
M  V30 68 1 22 68
M  V30 69 1 24 69
M  V30 70 1 25 70
M  V30 71 1 27 71
M  V30 72 1 29 72
M  V30 73 1 30 73
M  V30 END BOND
M  V30 END CTAB
M  END
>  <Dataset>  (606) 
ChEMBL_Kinases

>  <Ligand_Instance>  (606) 
nan

>  <PDB_ID>  (606) 
nan

>  <Standardized_SMILES>  (606) 
CCCCCCCC/C=C\CCCCCCCC(=O)NCCc1ccc(O)c(O)c1

>  <Name>  (606) 
OLEOYL DOPAMINE

>  <Pocket>  (606) 
nan

>  <ATP_Site>  (606) 
nan

>  <Peripheral>  (606) 
nan

>  <Num_H_Atoms_ProtBoundConf>  (606) 
nan

>  <Num_Resolved_Atoms>  (606) 
nan

>  <Num_Not_Resolved_Atoms>  (606) 
nan

$$$$
CHEMBL250752
     RDKit          3D

  0  0  0  0  0  0  0  0  0  0999 V3000
M  V30 BEGIN CTAB
M  V30 COUNTS 46 49 0 0 0
M  V30 BEGIN ATOM
M  V30 1 C 0.663863 -4.345982 4.197817 0
M  V30 2 N 2.097067 -4.126536 4.311766 0
M  V30 3 C 2.282314 -2.955877 5.140259 0
M  V30 4 C 2.644483 -3.944036 2.987807 0
M  V30 5 C 2.080690 -2.795519 2.277370 0
M  V30 6 C 2.632693 -1.513429 2.338072 0
M  V30 7 C 2.013885 -0.504958 1.629235 0
M  V30 8 N 0.911673 -0.724932 0.894640 0
M  V30 9 C 0.188560 0.132756 0.150957 0
M  V30 10 C 0.425146 1.560760 -0.055570 0
M  V30 11 N 0.831647 1.943724 -1.280824 0
M  V30 12 C 1.097668 3.203346 -1.642085 0
M  V30 13 N 1.528096 3.588692 -2.937799 0
M  V30 14 N 0.934961 4.148464 -0.671977 0
M  V30 15 C 0.528989 3.826881 0.578240 0
M  V30 16 C 0.261955 2.519314 0.922000 0
M  V30 17 F -0.145123 2.136502 2.145730 0
M  V30 18 C -0.874574 -0.556871 -0.431985 0
M  V30 19 C -1.932219 -0.072232 -1.319134 0
M  V30 20 C -1.784643 0.406150 -2.581320 0
M  V30 21 C -2.880813 0.830577 -3.293751 0
M  V30 22 C -4.183411 0.808279 -2.804707 0
M  V30 23 F -5.258353 1.228429 -3.512427 0
M  V30 24 C -4.299106 0.309809 -1.502922 0
M  V30 25 C -3.206017 -0.114779 -0.788200 0
M  V30 26 N -0.730150 -1.822035 0.001830 0
M  V30 27 C 0.340988 -1.954619 0.806550 0
M  V30 28 C 0.949007 -2.977103 1.511382 0
M  V30 29 H 0.241521 -4.646558 5.186713 0
M  V30 30 H 0.409786 -5.124764 3.459433 0
M  V30 31 H 0.211741 -3.360251 3.964087 0
M  V30 32 H 1.909314 -3.128463 6.168702 0
M  V30 33 H 1.743105 -2.069236 4.755072 0
M  V30 34 H 3.368169 -2.758611 5.213101 0
M  V30 35 H 2.407204 -4.870166 2.405011 0
M  V30 36 H 3.764807 -3.935168 3.030648 0
M  V30 37 H 3.524262 -1.403556 2.949640 0
M  V30 38 H 2.484747 0.479712 1.709747 0
M  V30 39 H 0.707960 3.910715 -3.528345 0
M  V30 40 H 2.544226 3.463773 -2.999187 0
M  V30 41 H 0.403782 4.604006 1.344226 0
M  V30 42 H -0.779991 0.431086 -2.976633 0
M  V30 43 H -2.763292 1.214056 -4.310022 0
M  V30 44 H -5.338741 0.304903 -1.143545 0
M  V30 45 H -3.500783 -0.464735 0.202912 0
M  V30 46 H 0.431204 -3.927986 1.385388 0
M  V30 END ATOM
M  V30 BEGIN BOND
M  V30 1 1 1 2
M  V30 2 1 2 3
M  V30 3 1 2 4
M  V30 4 1 4 5
M  V30 5 1 5 6
M  V30 6 2 6 7
M  V30 7 1 7 8
M  V30 8 1 8 9
M  V30 9 1 9 10
M  V30 10 2 10 11
M  V30 11 1 11 12
M  V30 12 1 12 13
M  V30 13 2 12 14
M  V30 14 1 14 15
M  V30 15 2 15 16
M  V30 16 1 16 17
M  V30 17 2 9 18
M  V30 18 1 18 19
M  V30 19 2 19 20
M  V30 20 1 20 21
M  V30 21 2 21 22
M  V30 22 1 22 23
M  V30 23 1 22 24
M  V30 24 2 24 25
M  V30 25 1 18 26
M  V30 26 2 26 27
M  V30 27 1 27 28
M  V30 28 2 28 5
M  V30 29 1 27 8
M  V30 30 1 16 10
M  V30 31 1 25 19
M  V30 32 1 1 29
M  V30 33 1 1 30
M  V30 34 1 1 31
M  V30 35 1 3 32
M  V30 36 1 3 33
M  V30 37 1 3 34
M  V30 38 1 4 35
M  V30 39 1 4 36
M  V30 40 1 6 37
M  V30 41 1 7 38
M  V30 42 1 13 39
M  V30 43 1 13 40
M  V30 44 1 15 41
M  V30 45 1 20 42
M  V30 46 1 21 43
M  V30 47 1 24 44
M  V30 48 1 25 45
M  V30 49 1 28 46
M  V30 END BOND
M  V30 END CTAB
M  END
>  <Dataset>  (607) 
ChEMBL_Kinases

>  <Ligand_Instance>  (607) 
nan

>  <PDB_ID>  (607) 
nan

>  <Standardized_SMILES>  (607) 
CN(C)Cc1ccn2c(-c3nc(N)ncc3F)c(-c3ccc(F)cc3)nc2c1

>  <Name>  (607) 
nan

>  <Pocket>  (607) 
nan

>  <ATP_Site>  (607) 
nan

>  <Peripheral>  (607) 
nan

>  <Num_H_Atoms_ProtBoundConf>  (607) 
nan

>  <Num_Resolved_Atoms>  (607) 
nan

>  <Num_Not_Resolved_Atoms>  (607) 
nan

$$$$
CHEMBL250957
     RDKit          3D

  0  0  0  0  0  0  0  0  0  0999 V3000
M  V30 BEGIN CTAB
M  V30 COUNTS 68 72 0 0 0
M  V30 BEGIN ATOM
M  V30 1 C 3.032900 -5.238767 1.927862 0
M  V30 2 O 2.660867 -3.937817 2.346403 0
M  V30 3 C 3.257816 -2.862912 1.704553 0
M  V30 4 C 4.191415 -3.035475 0.683036 0
M  V30 5 C 4.774352 -1.959943 0.056502 0
M  V30 6 C 4.474060 -0.662768 0.396465 0
M  V30 7 C 4.972767 0.611380 -0.155327 0
M  V30 8 N 4.117449 1.165730 -1.170298 0
M  V30 9 C 4.714459 2.404242 -1.613801 0
M  V30 10 C 4.237437 2.906174 -2.930707 0
M  V30 11 C 4.301045 1.881685 -4.032742 0
M  V30 12 C 4.634961 0.539385 -3.415952 0
M  V30 13 C 3.756523 0.280742 -2.209690 0
M  V30 14 C 2.285181 0.361452 -2.582460 0
M  V30 15 C 1.407052 0.022022 -1.398929 0
M  V30 16 O 0.045525 0.091096 -1.715760 0
M  V30 17 C -1.000344 -0.162342 -0.855043 0
M  V30 18 C -2.253041 -0.009817 -1.463212 0
M  V30 19 C -3.388939 -0.243441 -0.678287 0
M  V30 20 C -3.294568 -0.612345 0.651390 0
M  V30 21 C -4.528181 -0.833927 1.397188 0
M  V30 22 N -4.708814 -1.196848 2.678248 0
M  V30 23 C -6.027000 -1.286338 2.953461 0
M  V30 24 C -6.646565 -1.625174 4.138095 0
M  V30 25 C -8.023236 -1.626295 4.100423 0
M  V30 26 C -8.910019 -1.946751 5.211452 0
M  V30 27 N -8.246038 -2.293809 6.431270 0
M  V30 28 O -10.153221 -1.993759 5.362145 0
M  V30 29 C -8.738218 -1.310247 2.956849 0
M  V30 30 C -8.076863 -0.973375 1.781102 0
M  V30 31 C -6.685352 -0.963438 1.787600 0
M  V30 32 N -5.761538 -0.688386 0.841856 0
M  V30 33 C -2.054116 -0.754759 1.222728 0
M  V30 34 C -0.904637 -0.530011 0.470476 0
M  V30 35 C 3.534169 -0.539756 1.424632 0
M  V30 36 C 2.928476 -1.592213 2.076609 0
M  V30 37 H 2.740046 -5.384348 0.869166 0
M  V30 38 H 2.511700 -5.953230 2.611288 0
M  V30 39 H 4.128732 -5.301729 1.980958 0
M  V30 40 H 4.475149 -4.027297 0.363273 0
M  V30 41 H 5.515954 -2.047808 -0.741688 0
M  V30 42 H 6.002737 0.413182 -0.530250 0
M  V30 43 H 5.065867 1.344095 0.678921 0
M  V30 44 H 5.822759 2.348887 -1.637400 0
M  V30 45 H 4.460646 3.171273 -0.851728 0
M  V30 46 H 4.947147 3.715965 -3.236111 0
M  V30 47 H 3.251615 3.425863 -2.860415 0
M  V30 48 H 3.342032 1.809525 -4.587601 0
M  V30 49 H 5.078964 2.090549 -4.794375 0
M  V30 50 H 5.672221 0.621751 -3.038927 0
M  V30 51 H 4.531209 -0.307811 -4.105192 0
M  V30 52 H 3.919534 -0.764224 -1.897663 0
M  V30 53 H 2.046965 1.359056 -2.999726 0
M  V30 54 H 2.068596 -0.380461 -3.378038 0
M  V30 55 H 1.667472 -0.978163 -0.999223 0
M  V30 56 H 1.700168 0.743374 -0.583396 0
M  V30 57 H -2.387849 0.280123 -2.510358 0
M  V30 58 H -4.358203 -0.115509 -1.186426 0
M  V30 59 H -6.174969 -1.882701 5.065458 0
M  V30 60 H -7.799368 -3.075787 6.971100 0
M  V30 61 H -8.066006 -1.573114 7.178202 0
M  V30 62 H -9.814744 -1.292274 2.859030 0
M  V30 63 H -8.600325 -0.720857 0.869946 0
M  V30 64 H -6.069645 -0.417712 -0.127502 0
M  V30 65 H -1.947588 -1.041807 2.259068 0
M  V30 66 H 0.104082 -0.626983 0.867368 0
M  V30 67 H 3.215169 0.443463 1.782625 0
M  V30 68 H 2.206946 -1.439352 2.866246 0
M  V30 END ATOM
M  V30 BEGIN BOND
M  V30 1 1 1 2
M  V30 2 1 2 3
M  V30 3 2 3 4
M  V30 4 1 4 5
M  V30 5 2 5 6
M  V30 6 1 6 7
M  V30 7 1 7 8
M  V30 8 1 8 9
M  V30 9 1 9 10
M  V30 10 1 10 11
M  V30 11 1 11 12
M  V30 12 1 12 13
M  V30 13 1 13 14
M  V30 14 1 14 15
M  V30 15 1 15 16
M  V30 16 1 16 17
M  V30 17 2 17 18
M  V30 18 1 18 19
M  V30 19 2 19 20
M  V30 20 1 20 21
M  V30 21 2 21 22
M  V30 22 1 22 23
M  V30 23 2 23 24
M  V30 24 1 24 25
M  V30 25 1 25 26
M  V30 26 1 26 27
M  V30 27 2 26 28
M  V30 28 2 25 29
M  V30 29 1 29 30
M  V30 30 2 30 31
M  V30 31 1 31 32
M  V30 32 1 20 33
M  V30 33 2 33 34
M  V30 34 1 6 35
M  V30 35 2 35 36
M  V30 36 1 36 3
M  V30 37 1 13 8
M  V30 38 1 34 17
M  V30 39 1 32 21
M  V30 40 1 31 23
M  V30 41 1 1 37
M  V30 42 1 1 38
M  V30 43 1 1 39
M  V30 44 1 4 40
M  V30 45 1 5 41
M  V30 46 1 7 42
M  V30 47 1 7 43
M  V30 48 1 9 44
M  V30 49 1 9 45
M  V30 50 1 10 46
M  V30 51 1 10 47
M  V30 52 1 11 48
M  V30 53 1 11 49
M  V30 54 1 12 50
M  V30 55 1 12 51
M  V30 56 1 13 52
M  V30 57 1 14 53
M  V30 58 1 14 54
M  V30 59 1 15 55
M  V30 60 1 15 56
M  V30 61 1 18 57
M  V30 62 1 19 58
M  V30 63 1 24 59
M  V30 64 1 27 60
M  V30 65 1 27 61
M  V30 66 1 29 62
M  V30 67 1 30 63
M  V30 68 1 32 64
M  V30 69 1 33 65
M  V30 70 1 34 66
M  V30 71 1 35 67
M  V30 72 1 36 68
M  V30 END BOND
M  V30 END CTAB
M  END
>  <Dataset>  (608) 
ChEMBL_Kinases

>  <Ligand_Instance>  (608) 
nan

>  <PDB_ID>  (608) 
nan

>  <Standardized_SMILES>  (608) 
COc1ccc(CN2CCCCC2CCOc2ccc(-c3nc4cc(C(N)=O)ccc4[nH]3)cc2)cc1

>  <Name>  (608) 
nan

>  <Pocket>  (608) 
nan

>  <ATP_Site>  (608) 
nan

>  <Peripheral>  (608) 
nan

>  <Num_H_Atoms_ProtBoundConf>  (608) 
nan

>  <Num_Resolved_Atoms>  (608) 
nan

>  <Num_Not_Resolved_Atoms>  (608) 
nan

$$$$
CHEMBL250754
     RDKit          3D

  0  0  0  0  0  0  0  0  0  0999 V3000
M  V30 BEGIN CTAB
M  V30 COUNTS 49 52 0 0 0
M  V30 BEGIN ATOM
M  V30 1 C -1.938388 -5.507154 2.253889 0
M  V30 2 C -1.726963 -4.838550 0.922257 0
M  V30 3 C -1.134510 -3.589526 0.844007 0
M  V30 4 C -0.935068 -2.961594 -0.390568 0
M  V30 5 C -0.292436 -1.644873 -0.249158 0
M  V30 6 N 0.931858 -1.371111 -0.771952 0
M  V30 7 C 1.204273 -0.091166 -0.456291 0
M  V30 8 C 2.333846 0.640024 -0.768748 0
M  V30 9 C 2.440086 1.971656 -0.350272 0
M  V30 10 C 3.622922 2.793146 -0.658501 0
M  V30 11 N 4.654697 2.703753 0.356105 0
M  V30 12 C 4.178101 3.142808 1.652499 0
M  V30 13 C 5.191566 1.381108 0.525642 0
M  V30 14 C 1.359961 2.451886 0.366803 0
M  V30 15 C 0.228315 1.703963 0.674367 0
M  V30 16 N 0.167362 0.418500 0.249196 0
M  V30 17 C -0.783234 -0.527076 0.395321 0
M  V30 18 C -2.049117 -0.404909 1.079234 0
M  V30 19 C -3.111280 -0.597706 0.186737 0
M  V30 20 C -4.438287 -0.528556 0.607036 0
M  V30 21 N -4.706752 -0.272318 1.891508 0
M  V30 22 C -3.650059 -0.089264 2.735644 0
M  V30 23 N -3.873594 0.183505 4.098819 0
M  V30 24 N -2.350912 -0.151188 2.353315 0
M  V30 25 C -1.330236 -3.585034 -1.559960 0
M  V30 26 C -1.918899 -4.829710 -1.460550 0
M  V30 27 C -2.113530 -5.441647 -0.260395 0
M  V30 28 F -2.696657 -6.661080 -0.237010 0
M  V30 29 H -1.125542 -5.095061 2.920136 0
M  V30 30 H -1.831410 -6.585143 2.132867 0
M  V30 31 H -2.893743 -5.168299 2.699172 0
M  V30 32 H -0.849432 -3.159136 1.803324 0
M  V30 33 H 3.129850 0.213139 -1.322928 0
M  V30 34 H 3.298541 3.865823 -0.644559 0
M  V30 35 H 4.090283 2.606037 -1.627910 0
M  V30 36 H 5.066848 3.192934 2.323156 0
M  V30 37 H 3.583075 4.062383 1.615078 0
M  V30 38 H 3.525230 2.358420 2.127889 0
M  V30 39 H 5.326814 0.825930 -0.411645 0
M  V30 40 H 6.219750 1.485277 0.953870 0
M  V30 41 H 4.622539 0.819499 1.309465 0
M  V30 42 H 1.417227 3.493339 0.707448 0
M  V30 43 H -0.599500 2.103820 1.235143 0
M  V30 44 H -3.034243 -0.814872 -0.890194 0
M  V30 45 H -5.277679 -0.671693 -0.052532 0
M  V30 46 H -4.306881 -0.679454 4.510682 0
M  V30 47 H -3.708638 0.991543 4.710181 0
M  V30 48 H -1.125489 -3.003453 -2.459700 0
M  V30 49 H -2.197770 -5.246366 -2.422319 0
M  V30 END ATOM
M  V30 BEGIN BOND
M  V30 1 1 1 2
M  V30 2 2 2 3
M  V30 3 1 3 4
M  V30 4 1 4 5
M  V30 5 1 5 6
M  V30 6 2 6 7
M  V30 7 1 7 8
M  V30 8 2 8 9
M  V30 9 1 9 10
M  V30 10 1 10 11
M  V30 11 1 11 12
M  V30 12 1 11 13
M  V30 13 1 9 14
M  V30 14 2 14 15
M  V30 15 1 15 16
M  V30 16 1 16 17
M  V30 17 1 17 18
M  V30 18 2 18 19
M  V30 19 1 19 20
M  V30 20 2 20 21
M  V30 21 1 21 22
M  V30 22 1 22 23
M  V30 23 2 22 24
M  V30 24 2 4 25
M  V30 25 1 25 26
M  V30 26 2 26 27
M  V30 27 1 27 28
M  V30 28 1 27 2
M  V30 29 2 17 5
M  V30 30 1 24 18
M  V30 31 1 16 7
M  V30 32 1 1 29
M  V30 33 1 1 30
M  V30 34 1 1 31
M  V30 35 1 3 32
M  V30 36 1 8 33
M  V30 37 1 10 34
M  V30 38 1 10 35
M  V30 39 1 12 36
M  V30 40 1 12 37
M  V30 41 1 12 38
M  V30 42 1 13 39
M  V30 43 1 13 40
M  V30 44 1 13 41
M  V30 45 1 14 42
M  V30 46 1 15 43
M  V30 47 1 19 44
M  V30 48 1 20 45
M  V30 49 1 23 46
M  V30 50 1 23 47
M  V30 51 1 25 48
M  V30 52 1 26 49
M  V30 END BOND
M  V30 END CTAB
M  END
>  <Dataset>  (609) 
ChEMBL_Kinases

>  <Ligand_Instance>  (609) 
nan

>  <PDB_ID>  (609) 
nan

>  <Standardized_SMILES>  (609) 
Cc1cc(-c2nc3cc(CN(C)C)ccn3c2-c2ccnc(N)n2)ccc1F

>  <Name>  (609) 
nan

>  <Pocket>  (609) 
nan

>  <ATP_Site>  (609) 
nan

>  <Peripheral>  (609) 
nan

>  <Num_H_Atoms_ProtBoundConf>  (609) 
nan

>  <Num_Resolved_Atoms>  (609) 
nan

>  <Num_Not_Resolved_Atoms>  (609) 
nan

$$$$
CHEMBL250759
     RDKit          3D

  0  0  0  0  0  0  0  0  0  0999 V3000
M  V30 BEGIN CTAB
M  V30 COUNTS 67 71 0 0 0
M  V30 BEGIN ATOM
M  V30 1 C 7.623920 -1.220045 4.142641 0
M  V30 2 C 6.909549 -0.890291 2.888316 0
M  V30 3 C 6.919596 -1.866298 1.915970 0
M  V30 4 C 6.276873 -1.639629 0.715471 0
M  V30 5 C 5.613588 -0.455687 0.444846 0
M  V30 6 C 4.903186 -0.121432 -0.798589 0
M  V30 7 N 3.512681 -0.488075 -0.814051 0
M  V30 8 C 3.369122 -1.894113 -0.640854 0
M  V30 9 C 3.867463 -2.663623 -1.834827 0
M  V30 10 C 2.984027 -2.248417 -2.983610 0
M  V30 11 C 2.987290 -0.772345 -3.219650 0
M  V30 12 C 2.911757 0.058817 -1.974458 0
M  V30 13 C 1.458078 0.482992 -1.741307 0
M  V30 14 C 1.334223 1.517677 -0.680152 0
M  V30 15 O 0.027286 1.887395 -0.486460 0
M  V30 16 C -1.087567 1.247869 -0.096782 0
M  V30 17 C -1.410577 -0.036574 0.284292 0
M  V30 18 C -2.678342 -0.435531 0.644931 0
M  V30 19 C -3.696944 0.493591 0.629649 0
M  V30 20 C -5.040452 0.068552 1.011005 0
M  V30 21 N -5.427718 -1.162922 1.386647 0
M  V30 22 C -6.744820 -1.176903 1.662911 0
M  V30 23 C -7.625836 -2.153926 2.079751 0
M  V30 24 C -8.962012 -1.897234 2.294914 0
M  V30 25 C -9.935813 -2.897416 2.735631 0
M  V30 26 N -9.421123 -4.204516 2.928071 0
M  V30 27 O -11.144269 -2.642480 2.935727 0
M  V30 28 C -9.424003 -0.616487 2.083293 0
M  V30 29 C -8.564013 0.391460 1.663336 0
M  V30 30 C -7.230511 0.098597 1.457425 0
M  V30 31 N -6.159555 0.833790 1.059191 0
M  V30 32 C -3.453697 1.795354 0.261405 0
M  V30 33 C -2.149917 2.167387 -0.100484 0
M  V30 34 C 5.631087 0.492742 1.450428 0
M  V30 35 C 6.263375 0.311066 2.673585 0
M  V30 36 H 7.964169 -0.281619 4.632689 0
M  V30 37 H 6.917039 -1.739969 4.828276 0
M  V30 38 H 8.468135 -1.907284 3.953146 0
M  V30 39 H 7.417758 -2.828560 2.043744 0
M  V30 40 H 6.268812 -2.384450 -0.060412 0
M  V30 41 H 5.409816 -0.599530 -1.680922 0
M  V30 42 H 4.999166 0.979756 -1.022827 0
M  V30 43 H 3.906067 -2.170262 0.290405 0
M  V30 44 H 2.324105 -2.225704 -0.482322 0
M  V30 45 H 3.695670 -3.746474 -1.668415 0
M  V30 46 H 4.936065 -2.550485 -2.049363 0
M  V30 47 H 1.980898 -2.652797 -2.807706 0
M  V30 48 H 3.408519 -2.731486 -3.887645 0
M  V30 49 H 3.881496 -0.527430 -3.853661 0
M  V30 50 H 2.099974 -0.534176 -3.842003 0
M  V30 51 H 3.430337 1.014246 -2.205759 0
M  V30 52 H 1.009572 0.851882 -2.697234 0
M  V30 53 H 0.911137 -0.449164 -1.524097 0
M  V30 54 H 1.895879 1.272471 0.246630 0
M  V30 55 H 1.875916 2.437490 -1.064155 0
M  V30 56 H -0.559056 -0.684119 0.274148 0
M  V30 57 H -2.800487 -1.471922 0.923683 0
M  V30 58 H -7.305058 -3.158205 2.254329 0
M  V30 59 H -9.398718 -5.231514 2.898203 0
M  V30 60 H -8.515235 -4.522003 3.341892 0
M  V30 61 H -10.477845 -0.436270 2.257724 0
M  V30 62 H -8.919247 1.392080 1.496908 0
M  V30 63 H -6.230318 1.849518 0.829960 0
M  V30 64 H -4.307303 2.457486 0.277022 0
M  V30 65 H -2.139465 3.238200 -0.364097 0
M  V30 66 H 5.139215 1.445167 1.325986 0
M  V30 67 H 6.287816 1.031568 3.462431 0
M  V30 END ATOM
M  V30 BEGIN BOND
M  V30 1 1 1 2
M  V30 2 2 2 3
M  V30 3 1 3 4
M  V30 4 2 4 5
M  V30 5 1 5 6
M  V30 6 1 6 7
M  V30 7 1 7 8
M  V30 8 1 8 9
M  V30 9 1 9 10
M  V30 10 1 10 11
M  V30 11 1 11 12
M  V30 12 1 12 13
M  V30 13 1 13 14
M  V30 14 1 14 15
M  V30 15 1 15 16
M  V30 16 2 16 17
M  V30 17 1 17 18
M  V30 18 2 18 19
M  V30 19 1 19 20
M  V30 20 2 20 21
M  V30 21 1 21 22
M  V30 22 2 22 23
M  V30 23 1 23 24
M  V30 24 1 24 25
M  V30 25 1 25 26
M  V30 26 2 25 27
M  V30 27 2 24 28
M  V30 28 1 28 29
M  V30 29 2 29 30
M  V30 30 1 30 31
M  V30 31 1 19 32
M  V30 32 2 32 33
M  V30 33 1 5 34
M  V30 34 2 34 35
M  V30 35 1 35 2
M  V30 36 1 12 7
M  V30 37 1 33 16
M  V30 38 1 31 20
M  V30 39 1 30 22
M  V30 40 1 1 36
M  V30 41 1 1 37
M  V30 42 1 1 38
M  V30 43 1 3 39
M  V30 44 1 4 40
M  V30 45 1 6 41
M  V30 46 1 6 42
M  V30 47 1 8 43
M  V30 48 1 8 44
M  V30 49 1 9 45
M  V30 50 1 9 46
M  V30 51 1 10 47
M  V30 52 1 10 48
M  V30 53 1 11 49
M  V30 54 1 11 50
M  V30 55 1 12 51
M  V30 56 1 13 52
M  V30 57 1 13 53
M  V30 58 1 14 54
M  V30 59 1 14 55
M  V30 60 1 17 56
M  V30 61 1 18 57
M  V30 62 1 23 58
M  V30 63 1 26 59
M  V30 64 1 26 60
M  V30 65 1 28 61
M  V30 66 1 29 62
M  V30 67 1 31 63
M  V30 68 1 32 64
M  V30 69 1 33 65
M  V30 70 1 34 66
M  V30 71 1 35 67
M  V30 END BOND
M  V30 END CTAB
M  END
>  <Dataset>  (610) 
ChEMBL_Kinases

>  <Ligand_Instance>  (610) 
nan

>  <PDB_ID>  (610) 
nan

>  <Standardized_SMILES>  (610) 
Cc1ccc(CN2CCCCC2CCOc2ccc(-c3nc4cc(C(N)=O)ccc4[nH]3)cc2)cc1

>  <Name>  (610) 
nan

>  <Pocket>  (610) 
nan

>  <ATP_Site>  (610) 
nan

>  <Peripheral>  (610) 
nan

>  <Num_H_Atoms_ProtBoundConf>  (610) 
nan

>  <Num_Resolved_Atoms>  (610) 
nan

>  <Num_Not_Resolved_Atoms>  (610) 
nan

$$$$
CHEMBL250765
     RDKit          3D

  0  0  0  0  0  0  0  0  0  0999 V3000
M  V30 BEGIN CTAB
M  V30 COUNTS 61 65 0 0 0
M  V30 BEGIN ATOM
M  V30 1 N 7.817714 -5.125918 2.835579 0
M  V30 2 C 8.436184 -4.144176 2.046025 0
M  V30 3 O 9.656785 -4.247301 1.778960 0
M  V30 4 C 7.618591 -3.025095 1.560696 0
M  V30 5 C 8.208123 -2.070699 0.768850 0
M  V30 6 C 7.495244 -0.983920 0.272562 0
M  V30 7 C 6.146141 -0.849098 0.580317 0
M  V30 8 N 5.209009 0.060567 0.264602 0
M  V30 9 C 4.046857 -0.329262 0.858527 0
M  V30 10 C 2.772560 0.381994 0.764470 0
M  V30 11 C 1.706605 -0.145484 1.453423 0
M  V30 12 C 0.523537 0.537811 1.344591 0
M  V30 13 C 0.282907 1.683684 0.628293 0
M  V30 14 O -0.682649 2.537425 0.332038 0
M  V30 15 C -1.992349 2.754365 0.560355 0
M  V30 16 C -3.028106 1.775800 0.073208 0
M  V30 17 C -4.382170 2.315916 0.480869 0
M  V30 18 C -5.136533 1.378022 1.394359 0
M  V30 19 C -5.251837 -0.001718 0.734504 0
M  V30 20 N -3.999857 -0.447230 0.255212 0
M  V30 21 C -4.053753 -0.918866 -1.073268 0
M  V30 22 C -4.938861 -2.097820 -1.271002 0
M  V30 23 C -6.245424 -2.209548 -1.638423 0
M  V30 24 C -6.828690 -3.450619 -1.729071 0
M  V30 25 C -6.168567 -4.626775 -1.467934 0
M  V30 26 C -4.824201 -4.527973 -1.089404 0
M  V30 27 C -4.257142 -3.292406 -1.002952 0
M  V30 28 C -2.877488 0.378222 0.562323 0
M  V30 29 C 1.422024 2.167390 -0.052544 0
M  V30 30 C 2.684120 1.544257 -0.008726 0
M  V30 31 N 4.313909 -1.468452 1.519569 0
M  V30 32 C 5.610190 -1.835061 1.377117 0
M  V30 33 C 6.283225 -2.926989 1.888334 0
M  V30 34 H 7.363356 -5.847129 3.415777 0
M  V30 35 H 7.327957 -6.041610 2.614253 0
M  V30 36 H 9.258800 -2.235315 0.568108 0
M  V30 37 H 8.007409 -0.247785 -0.354587 0
M  V30 38 H 5.397802 0.905706 -0.338818 0
M  V30 39 H 1.703429 -1.032160 2.064303 0
M  V30 40 H -0.361477 0.220830 1.852046 0
M  V30 41 H -2.199594 2.816724 1.691586 0
M  V30 42 H -2.331134 3.809945 0.256569 0
M  V30 43 H -2.934934 1.778621 -1.050865 0
M  V30 44 H -4.974746 2.533438 -0.441740 0
M  V30 45 H -4.217642 3.238749 1.069916 0
M  V30 46 H -6.169303 1.758831 1.491690 0
M  V30 47 H -4.648887 1.238516 2.358916 0
M  V30 48 H -5.990026 0.174979 -0.096730 0
M  V30 49 H -5.770169 -0.648210 1.453833 0
M  V30 50 H -4.473915 -0.142315 -1.782033 0
M  V30 51 H -3.031736 -1.114195 -1.468166 0
M  V30 52 H -6.704762 -1.254017 -1.833974 0
M  V30 53 H -7.869179 -3.478733 -2.025424 0
M  V30 54 H -6.673458 -5.573930 -1.553304 0
M  V30 55 H -4.346526 -5.463428 -0.894623 0
M  V30 56 H -3.203911 -3.368074 -0.697091 0
M  V30 57 H -1.962650 -0.119211 0.141220 0
M  V30 58 H -2.736977 0.403419 1.681314 0
M  V30 59 H 1.550409 3.056103 -0.703255 0
M  V30 60 H 3.596138 1.848441 -0.496679 0
M  V30 61 H 5.801813 -3.669850 2.511730 0
M  V30 END ATOM
M  V30 BEGIN BOND
M  V30 1 1 1 2
M  V30 2 2 2 3
M  V30 3 1 2 4
M  V30 4 2 4 5
M  V30 5 1 5 6
M  V30 6 2 6 7
M  V30 7 1 7 8
M  V30 8 1 8 9
M  V30 9 1 9 10
M  V30 10 2 10 11
M  V30 11 1 11 12
M  V30 12 2 12 13
M  V30 13 1 13 14
M  V30 14 1 14 15
M  V30 15 1 15 16
M  V30 16 1 16 17
M  V30 17 1 17 18
M  V30 18 1 18 19
M  V30 19 1 19 20
M  V30 20 1 20 21
M  V30 21 1 21 22
M  V30 22 2 22 23
M  V30 23 1 23 24
M  V30 24 2 24 25
M  V30 25 1 25 26
M  V30 26 2 26 27
M  V30 27 1 20 28
M  V30 28 1 13 29
M  V30 29 2 29 30
M  V30 30 2 9 31
M  V30 31 1 31 32
M  V30 32 2 32 33
M  V30 33 1 33 4
M  V30 34 1 32 7
M  V30 35 1 30 10
M  V30 36 1 28 16
M  V30 37 1 27 22
M  V30 38 1 1 34
M  V30 39 1 1 35
M  V30 40 1 5 36
M  V30 41 1 6 37
M  V30 42 1 8 38
M  V30 43 1 11 39
M  V30 44 1 12 40
M  V30 45 1 15 41
M  V30 46 1 15 42
M  V30 47 1 16 43
M  V30 48 1 17 44
M  V30 49 1 17 45
M  V30 50 1 18 46
M  V30 51 1 18 47
M  V30 52 1 19 48
M  V30 53 1 19 49
M  V30 54 1 21 50
M  V30 55 1 21 51
M  V30 56 1 23 52
M  V30 57 1 24 53
M  V30 58 1 25 54
M  V30 59 1 26 55
M  V30 60 1 27 56
M  V30 61 1 28 57
M  V30 62 1 28 58
M  V30 63 1 29 59
M  V30 64 1 30 60
M  V30 65 1 33 61
M  V30 END BOND
M  V30 END CTAB
M  END
>  <Dataset>  (611) 
ChEMBL_Kinases

>  <Ligand_Instance>  (611) 
nan

>  <PDB_ID>  (611) 
nan

>  <Standardized_SMILES>  (611) 
NC(=O)c1ccc2[nH]c(-c3ccc(OCC4CCCN(Cc5ccccc5)C4)cc3)nc2c1

>  <Name>  (611) 
nan

>  <Pocket>  (611) 
nan

>  <ATP_Site>  (611) 
nan

>  <Peripheral>  (611) 
nan

>  <Num_H_Atoms_ProtBoundConf>  (611) 
nan

>  <Num_Resolved_Atoms>  (611) 
nan

>  <Num_Not_Resolved_Atoms>  (611) 
nan

$$$$
CHEMBL250791
     RDKit          3D

  0  0  0  0  0  0  0  0  0  0999 V3000
M  V30 BEGIN CTAB
M  V30 COUNTS 53 57 0 0 0
M  V30 BEGIN ATOM
M  V30 1 C -0.568628 0.490393 5.578553 0
M  V30 2 N 0.322025 -0.574495 5.985536 0
M  V30 3 C -0.311370 -1.865623 5.912497 0
M  V30 4 C 1.592019 -0.528680 5.325165 0
M  V30 5 C 1.365258 -0.643060 3.854167 0
M  V30 6 C 1.178339 0.505145 3.095566 0
M  V30 7 C 0.966464 0.427007 1.731077 0
M  V30 8 N 0.937885 -0.768740 1.113037 0
M  V30 9 C 0.751622 -1.120372 -0.192021 0
M  V30 10 C 0.524419 -0.186623 -1.291642 0
M  V30 11 C 1.471107 -0.156792 -2.294343 0
M  V30 12 C 1.240334 0.730714 -3.324061 0
M  V30 13 N 0.164755 1.533153 -3.375775 0
M  V30 14 C -0.769380 1.499685 -2.380602 0
M  V30 15 N -1.925248 2.330508 -2.387971 0
M  V30 16 C -2.973240 2.372622 -1.389079 0
M  V30 17 C -2.649403 2.725948 0.039492 0
M  V30 18 C -3.165697 1.346125 -0.367866 0
M  V30 19 N -0.514540 0.638631 -1.413001 0
M  V30 20 C 0.815260 -2.495374 -0.293847 0
M  V30 21 C 0.654732 -3.204558 -1.566929 0
M  V30 22 C 1.562993 -4.016793 -2.214665 0
M  V30 23 C 1.210804 -4.595111 -3.416489 0
M  V30 24 C -0.024080 -4.389035 -3.996913 0
M  V30 25 F -0.319316 -4.985349 -5.186243 0
M  V30 26 C -0.942524 -3.572409 -3.349392 0
M  V30 27 C -0.595400 -2.995146 -2.153076 0
M  V30 28 N 1.039013 -2.923762 0.961215 0
M  V30 29 C 1.112864 -1.889391 1.806261 0
M  V30 30 C 1.329641 -1.849295 3.188099 0
M  V30 31 H -1.495756 0.349659 6.192214 0
M  V30 32 H -0.867275 0.318295 4.533173 0
M  V30 33 H -0.114701 1.473329 5.739199 0
M  V30 34 H -0.768693 -1.974640 4.911915 0
M  V30 35 H 0.529146 -2.618221 5.975602 0
M  V30 36 H -1.018054 -2.040028 6.755692 0
M  V30 37 H 2.176243 -1.415227 5.615925 0
M  V30 38 H 2.127450 0.393744 5.565182 0
M  V30 39 H 1.208054 1.450392 3.628949 0
M  V30 40 H 0.821529 1.338434 1.149914 0
M  V30 41 H 2.347283 -0.777131 -2.299701 0
M  V30 42 H 1.947626 0.811728 -4.156644 0
M  V30 43 H -1.997765 2.978083 -3.229877 0
M  V30 44 H -3.915489 2.859991 -1.752397 0
M  V30 45 H -3.309964 3.409923 0.590337 0
M  V30 46 H -1.581639 2.834177 0.335818 0
M  V30 47 H -2.470020 0.555563 -0.093427 0
M  V30 48 H -4.196853 1.160437 0.017130 0
M  V30 49 H 2.502431 -4.122731 -1.691058 0
M  V30 50 H 1.958029 -5.225882 -3.888447 0
M  V30 51 H -1.887759 -3.451110 -3.853348 0
M  V30 52 H -1.361440 -2.384588 -1.727718 0
M  V30 53 H 1.472977 -2.777499 3.752418 0
M  V30 END ATOM
M  V30 BEGIN BOND
M  V30 1 1 1 2
M  V30 2 1 2 3
M  V30 3 1 2 4
M  V30 4 1 4 5
M  V30 5 1 5 6
M  V30 6 2 6 7
M  V30 7 1 7 8
M  V30 8 1 8 9
M  V30 9 1 9 10
M  V30 10 2 10 11
M  V30 11 1 11 12
M  V30 12 2 12 13
M  V30 13 1 13 14
M  V30 14 1 14 15
M  V30 15 1 15 16
M  V30 16 1 16 17
M  V30 17 1 17 18
M  V30 18 2 14 19
M  V30 19 2 9 20
M  V30 20 1 20 21
M  V30 21 2 21 22
M  V30 22 1 22 23
M  V30 23 2 23 24
M  V30 24 1 24 25
M  V30 25 1 24 26
M  V30 26 2 26 27
M  V30 27 1 20 28
M  V30 28 2 28 29
M  V30 29 1 29 30
M  V30 30 2 30 5
M  V30 31 1 29 8
M  V30 32 1 19 10
M  V30 33 1 27 21
M  V30 34 1 18 16
M  V30 35 1 1 31
M  V30 36 1 1 32
M  V30 37 1 1 33
M  V30 38 1 3 34
M  V30 39 1 3 35
M  V30 40 1 3 36
M  V30 41 1 4 37
M  V30 42 1 4 38
M  V30 43 1 6 39
M  V30 44 1 7 40
M  V30 45 1 11 41
M  V30 46 1 12 42
M  V30 47 1 15 43
M  V30 48 1 16 44
M  V30 49 1 17 45
M  V30 50 1 17 46
M  V30 51 1 18 47
M  V30 52 1 18 48
M  V30 53 1 22 49
M  V30 54 1 23 50
M  V30 55 1 26 51
M  V30 56 1 27 52
M  V30 57 1 30 53
M  V30 END BOND
M  V30 END CTAB
M  END
>  <Dataset>  (612) 
ChEMBL_Kinases

>  <Ligand_Instance>  (612) 
nan

>  <PDB_ID>  (612) 
nan

>  <Standardized_SMILES>  (612) 
CN(C)Cc1ccn2c(-c3ccnc(NC4CC4)n3)c(-c3ccc(F)cc3)nc2c1

>  <Name>  (612) 
nan

>  <Pocket>  (612) 
nan

>  <ATP_Site>  (612) 
nan

>  <Peripheral>  (612) 
nan

>  <Num_H_Atoms_ProtBoundConf>  (612) 
nan

>  <Num_Resolved_Atoms>  (612) 
nan

>  <Num_Not_Resolved_Atoms>  (612) 
nan

$$$$
CHEMBL250796
     RDKit          3D

  0  0  0  0  0  0  0  0  0  0999 V3000
M  V30 BEGIN CTAB
M  V30 COUNTS 40 42 0 0 0
M  V30 BEGIN ATOM
M  V30 1 N 0.908170 -8.336607 -0.703021 0
M  V30 2 C 1.464634 -7.027091 -0.946888 0
M  V30 3 O 2.513451 -6.892530 -1.606002 0
M  V30 4 C 0.753823 -5.880816 -0.394093 0
M  V30 5 C -0.406428 -6.021556 0.337881 0
M  V30 6 C -1.138336 -4.986172 0.896201 0
M  V30 7 C -0.615766 -3.716617 0.670180 0
M  V30 8 N -1.010544 -2.481903 1.030214 0
M  V30 9 C -0.172054 -1.533138 0.574491 0
M  V30 10 C -0.333888 -0.092052 0.804555 0
M  V30 11 C 0.631614 0.700165 0.252221 0
M  V30 12 C 0.486959 2.048709 0.464931 0
M  V30 13 C -0.516340 2.669872 1.167545 0
M  V30 14 O -0.901055 3.897803 1.527768 0
M  V30 15 C -0.533900 5.189198 1.426164 0
M  V30 16 C 0.736875 5.670035 2.024685 0
M  V30 17 C 2.005297 5.071264 1.541208 0
M  V30 18 O 2.162931 5.284533 0.178339 0
M  V30 19 C -1.473109 1.783294 1.705484 0
M  V30 20 C -1.378481 0.392906 1.520969 0
M  V30 21 N 0.766554 -2.207721 -0.085940 0
M  V30 22 C 0.543535 -3.534255 -0.057633 0
M  V30 23 C 1.235145 -4.603158 -0.593027 0
M  V30 24 H -0.013511 -8.348508 -1.234436 0
M  V30 25 H 1.641390 -8.781248 -0.083265 0
M  V30 26 H -0.830652 -7.016339 0.524552 0
M  V30 27 H -2.036046 -5.139551 1.458762 0
M  V30 28 H -1.884747 -2.354341 1.602097 0
M  V30 29 H 1.494232 0.418790 -0.328948 0
M  V30 30 H 1.173383 2.762029 0.069248 0
M  V30 31 H -1.352022 5.811751 1.935831 0
M  V30 32 H -0.541938 5.593457 0.366528 0
M  V30 33 H 0.776295 6.784900 1.809666 0
M  V30 34 H 0.687368 5.640698 3.151123 0
M  V30 35 H 2.867332 5.645795 2.011379 0
M  V30 36 H 2.061453 4.015668 1.857628 0
M  V30 37 H 2.728108 4.570055 -0.207490 0
M  V30 38 H -2.376911 1.989802 2.306462 0
M  V30 39 H -2.064900 -0.346239 1.897673 0
M  V30 40 H 2.145560 -4.489327 -1.167216 0
M  V30 END ATOM
M  V30 BEGIN BOND
M  V30 1 1 1 2
M  V30 2 2 2 3
M  V30 3 1 2 4
M  V30 4 2 4 5
M  V30 5 1 5 6
M  V30 6 2 6 7
M  V30 7 1 7 8
M  V30 8 1 8 9
M  V30 9 1 9 10
M  V30 10 2 10 11
M  V30 11 1 11 12
M  V30 12 2 12 13
M  V30 13 1 13 14
M  V30 14 1 14 15
M  V30 15 1 15 16
M  V30 16 1 16 17
M  V30 17 1 17 18
M  V30 18 1 13 19
M  V30 19 2 19 20
M  V30 20 2 9 21
M  V30 21 1 21 22
M  V30 22 2 22 23
M  V30 23 1 23 4
M  V30 24 1 22 7
M  V30 25 1 20 10
M  V30 26 1 1 24
M  V30 27 1 1 25
M  V30 28 1 5 26
M  V30 29 1 6 27
M  V30 30 1 8 28
M  V30 31 1 11 29
M  V30 32 1 12 30
M  V30 33 1 15 31
M  V30 34 1 15 32
M  V30 35 1 16 33
M  V30 36 1 16 34
M  V30 37 1 17 35
M  V30 38 1 17 36
M  V30 39 1 18 37
M  V30 40 1 19 38
M  V30 41 1 20 39
M  V30 42 1 23 40
M  V30 END BOND
M  V30 END CTAB
M  END
>  <Dataset>  (613) 
ChEMBL_Kinases

>  <Ligand_Instance>  (613) 
nan

>  <PDB_ID>  (613) 
nan

>  <Standardized_SMILES>  (613) 
NC(=O)c1ccc2[nH]c(-c3ccc(OCCCO)cc3)nc2c1

>  <Name>  (613) 
nan

>  <Pocket>  (613) 
nan

>  <ATP_Site>  (613) 
nan

>  <Peripheral>  (613) 
nan

>  <Num_H_Atoms_ProtBoundConf>  (613) 
nan

>  <Num_Resolved_Atoms>  (613) 
nan

>  <Num_Not_Resolved_Atoms>  (613) 
nan

$$$$
CHEMBL250800
     RDKit          3D

  0  0  0  0  0  0  0  0  0  0999 V3000
M  V30 BEGIN CTAB
M  V30 COUNTS 59 63 0 0 0
M  V30 BEGIN ATOM
M  V30 1 C 3.209596 -1.391971 5.153626 0
M  V30 2 N 4.326748 -1.596241 4.314705 0
M  V30 3 C 4.611114 -2.935317 3.947676 0
M  V30 4 C 4.617848 -0.585280 3.358768 0
M  V30 5 C 3.574427 -0.300263 2.374803 0
M  V30 6 C 2.565024 0.619918 2.503298 0
M  V30 7 C 1.619424 0.823250 1.520747 0
M  V30 8 N 1.655161 0.107220 0.371827 0
M  V30 9 C 0.907114 0.055130 -0.761588 0
M  V30 10 C -0.244231 0.942904 -0.885595 0
M  V30 11 C -0.242214 1.881179 -1.887493 0
M  V30 12 C -1.326829 2.696368 -1.981926 0
M  V30 13 N -2.381675 2.649613 -1.178634 0
M  V30 14 C -2.380058 1.722437 -0.191076 0
M  V30 15 N -3.347072 1.454173 0.800562 0
M  V30 16 C -3.713086 0.628401 1.907979 0
M  V30 17 C -3.950876 -0.795878 1.577018 0
M  V30 18 C -5.304866 -1.083878 1.434092 0
M  V30 19 C -5.796386 -2.325918 1.109014 0
M  V30 20 C -4.947796 -3.376088 0.903111 0
M  V30 21 F -5.259733 -4.642833 0.581571 0
M  V30 22 C -3.593605 -3.099148 1.043713 0
M  V30 23 C -3.107726 -1.851975 1.369999 0
M  V30 24 F -1.798532 -1.557082 1.531383 0
M  V30 25 N -1.311589 0.930886 -0.110260 0
M  V30 26 C 1.430742 -0.898992 -1.626445 0
M  V30 27 C 0.824558 -1.168319 -2.925021 0
M  V30 28 C -0.474493 -1.654967 -2.778068 0
M  V30 29 C -1.252530 -1.982829 -3.872992 0
M  V30 30 C -0.702052 -1.813339 -5.127665 0
M  V30 31 F -1.453229 -2.130793 -6.215917 0
M  V30 32 C 0.577073 -1.334640 -5.287970 0
M  V30 33 C 1.344346 -1.010791 -4.191865 0
M  V30 34 N 2.493102 -1.402218 -0.983015 0
M  V30 35 C 2.633491 -0.800603 0.220393 0
M  V30 36 C 3.596158 -1.028263 1.186076 0
M  V30 37 H 2.281731 -1.910336 4.909600 0
M  V30 38 H 3.496851 -1.747877 6.185961 0
M  V30 39 H 3.058147 -0.302172 5.270397 0
M  V30 40 H 3.749767 -3.556349 3.702333 0
M  V30 41 H 5.384295 -2.911569 3.132884 0
M  V30 42 H 5.157006 -3.415971 4.807855 0
M  V30 43 H 4.787485 0.368605 3.934381 0
M  V30 44 H 5.604548 -0.824833 2.906763 0
M  V30 45 H 2.562541 1.174737 3.428167 0
M  V30 46 H 0.839276 1.547424 1.641940 0
M  V30 47 H 0.536783 2.030169 -2.602934 0
M  V30 48 H -1.473429 3.492320 -2.726102 0
M  V30 49 H -4.117830 2.177664 0.635922 0
M  V30 50 H -2.815173 0.592216 2.615185 0
M  V30 51 H -4.506628 1.053673 2.534563 0
M  V30 52 H -6.114788 -0.351865 1.565754 0
M  V30 53 H -6.850336 -2.556605 0.996316 0
M  V30 54 H -2.807444 -3.846586 0.907322 0
M  V30 55 H -1.001322 -1.825142 -1.830339 0
M  V30 56 H -2.266371 -2.364029 -3.800494 0
M  V30 57 H 1.043220 -1.188188 -6.253384 0
M  V30 58 H 2.359734 -0.626162 -4.178687 0
M  V30 59 H 4.363458 -1.767915 1.021315 0
M  V30 END ATOM
M  V30 BEGIN BOND
M  V30 1 1 1 2
M  V30 2 1 2 3
M  V30 3 1 2 4
M  V30 4 1 4 5
M  V30 5 1 5 6
M  V30 6 2 6 7
M  V30 7 1 7 8
M  V30 8 1 8 9
M  V30 9 1 9 10
M  V30 10 2 10 11
M  V30 11 1 11 12
M  V30 12 2 12 13
M  V30 13 1 13 14
M  V30 14 1 14 15
M  V30 15 1 15 16
M  V30 16 1 16 17
M  V30 17 2 17 18
M  V30 18 1 18 19
M  V30 19 2 19 20
M  V30 20 1 20 21
M  V30 21 1 20 22
M  V30 22 2 22 23
M  V30 23 1 23 24
M  V30 24 2 14 25
M  V30 25 2 9 26
M  V30 26 1 26 27
M  V30 27 2 27 28
M  V30 28 1 28 29
M  V30 29 2 29 30
M  V30 30 1 30 31
M  V30 31 1 30 32
M  V30 32 2 32 33
M  V30 33 1 26 34
M  V30 34 2 34 35
M  V30 35 1 35 36
M  V30 36 2 36 5
M  V30 37 1 35 8
M  V30 38 1 25 10
M  V30 39 1 33 27
M  V30 40 1 23 17
M  V30 41 1 1 37
M  V30 42 1 1 38
M  V30 43 1 1 39
M  V30 44 1 3 40
M  V30 45 1 3 41
M  V30 46 1 3 42
M  V30 47 1 4 43
M  V30 48 1 4 44
M  V30 49 1 6 45
M  V30 50 1 7 46
M  V30 51 1 11 47
M  V30 52 1 12 48
M  V30 53 1 15 49
M  V30 54 1 16 50
M  V30 55 1 16 51
M  V30 56 1 18 52
M  V30 57 1 19 53
M  V30 58 1 22 54
M  V30 59 1 28 55
M  V30 60 1 29 56
M  V30 61 1 32 57
M  V30 62 1 33 58
M  V30 63 1 36 59
M  V30 END BOND
M  V30 END CTAB
M  END
>  <Dataset>  (614) 
ChEMBL_Kinases

>  <Ligand_Instance>  (614) 
nan

>  <PDB_ID>  (614) 
nan

>  <Standardized_SMILES>  (614) 
CN(C)Cc1ccn2c(-c3ccnc(NCc4ccc(F)cc4F)n3)c(-c3ccc(F)cc3)nc2c1

>  <Name>  (614) 
nan

>  <Pocket>  (614) 
nan

>  <ATP_Site>  (614) 
nan

>  <Peripheral>  (614) 
nan

>  <Num_H_Atoms_ProtBoundConf>  (614) 
nan

>  <Num_Resolved_Atoms>  (614) 
nan

>  <Num_Not_Resolved_Atoms>  (614) 
nan

$$$$
CHEMBL250869
     RDKit          3D

  0  0  0  0  0  0  0  0  0  0999 V3000
M  V30 BEGIN CTAB
M  V30 COUNTS 30 32 0 0 0
M  V30 BEGIN ATOM
M  V30 1 O 0.713617 -3.883378 -0.389282 0
M  V30 2 C 0.342155 -3.334977 0.659909 0
M  V30 3 N -0.067660 -4.218598 1.697505 0
M  V30 4 C -1.040657 -4.025430 2.750129 0
M  V30 5 C -1.625117 -2.639238 2.752071 0
M  V30 6 C -0.651661 -1.550612 3.064959 0
M  V30 7 C -0.075579 -1.030600 1.794521 0
M  V30 8 N 0.140154 0.220915 1.402831 0
M  V30 9 C 0.682651 0.242273 0.169165 0
M  V30 10 C 1.069090 1.410184 -0.617863 0
M  V30 11 C 1.623268 1.262353 -1.891640 0
M  V30 12 C 1.962777 2.422068 -2.572447 0
M  V30 13 N 1.759572 3.625583 -2.013867 0
M  V30 14 C 1.231102 3.811154 -0.795627 0
M  V30 15 C 0.877838 2.666905 -0.082269 0
M  V30 16 C 0.820549 -1.067521 -0.249070 0
M  V30 17 C 0.345525 -1.868296 0.768942 0
M  V30 18 H 0.384967 -5.151020 1.726693 0
M  V30 19 H -0.665512 -4.289399 3.750283 0
M  V30 20 H -1.881263 -4.713684 2.521295 0
M  V30 21 H -2.152545 -2.419471 1.813491 0
M  V30 22 H -2.402194 -2.633648 3.545214 0
M  V30 23 H 0.111132 -1.959951 3.740876 0
M  V30 24 H -1.142882 -0.700914 3.613918 0
M  V30 25 H -0.090150 1.043637 1.992741 0
M  V30 26 H 1.768929 0.255042 -2.303521 0
M  V30 27 H 2.386671 2.296228 -3.547789 0
M  V30 28 H 1.105629 4.819739 -0.429578 0
M  V30 29 H 0.455581 2.838402 0.892950 0
M  V30 30 H 1.216887 -1.444886 -1.181637 0
M  V30 END ATOM
M  V30 BEGIN BOND
M  V30 1 2 1 2
M  V30 2 1 2 3
M  V30 3 1 3 4
M  V30 4 1 4 5
M  V30 5 1 5 6
M  V30 6 1 6 7
M  V30 7 1 7 8
M  V30 8 1 8 9
M  V30 9 1 9 10
M  V30 10 2 10 11
M  V30 11 1 11 12
M  V30 12 2 12 13
M  V30 13 1 13 14
M  V30 14 2 14 15
M  V30 15 2 9 16
M  V30 16 1 16 17
M  V30 17 1 17 2
M  V30 18 2 17 7
M  V30 19 1 15 10
M  V30 20 1 3 18
M  V30 21 1 4 19
M  V30 22 1 4 20
M  V30 23 1 5 21
M  V30 24 1 5 22
M  V30 25 1 6 23
M  V30 26 1 6 24
M  V30 27 1 8 25
M  V30 28 1 11 26
M  V30 29 1 12 27
M  V30 30 1 14 28
M  V30 31 1 15 29
M  V30 32 1 16 30
M  V30 END BOND
M  V30 END CTAB
M  END
>  <Dataset>  (615) 
ChEMBL_Kinases

>  <Ligand_Instance>  (615) 
nan

>  <PDB_ID>  (615) 
nan

>  <Standardized_SMILES>  (615) 
O=C1NCCCc2[nH]c(-c3ccncc3)cc21

>  <Name>  (615) 
nan

>  <Pocket>  (615) 
nan

>  <ATP_Site>  (615) 
nan

>  <Peripheral>  (615) 
nan

>  <Num_H_Atoms_ProtBoundConf>  (615) 
nan

>  <Num_Resolved_Atoms>  (615) 
nan

>  <Num_Not_Resolved_Atoms>  (615) 
nan

$$$$
CHEMBL250884
     RDKit          3D

  0  0  0  0  0  0  0  0  0  0999 V3000
M  V30 BEGIN CTAB
M  V30 COUNTS 35 37 0 0 0
M  V30 BEGIN ATOM
M  V30 1 N -0.038473 -4.004062 4.562975 0
M  V30 2 C 0.767025 -3.477470 3.504463 0
M  V30 3 N 2.061180 -3.825275 3.289083 0
M  V30 4 C 2.738583 -3.257659 2.244222 0
M  V30 5 C 2.027861 -2.371902 1.498593 0
M  V30 6 C 0.727855 -1.980119 1.661005 0
M  V30 7 C -0.018736 -1.020630 0.883483 0
M  V30 8 C -1.317673 -0.724427 1.249234 0
M  V30 9 C -1.867386 0.209277 0.404393 0
M  V30 10 C -0.888256 0.502787 -0.511956 0
M  V30 11 N 0.194907 -0.254440 -0.188062 0
M  V30 12 C 1.438031 -0.235197 -0.925825 0
M  V30 13 C 2.429526 0.730482 -0.347463 0
M  V30 14 O 3.629442 0.747197 -1.061722 0
M  V30 15 C -1.098200 1.484651 -1.608415 0
M  V30 16 C -2.113151 2.518214 -1.188605 0
M  V30 17 N -3.369008 1.864572 -0.789825 0
M  V30 18 C -3.137955 0.905119 0.263854 0
M  V30 19 O -4.040173 0.621803 1.123529 0
M  V30 20 N 0.152865 -2.590495 2.708473 0
M  V30 21 H 0.326012 -3.562964 5.451360 0
M  V30 22 H -0.841173 -4.676910 4.619472 0
M  V30 23 H 3.761201 -3.526244 2.066450 0
M  V30 24 H 2.616804 -1.952801 0.713289 0
M  V30 25 H -1.958404 -1.088079 2.060077 0
M  V30 26 H 1.184781 0.198676 -1.963927 0
M  V30 27 H 1.817534 -1.225270 -1.194484 0
M  V30 28 H 2.642567 0.575908 0.716082 0
M  V30 29 H 1.996639 1.755198 -0.451230 0
M  V30 30 H 4.125263 1.586446 -0.900007 0
M  V30 31 H -0.155348 2.062055 -1.808785 0
M  V30 32 H -1.450106 0.959839 -2.522522 0
M  V30 33 H -1.688682 3.114506 -0.373018 0
M  V30 34 H -2.374025 3.139715 -2.071039 0
M  V30 35 H -4.387161 1.926044 -1.083862 0
M  V30 END ATOM
M  V30 BEGIN BOND
M  V30 1 1 1 2
M  V30 2 2 2 3
M  V30 3 1 3 4
M  V30 4 2 4 5
M  V30 5 1 5 6
M  V30 6 1 6 7
M  V30 7 2 7 8
M  V30 8 1 8 9
M  V30 9 2 9 10
M  V30 10 1 10 11
M  V30 11 1 11 12
M  V30 12 1 12 13
M  V30 13 1 13 14
M  V30 14 1 10 15
M  V30 15 1 15 16
M  V30 16 1 16 17
M  V30 17 1 17 18
M  V30 18 2 18 19
M  V30 19 2 6 20
M  V30 20 1 20 2
M  V30 21 1 11 7
M  V30 22 1 18 9
M  V30 23 1 1 21
M  V30 24 1 1 22
M  V30 25 1 4 23
M  V30 26 1 5 24
M  V30 27 1 8 25
M  V30 28 1 12 26
M  V30 29 1 12 27
M  V30 30 1 13 28
M  V30 31 1 13 29
M  V30 32 1 14 30
M  V30 33 1 15 31
M  V30 34 1 15 32
M  V30 35 1 16 33
M  V30 36 1 16 34
M  V30 37 1 17 35
M  V30 END BOND
M  V30 END CTAB
M  END
>  <Dataset>  (616) 
ChEMBL_Kinases

>  <Ligand_Instance>  (616) 
nan

>  <PDB_ID>  (616) 
nan

>  <Standardized_SMILES>  (616) 
Nc1nccc(-c2cc3c(n2CCO)CCNC3=O)n1

>  <Name>  (616) 
nan

>  <Pocket>  (616) 
nan

>  <ATP_Site>  (616) 
nan

>  <Peripheral>  (616) 
nan

>  <Num_H_Atoms_ProtBoundConf>  (616) 
nan

>  <Num_Resolved_Atoms>  (616) 
nan

>  <Num_Not_Resolved_Atoms>  (616) 
nan

$$$$
CHEMBL250753
     RDKit          3D

  0  0  0  0  0  0  0  0  0  0999 V3000
M  V30 BEGIN CTAB
M  V30 COUNTS 46 49 0 0 0
M  V30 BEGIN ATOM
M  V30 1 C 0.422057 -3.962251 4.452479 0
M  V30 2 N 1.845111 -3.956758 4.384511 0
M  V30 3 C 2.484107 -3.031739 5.256889 0
M  V30 4 C 2.379730 -4.057588 3.064124 0
M  V30 5 C 1.884253 -2.891698 2.277471 0
M  V30 6 C 2.573489 -1.690440 2.220928 0
M  V30 7 C 2.048898 -0.646002 1.464590 0
M  V30 8 N 0.895367 -0.740894 0.777505 0
M  V30 9 C 0.215944 0.129174 -0.005563 0
M  V30 10 C 0.599436 1.485575 -0.318860 0
M  V30 11 N 0.879980 1.873986 -1.590481 0
M  V30 12 C 1.238403 3.139006 -1.875770 0
M  V30 13 N 1.509438 3.441179 -3.231188 0
M  V30 14 N 1.339074 4.086679 -0.923972 0
M  V30 15 C 1.073628 3.773887 0.374124 0
M  V30 16 C 0.703486 2.469046 0.671420 0
M  V30 17 Br 0.327864 2.032891 2.500058 0
M  V30 18 C -0.920739 -0.506122 -0.462209 0
M  V30 19 C -1.983206 -0.014309 -1.332454 0
M  V30 20 C -1.929331 0.398931 -2.630299 0
M  V30 21 C -3.112739 0.827364 -3.233726 0
M  V30 22 C -4.306264 0.846639 -2.578024 0
M  V30 23 F -5.418699 1.278799 -3.235495 0
M  V30 24 C -4.377216 0.426976 -1.250364 0
M  V30 25 C -3.208398 0.003653 -0.653843 0
M  V30 26 N -0.899927 -1.756313 0.061363 0
M  V30 27 C 0.212423 -1.900767 0.821027 0
M  V30 28 C 0.702527 -2.958342 1.561021 0
M  V30 29 H 0.124410 -3.803816 5.522434 0
M  V30 30 H -0.058811 -4.831643 4.005530 0
M  V30 31 H 0.040499 -3.045654 3.932237 0
M  V30 32 H 2.499429 -3.350052 6.320148 0
M  V30 33 H 1.915683 -2.065367 5.215139 0
M  V30 34 H 3.503396 -2.809958 4.909143 0
M  V30 35 H 1.920077 -4.984084 2.613108 0
M  V30 36 H 3.464835 -4.146624 3.049135 0
M  V30 37 H 3.502745 -1.581581 2.761138 0
M  V30 38 H 2.636147 0.247744 1.468586 0
M  V30 39 H 1.102647 3.990707 -4.019093 0
M  V30 40 H 2.407312 2.933888 -3.477802 0
M  V30 41 H 1.158957 4.545998 1.126619 0
M  V30 42 H -0.952895 0.346636 -3.054940 0
M  V30 43 H -3.011882 1.143778 -4.262525 0
M  V30 44 H -5.334317 0.462295 -0.785534 0
M  V30 45 H -3.382950 -0.302453 0.387750 0
M  V30 46 H 0.174322 -3.896847 1.611565 0
M  V30 END ATOM
M  V30 BEGIN BOND
M  V30 1 1 1 2
M  V30 2 1 2 3
M  V30 3 1 2 4
M  V30 4 1 4 5
M  V30 5 1 5 6
M  V30 6 2 6 7
M  V30 7 1 7 8
M  V30 8 1 8 9
M  V30 9 1 9 10
M  V30 10 2 10 11
M  V30 11 1 11 12
M  V30 12 1 12 13
M  V30 13 2 12 14
M  V30 14 1 14 15
M  V30 15 2 15 16
M  V30 16 1 16 17
M  V30 17 2 9 18
M  V30 18 1 18 19
M  V30 19 2 19 20
M  V30 20 1 20 21
M  V30 21 2 21 22
M  V30 22 1 22 23
M  V30 23 1 22 24
M  V30 24 2 24 25
M  V30 25 1 18 26
M  V30 26 2 26 27
M  V30 27 1 27 28
M  V30 28 2 28 5
M  V30 29 1 27 8
M  V30 30 1 16 10
M  V30 31 1 25 19
M  V30 32 1 1 29
M  V30 33 1 1 30
M  V30 34 1 1 31
M  V30 35 1 3 32
M  V30 36 1 3 33
M  V30 37 1 3 34
M  V30 38 1 4 35
M  V30 39 1 4 36
M  V30 40 1 6 37
M  V30 41 1 7 38
M  V30 42 1 13 39
M  V30 43 1 13 40
M  V30 44 1 15 41
M  V30 45 1 20 42
M  V30 46 1 21 43
M  V30 47 1 24 44
M  V30 48 1 25 45
M  V30 49 1 28 46
M  V30 END BOND
M  V30 END CTAB
M  END
>  <Dataset>  (617) 
ChEMBL_Kinases

>  <Ligand_Instance>  (617) 
nan

>  <PDB_ID>  (617) 
nan

>  <Standardized_SMILES>  (617) 
CN(C)Cc1ccn2c(-c3nc(N)ncc3Br)c(-c3ccc(F)cc3)nc2c1

>  <Name>  (617) 
nan

>  <Pocket>  (617) 
nan

>  <ATP_Site>  (617) 
nan

>  <Peripheral>  (617) 
nan

>  <Num_H_Atoms_ProtBoundConf>  (617) 
nan

>  <Num_Resolved_Atoms>  (617) 
nan

>  <Num_Not_Resolved_Atoms>  (617) 
nan

$$$$
CHEMBL255183
     RDKit          3D

  0  0  0  0  0  0  0  0  0  0999 V3000
M  V30 BEGIN CTAB
M  V30 COUNTS 56 59 0 0 0
M  V30 BEGIN ATOM
M  V30 1 C 4.072619 3.616887 -2.879913 0
M  V30 2 O 4.260768 2.589826 -1.937607 0
M  V30 3 C 3.214034 1.873682 -1.338008 0
M  V30 4 C 1.953400 2.250073 -1.743535 0
M  V30 5 C 0.911372 1.531295 -1.145550 0
M  V30 6 C 1.185121 0.537129 -0.230869 0
M  V30 7 C 2.485452 0.233882 0.110977 0
M  V30 8 C 3.586806 0.903103 -0.438468 0
M  V30 9 C 4.938835 0.546806 -0.016967 0
M  V30 10 C 5.564789 1.434356 1.003488 0
M  V30 11 C 5.718878 2.868950 0.640365 0
M  V30 12 O 6.344792 3.484495 1.758380 0
M  V30 13 N 0.230976 -0.280867 0.460751 0
M  V30 14 C -1.127848 -0.604443 0.110291 0
M  V30 15 C -1.553660 -1.746695 0.759671 0
M  V30 16 C -2.852419 -2.208403 0.535721 0
M  V30 17 C -3.207029 -3.420028 1.264439 0
M  V30 18 C -2.249958 -4.370965 1.548661 0
M  V30 19 C -2.547193 -5.527958 2.234043 0
M  V30 20 C -3.850853 -5.768656 2.665329 0
M  V30 21 N -4.116397 -6.960202 3.362607 0 CHG=1 VAL=4
M  V30 22 O -5.178660 -7.623987 3.360330 0
M  V30 23 O -3.202870 -7.583455 4.176576 0 CHG=-1 VAL=1
M  V30 24 C -4.828732 -4.811148 2.382678 0
M  V30 25 O -6.086267 -5.150958 2.856214 0
M  V30 26 C -7.172628 -4.300295 2.653625 0
M  V30 27 C -4.489601 -3.664642 1.693038 0
M  V30 28 C -3.658025 -1.497711 -0.330806 0
M  V30 29 C -3.191928 -0.359689 -0.959775 0
M  V30 30 C -1.911688 0.123986 -0.759725 0
M  V30 31 C -1.608424 1.336443 -1.514260 0
M  V30 32 O -2.580041 1.849705 -2.125466 0
M  V30 33 N -0.340647 2.011652 -1.642955 0
M  V30 34 H 3.730151 3.241645 -3.875899 0
M  V30 35 H 5.040635 4.110547 -3.047569 0
M  V30 36 H 3.353862 4.394665 -2.538355 0
M  V30 37 H 1.796606 3.036697 -2.464550 0
M  V30 38 H 2.627675 -0.564116 0.840526 0
M  V30 39 H 4.895283 -0.478361 0.456953 0
M  V30 40 H 5.625626 0.370096 -0.898616 0
M  V30 41 H 6.604155 1.056434 1.232463 0
M  V30 42 H 4.975251 1.407034 1.961105 0
M  V30 43 H 6.344581 3.084740 -0.228203 0
M  V30 44 H 4.720266 3.375852 0.605183 0
M  V30 45 H 5.979690 4.374817 1.947154 0
M  V30 46 H 0.594075 -0.694485 1.348330 0
M  V30 47 H -0.864462 -2.251869 1.425748 0
M  V30 48 H -1.210692 -4.268900 1.253136 0
M  V30 49 H -1.787562 -6.285759 2.461925 0
M  V30 50 H -8.101635 -4.928025 2.718213 0
M  V30 51 H -7.175976 -3.525337 3.468463 0
M  V30 52 H -7.109270 -3.810597 1.683915 0
M  V30 53 H -5.279737 -2.959081 1.502336 0
M  V30 54 H -4.657665 -1.894809 -0.472979 0
M  V30 55 H -3.856334 0.170105 -1.633043 0
M  V30 56 H -0.333996 2.920675 -2.136670 0
M  V30 END ATOM
M  V30 BEGIN BOND
M  V30 1 1 1 2
M  V30 2 1 2 3
M  V30 3 2 3 4
M  V30 4 1 4 5
M  V30 5 2 5 6
M  V30 6 1 6 7
M  V30 7 2 7 8
M  V30 8 1 8 9
M  V30 9 1 9 10
M  V30 10 1 10 11
M  V30 11 1 11 12
M  V30 12 1 6 13
M  V30 13 1 13 14
M  V30 14 2 14 15
M  V30 15 1 15 16
M  V30 16 1 16 17
M  V30 17 2 17 18
M  V30 18 1 18 19
M  V30 19 2 19 20
M  V30 20 1 20 21
M  V30 21 2 21 22
M  V30 22 1 21 23
M  V30 23 1 20 24
M  V30 24 1 24 25
M  V30 25 1 25 26
M  V30 26 2 24 27
M  V30 27 2 16 28
M  V30 28 1 28 29
M  V30 29 2 29 30
M  V30 30 1 30 31
M  V30 31 2 31 32
M  V30 32 1 31 33
M  V30 33 1 8 3
M  V30 34 1 30 14
M  V30 35 1 33 5
M  V30 36 1 27 17
M  V30 37 1 1 34
M  V30 38 1 1 35
M  V30 39 1 1 36
M  V30 40 1 4 37
M  V30 41 1 7 38
M  V30 42 1 9 39
M  V30 43 1 9 40
M  V30 44 1 10 41
M  V30 45 1 10 42
M  V30 46 1 11 43
M  V30 47 1 11 44
M  V30 48 1 12 45
M  V30 49 1 13 46
M  V30 50 1 15 47
M  V30 51 1 18 48
M  V30 52 1 19 49
M  V30 53 1 26 50
M  V30 54 1 26 51
M  V30 55 1 26 52
M  V30 56 1 27 53
M  V30 57 1 28 54
M  V30 58 1 29 55
M  V30 59 1 33 56
M  V30 END BOND
M  V30 END CTAB
M  END
>  <Dataset>  (618) 
ChEMBL_Kinases

>  <Ligand_Instance>  (618) 
nan

>  <PDB_ID>  (618) 
nan

>  <Standardized_SMILES>  (618) 
COc1cc2c(cc1CCCO)Nc1cc(-c3ccc([N+](=O)[O-])c(OC)c3)ccc1C(=O)N2

>  <Name>  (618) 
nan

>  <Pocket>  (618) 
nan

>  <ATP_Site>  (618) 
nan

>  <Peripheral>  (618) 
nan

>  <Num_H_Atoms_ProtBoundConf>  (618) 
nan

>  <Num_Resolved_Atoms>  (618) 
nan

>  <Num_Not_Resolved_Atoms>  (618) 
nan

$$$$
CHEMBL255128
     RDKit          3D

  0  0  0  0  0  0  0  0  0  0999 V3000
M  V30 BEGIN CTAB
M  V30 COUNTS 60 64 0 0 0
M  V30 BEGIN ATOM
M  V30 1 O 3.739033 0.728179 6.109381 0
M  V30 2 C 3.656641 0.536872 4.730923 0 CFG=1
M  V30 3 C 4.603691 -0.583603 4.287025 0
M  V30 4 N 3.999932 -1.161678 3.128728 0
M  V30 5 C 2.663761 -0.663593 2.977581 0 CFG=2
M  V30 6 C 2.654556 0.454995 1.952433 0
M  V30 7 N 3.115882 0.015122 0.666336 0
M  V30 8 C 3.095236 1.077311 -0.279808 0
M  V30 9 C 1.953931 1.061394 -1.238751 0
M  V30 10 C 1.583984 -0.270748 -1.792414 0
M  V30 11 C 0.133744 -0.561758 -1.542479 0
M  V30 12 C -0.614767 -0.383982 -0.389772 0
M  V30 13 C -1.909577 -0.783882 -0.575546 0
M  V30 14 C -3.035582 -0.782523 0.344791 0
M  V30 15 C -2.917586 -1.506137 1.517155 0
M  V30 16 C -3.982541 -1.526935 2.423745 0
M  V30 17 N -5.092653 -0.845875 2.136027 0
M  V30 18 C -5.267648 -0.117602 1.001512 0
M  V30 19 C -4.215585 -0.096169 0.104891 0
M  V30 20 C -1.986901 -1.226108 -1.877122 0
M  V30 21 C -3.178526 -1.751096 -2.533986 0
M  V30 22 C -3.662928 -2.907490 -1.943195 0
M  V30 23 C -4.792792 -3.531748 -2.449253 0
M  V30 24 C -5.438131 -3.009371 -3.537878 0
M  V30 25 F -6.549320 -3.606293 -4.050365 0
M  V30 26 C -4.948376 -1.860655 -4.117074 0
M  V30 27 C -3.825100 -1.207302 -3.643265 0
M  V30 28 N -0.769720 -1.082238 -2.417515 0
M  V30 29 C 2.439454 -1.375327 -1.257204 0
M  V30 30 C 2.591016 -1.239170 0.223970 0
M  V30 31 C 2.339270 -0.069530 4.320937 0
M  V30 32 H 3.227956 -0.030065 6.517624 0
M  V30 33 H 3.905311 1.448717 4.166430 0
M  V30 34 H 5.632586 -0.230445 4.140545 0
M  V30 35 H 4.581768 -1.330952 5.128253 0
M  V30 36 H 3.922622 -2.205652 3.196744 0
M  V30 37 H 1.941710 -1.466393 2.691899 0
M  V30 38 H 1.594921 0.820185 1.808066 0
M  V30 39 H 3.290689 1.308576 2.251948 0
M  V30 40 H 3.020740 2.041205 0.297546 0
M  V30 41 H 4.065308 1.194563 -0.842188 0
M  V30 42 H 1.041606 1.566019 -0.833106 0
M  V30 43 H 2.272545 1.713161 -2.105727 0
M  V30 44 H 1.682174 -0.302458 -2.921241 0
M  V30 45 H -0.273976 0.011233 0.537522 0
M  V30 46 H -2.016019 -2.052537 1.743739 0
M  V30 47 H -3.933869 -2.084274 3.359377 0
M  V30 48 H -6.193611 0.419328 0.816015 0
M  V30 49 H -4.265906 0.455614 -0.823153 0
M  V30 50 H -3.208478 -3.385792 -1.075128 0
M  V30 51 H -5.175701 -4.448149 -1.980335 0
M  V30 52 H -5.415142 -1.418377 -4.963767 0
M  V30 53 H -3.378983 -0.310151 -4.035538 0
M  V30 54 H -0.577774 -1.353768 -3.410267 0
M  V30 55 H 3.430074 -1.339845 -1.784330 0
M  V30 56 H 1.924320 -2.348660 -1.445848 0
M  V30 57 H 1.607850 -1.411325 0.689541 0
M  V30 58 H 3.219148 -2.105090 0.553975 0
M  V30 59 H 1.521076 0.671656 4.276626 0
M  V30 60 H 2.131332 -0.894349 5.029841 0
M  V30 END ATOM
M  V30 BEGIN BOND
M  V30 1 1 1 2
M  V30 2 1 2 3
M  V30 3 1 3 4
M  V30 4 1 4 5
M  V30 5 1 5 6
M  V30 6 1 6 7
M  V30 7 1 7 8
M  V30 8 1 8 9
M  V30 9 1 9 10
M  V30 10 1 10 11
M  V30 11 2 11 12
M  V30 12 1 12 13
M  V30 13 1 13 14
M  V30 14 2 14 15
M  V30 15 1 15 16
M  V30 16 2 16 17
M  V30 17 1 17 18
M  V30 18 2 18 19
M  V30 19 2 13 20
M  V30 20 1 20 21
M  V30 21 2 21 22
M  V30 22 1 22 23
M  V30 23 2 23 24
M  V30 24 1 24 25
M  V30 25 1 24 26
M  V30 26 2 26 27
M  V30 27 1 20 28
M  V30 28 1 10 29
M  V30 29 1 29 30
M  V30 30 1 5 31
M  V30 31 1 31 2
M  V30 32 1 30 7
M  V30 33 1 28 11
M  V30 34 1 19 14
M  V30 35 1 27 21
M  V30 36 1 1 32
M  V30 37 1 2 33 CFG=3
M  V30 38 1 3 34
M  V30 39 1 3 35
M  V30 40 1 4 36
M  V30 41 1 5 37 CFG=3
M  V30 42 1 6 38
M  V30 43 1 6 39
M  V30 44 1 8 40
M  V30 45 1 8 41
M  V30 46 1 9 42
M  V30 47 1 9 43
M  V30 48 1 10 44
M  V30 49 1 12 45
M  V30 50 1 15 46
M  V30 51 1 16 47
M  V30 52 1 18 48
M  V30 53 1 19 49
M  V30 54 1 22 50
M  V30 55 1 23 51
M  V30 56 1 26 52
M  V30 57 1 27 53
M  V30 58 1 28 54
M  V30 59 1 29 55
M  V30 60 1 29 56
M  V30 61 1 30 57
M  V30 62 1 30 58
M  V30 63 1 31 59
M  V30 64 1 31 60
M  V30 END BOND
M  V30 END CTAB
M  END
>  <Dataset>  (619) 
ChEMBL_Kinases

>  <Ligand_Instance>  (619) 
nan

>  <PDB_ID>  (619) 
nan

>  <Standardized_SMILES>  (619) 
O[C@H]1CN[C@H](CN2CCC(c3cc(-c4ccncc4)c(-c4ccc(F)cc4)[nH]3)CC2)C1

>  <Name>  (619) 
nan

>  <Pocket>  (619) 
nan

>  <ATP_Site>  (619) 
nan

>  <Peripheral>  (619) 
nan

>  <Num_H_Atoms_ProtBoundConf>  (619) 
nan

>  <Num_Resolved_Atoms>  (619) 
nan

>  <Num_Not_Resolved_Atoms>  (619) 
nan

$$$$
CHEMBL255031
     RDKit          3D

  0  0  0  0  0  0  0  0  0  0999 V3000
M  V30 BEGIN CTAB
M  V30 COUNTS 27 29 0 0 0
M  V30 BEGIN ATOM
M  V30 1 O 1.277713 -3.233649 3.188828 0
M  V30 2 C 0.723344 -2.100190 3.201394 0
M  V30 3 N 0.279835 -1.524059 4.434767 0
M  V30 4 C -0.888372 -0.648738 4.370014 0
M  V30 5 C -0.568726 0.490792 3.419629 0
M  V30 6 C -0.130896 -0.053825 2.111847 0
M  V30 7 N -0.211440 0.442582 0.885981 0
M  V30 8 C 0.329484 -0.421582 -0.021277 0
M  V30 9 C 0.432794 -0.238005 -1.484799 0
M  V30 10 C 1.013604 -1.217977 -2.266398 0
M  V30 11 C 1.110548 -1.043549 -3.647674 0
M  V30 12 C 0.595129 0.147083 -4.141967 0
M  V30 13 N 0.033713 1.087440 -3.360925 0
M  V30 14 C -0.071705 0.938308 -2.008960 0
M  V30 15 C 0.784727 -1.542905 0.673453 0
M  V30 16 C 0.483555 -1.282338 1.994955 0
M  V30 17 H 0.810856 -1.755077 5.325425 0
M  V30 18 H -1.747556 -1.205970 3.964033 0
M  V30 19 H -1.100219 -0.222230 5.379589 0
M  V30 20 H -1.379959 1.212089 3.341816 0
M  V30 21 H 0.337371 1.026337 3.829125 0
M  V30 22 H -0.633757 1.373559 0.645630 0
M  V30 23 H 1.385609 -2.115157 -1.769695 0
M  V30 24 H 1.563028 -1.817082 -4.219302 0
M  V30 25 H 0.680625 0.261590 -5.214602 0
M  V30 26 H -0.529876 1.719050 -1.420812 0
M  V30 27 H 1.266233 -2.420862 0.268159 0
M  V30 END ATOM
M  V30 BEGIN BOND
M  V30 1 2 1 2
M  V30 2 1 2 3
M  V30 3 1 3 4
M  V30 4 1 4 5
M  V30 5 1 5 6
M  V30 6 1 6 7
M  V30 7 1 7 8
M  V30 8 1 8 9
M  V30 9 2 9 10
M  V30 10 1 10 11
M  V30 11 2 11 12
M  V30 12 1 12 13
M  V30 13 2 13 14
M  V30 14 2 8 15
M  V30 15 1 15 16
M  V30 16 1 16 2
M  V30 17 2 16 6
M  V30 18 1 14 9
M  V30 19 1 3 17
M  V30 20 1 4 18
M  V30 21 1 4 19
M  V30 22 1 5 20
M  V30 23 1 5 21
M  V30 24 1 7 22
M  V30 25 1 10 23
M  V30 26 1 11 24
M  V30 27 1 12 25
M  V30 28 1 14 26
M  V30 29 1 15 27
M  V30 END BOND
M  V30 END CTAB
M  END
>  <Dataset>  (620) 
ChEMBL_Kinases

>  <Ligand_Instance>  (620) 
nan

>  <PDB_ID>  (620) 
nan

>  <Standardized_SMILES>  (620) 
O=C1NCCc2[nH]c(-c3cccnc3)cc21

>  <Name>  (620) 
nan

>  <Pocket>  (620) 
nan

>  <ATP_Site>  (620) 
nan

>  <Peripheral>  (620) 
nan

>  <Num_H_Atoms_ProtBoundConf>  (620) 
nan

>  <Num_Resolved_Atoms>  (620) 
nan

>  <Num_Not_Resolved_Atoms>  (620) 
nan

$$$$
CHEMBL254760
     RDKit          3D

  0  0  0  0  0  0  0  0  0  0999 V3000
M  V30 BEGIN CTAB
M  V30 COUNTS 56 60 0 0 0
M  V30 BEGIN ATOM
M  V30 1 C 2.583113 -1.126078 7.307857 0
M  V30 2 N 3.368669 -0.352679 6.360450 0
M  V30 3 C 4.721990 -0.252260 6.307191 0
M  V30 4 N 5.005481 0.568420 5.271180 0
M  V30 5 C 3.874009 0.957197 4.709795 0
M  V30 6 C 3.752003 1.861930 3.543368 0
M  V30 7 C 4.660566 2.487777 2.793107 0
M  V30 8 C 4.264309 3.271741 1.766514 0
M  V30 9 N 5.001008 3.985780 0.894606 0
M  V30 10 C 4.456925 4.707667 -0.059604 0
M  V30 11 C 3.111039 4.851981 -0.320418 0
M  V30 12 C 2.298917 4.144580 0.538674 0
M  V30 13 O 0.912213 4.133961 0.474492 0
M  V30 14 C 0.143264 2.998184 0.273867 0
M  V30 15 C -0.778118 2.611908 1.221700 0
M  V30 16 C -1.542324 1.486802 1.025218 0
M  V30 17 C -1.444090 0.684500 -0.105662 0
M  V30 18 N -2.261663 -0.452875 -0.237234 0
M  V30 19 C -2.332286 -1.378624 -1.292726 0
M  V30 20 S -1.514247 -1.451430 -2.699958 0
M  V30 21 N -3.253185 -2.471336 -1.202537 0
M  V30 22 C -3.436865 -3.466998 -2.173611 0
M  V30 23 O -2.754501 -3.415196 -3.204442 0
M  V30 24 C -4.428216 -4.575399 -1.989906 0
M  V30 25 C -4.390167 -5.465142 -3.177651 0
M  V30 26 C -3.496541 -6.528960 -3.139908 0
M  V30 27 C -3.351924 -7.433580 -4.167428 0
M  V30 28 C -4.125536 -7.306365 -5.320244 0
M  V30 29 C -5.001119 -6.243957 -5.328787 0
M  V30 30 C -5.157720 -5.341362 -4.324820 0
M  V30 31 C -0.506244 1.127545 -1.009354 0
M  V30 32 C 0.287645 2.242774 -0.870522 0
M  V30 33 F 1.191042 2.614762 -1.808232 0
M  V30 34 C 2.908428 3.376310 1.555981 0
M  V30 35 S 2.220106 2.333962 2.852089 0
M  V30 36 C 2.800863 0.395274 5.370119 0
M  V30 37 H 2.221835 -2.057686 6.809453 0
M  V30 38 H 3.169520 -1.362177 8.213792 0
M  V30 39 H 1.662145 -0.548249 7.541422 0
M  V30 40 H 5.370911 -0.766326 7.001585 0
M  V30 41 H 5.706632 2.315306 3.073856 0
M  V30 42 H 5.135297 5.256135 -0.723094 0
M  V30 43 H 2.644356 5.436160 -1.094411 0
M  V30 44 H -0.887114 3.210827 2.120784 0
M  V30 45 H -2.245919 1.241452 1.810309 0
M  V30 46 H -2.912383 -0.635448 0.569437 0
M  V30 47 H -3.871279 -2.576459 -0.341968 0
M  V30 48 H -5.456973 -4.194655 -1.813954 0
M  V30 49 H -4.145740 -5.156969 -1.090839 0
M  V30 50 H -2.857723 -6.694450 -2.272544 0
M  V30 51 H -2.649613 -8.259754 -4.124559 0
M  V30 52 H -3.995521 -8.023083 -6.108306 0
M  V30 53 H -5.607528 -6.138361 -6.224323 0
M  V30 54 H -5.838800 -4.517043 -4.334277 0
M  V30 55 H -0.347300 0.591110 -1.908616 0
M  V30 56 H 1.741858 0.492991 5.185935 0
M  V30 END ATOM
M  V30 BEGIN BOND
M  V30 1 1 1 2
M  V30 2 1 2 3
M  V30 3 2 3 4
M  V30 4 1 4 5
M  V30 5 1 5 6
M  V30 6 2 6 7
M  V30 7 1 7 8
M  V30 8 2 8 9
M  V30 9 1 9 10
M  V30 10 2 10 11
M  V30 11 1 11 12
M  V30 12 1 12 13
M  V30 13 1 13 14
M  V30 14 2 14 15
M  V30 15 1 15 16
M  V30 16 2 16 17
M  V30 17 1 17 18
M  V30 18 1 18 19
M  V30 19 2 19 20
M  V30 20 1 19 21
M  V30 21 1 21 22
M  V30 22 2 22 23
M  V30 23 1 22 24
M  V30 24 1 24 25
M  V30 25 2 25 26
M  V30 26 1 26 27
M  V30 27 2 27 28
M  V30 28 1 28 29
M  V30 29 2 29 30
M  V30 30 1 17 31
M  V30 31 2 31 32
M  V30 32 1 32 33
M  V30 33 2 12 34
M  V30 34 1 34 35
M  V30 35 2 5 36
M  V30 36 1 36 2
M  V30 37 1 35 6
M  V30 38 1 34 8
M  V30 39 1 32 14
M  V30 40 1 30 25
M  V30 41 1 1 37
M  V30 42 1 1 38
M  V30 43 1 1 39
M  V30 44 1 3 40
M  V30 45 1 7 41
M  V30 46 1 10 42
M  V30 47 1 11 43
M  V30 48 1 15 44
M  V30 49 1 16 45
M  V30 50 1 18 46
M  V30 51 1 21 47
M  V30 52 1 24 48
M  V30 53 1 24 49
M  V30 54 1 26 50
M  V30 55 1 27 51
M  V30 56 1 28 52
M  V30 57 1 29 53
M  V30 58 1 30 54
M  V30 59 1 31 55
M  V30 60 1 36 56
M  V30 END BOND
M  V30 END CTAB
M  END
>  <Dataset>  (621) 
ChEMBL_Kinases

>  <Ligand_Instance>  (621) 
nan

>  <PDB_ID>  (621) 
nan

>  <Standardized_SMILES>  (621) 
Cn1cnc(-c2cc3nccc(Oc4ccc(NC(=S)NC(=O)Cc5ccccc5)cc4F)c3s2)c1

>  <Name>  (621) 
nan

>  <Pocket>  (621) 
nan

>  <ATP_Site>  (621) 
nan

>  <Peripheral>  (621) 
nan

>  <Num_H_Atoms_ProtBoundConf>  (621) 
nan

>  <Num_Resolved_Atoms>  (621) 
nan

>  <Num_Not_Resolved_Atoms>  (621) 
nan

$$$$
CHEMBL254597
     RDKit          3D

  0  0  0  0  0  0  0  0  0  0999 V3000
M  V30 BEGIN CTAB
M  V30 COUNTS 29 31 0 0 0
M  V30 BEGIN ATOM
M  V30 1 N -1.675881 -4.340941 3.572317 0
M  V30 2 C -0.984107 -3.081802 3.653570 0
M  V30 3 C -0.612248 -2.390280 2.507849 0
M  V30 4 C 0.051323 -1.181907 2.542395 0
M  V30 5 C 0.407474 -0.517696 1.289991 0
M  V30 6 C 1.058736 0.670798 1.119710 0
M  V30 7 C 1.173629 0.896782 -0.234210 0
M  V30 8 C 0.585909 -0.165500 -0.912922 0
M  V30 9 N 0.131968 -1.004380 0.056249 0
M  V30 10 C 0.506678 -0.291673 -2.386528 0
M  V30 11 C 0.582975 1.084822 -2.986635 0
M  V30 12 N 1.686975 1.859365 -2.458259 0
M  V30 13 C 1.764027 1.982190 -1.035033 0
M  V30 14 O 2.313776 2.976756 -0.472705 0
M  V30 15 C 0.368742 -0.618550 3.749120 0
M  V30 16 C -0.008390 -1.319447 4.875873 0
M  V30 17 N -0.660155 -2.506296 4.839968 0
M  V30 18 H -1.086245 -5.216106 3.475668 0
M  V30 19 H -2.707288 -4.188941 3.623959 0
M  V30 20 H -0.882799 -2.871801 1.589571 0
M  V30 21 H 1.428132 1.334526 1.866685 0
M  V30 22 H -0.367421 -1.911704 -0.137795 0
M  V30 23 H 1.327599 -0.950664 -2.692084 0
M  V30 24 H -0.475428 -0.708830 -2.691441 0
M  V30 25 H -0.358609 1.621347 -2.687828 0
M  V30 26 H 0.615705 1.054614 -4.096129 0
M  V30 27 H 2.441020 2.342594 -3.020570 0
M  V30 28 H 0.887219 0.325103 3.817568 0
M  V30 29 H 0.209578 -0.934778 5.880340 0
M  V30 END ATOM
M  V30 BEGIN BOND
M  V30 1 1 1 2
M  V30 2 2 2 3
M  V30 3 1 3 4
M  V30 4 1 4 5
M  V30 5 2 5 6
M  V30 6 1 6 7
M  V30 7 2 7 8
M  V30 8 1 8 9
M  V30 9 1 8 10
M  V30 10 1 10 11
M  V30 11 1 11 12
M  V30 12 1 12 13
M  V30 13 2 13 14
M  V30 14 2 4 15
M  V30 15 1 15 16
M  V30 16 2 16 17
M  V30 17 1 17 2
M  V30 18 1 9 5
M  V30 19 1 13 7
M  V30 20 1 1 18
M  V30 21 1 1 19
M  V30 22 1 3 20
M  V30 23 1 6 21
M  V30 24 1 9 22
M  V30 25 1 10 23
M  V30 26 1 10 24
M  V30 27 1 11 25
M  V30 28 1 11 26
M  V30 29 1 12 27
M  V30 30 1 15 28
M  V30 31 1 16 29
M  V30 END BOND
M  V30 END CTAB
M  END
>  <Dataset>  (622) 
ChEMBL_Kinases

>  <Ligand_Instance>  (622) 
nan

>  <PDB_ID>  (622) 
nan

>  <Standardized_SMILES>  (622) 
Nc1cc(-c2cc3c([nH]2)CCNC3=O)ccn1

>  <Name>  (622) 
nan

>  <Pocket>  (622) 
nan

>  <ATP_Site>  (622) 
nan

>  <Peripheral>  (622) 
nan

>  <Num_H_Atoms_ProtBoundConf>  (622) 
nan

>  <Num_Resolved_Atoms>  (622) 
nan

>  <Num_Not_Resolved_Atoms>  (622) 
nan

$$$$
CHEMBL254556
     RDKit          3D

  0  0  0  0  0  0  0  0  0  0999 V3000
M  V30 BEGIN CTAB
M  V30 COUNTS 50 54 0 0 0
M  V30 BEGIN ATOM
M  V30 1 O -1.208004 -2.722897 -2.325520 0
M  V30 2 C -1.195835 -3.846647 -1.754925 0
M  V30 3 N -0.312758 -4.046218 -0.663808 0
M  V30 4 C 0.433481 -2.856466 -0.415753 0
M  V30 5 C 0.032678 -1.848379 0.438839 0
M  V30 6 C 0.857018 -0.749867 0.582950 0
M  V30 7 C 2.061062 -0.569046 -0.060191 0
M  V30 8 C 2.899340 0.605646 0.119468 0
M  V30 9 C 4.085330 0.772238 -0.520324 0
M  V30 10 C 4.883975 1.880524 -0.355419 0
M  V30 11 N 4.452024 2.832161 0.483055 0
M  V30 12 C 3.292731 2.724777 1.141554 0
M  V30 13 N 2.937500 3.790132 2.002008 0
M  V30 14 C 1.820467 4.027467 2.833688 0
M  V30 15 C 1.599267 5.113910 3.649832 0
M  V30 16 C 0.495803 5.262408 4.415683 0
M  V30 17 C -0.518676 4.330297 4.449592 0
M  V30 18 N -1.657859 4.266353 5.103760 0
M  V30 19 C -2.490342 3.513078 5.138645 0
M  V30 20 S -1.794035 2.215311 3.900306 0
M  V30 21 C -0.278317 3.274789 3.641171 0
M  V30 22 C 0.845472 3.061046 2.822063 0
M  V30 23 N 2.575003 1.620810 0.928785 0
M  V30 24 C 2.434469 -1.588766 -0.904622 0
M  V30 25 C 1.643295 -2.726598 -1.093005 0
M  V30 26 C -2.132916 -4.879804 -2.295849 0
M  V30 27 C -3.535672 -4.377436 -2.110866 0
M  V30 28 C -3.916927 -4.920762 -0.758062 0
M  V30 29 C -3.191605 -6.255650 -0.729653 0
M  V30 30 N -2.073383 -6.132477 -1.613544 0
M  V30 31 H -0.310932 -4.973905 -0.200999 0
M  V30 32 H -0.907883 -1.960110 0.959095 0
M  V30 33 H 0.486426 0.001003 1.264656 0
M  V30 34 H 4.484737 0.042426 -1.205715 0
M  V30 35 H 5.828039 2.005527 -0.869398 0
M  V30 36 H 3.603260 4.611651 2.085721 0
M  V30 37 H 2.400987 5.874542 3.637979 0
M  V30 38 H 0.471409 6.181856 5.007419 0
M  V30 39 H -3.435344 3.541657 5.732576 0
M  V30 40 H 0.764268 2.135728 2.290802 0
M  V30 41 H 3.345269 -1.592314 -1.475144 0
M  V30 42 H 1.963901 -3.528089 -1.773288 0
M  V30 43 H -1.858883 -4.988865 -3.368253 0
M  V30 44 H -4.155473 -4.800938 -2.927496 0
M  V30 45 H -3.498976 -3.268683 -2.158981 0
M  V30 46 H -5.020983 -5.045351 -0.710407 0
M  V30 47 H -3.521890 -4.247449 0.011395 0
M  V30 48 H -2.828446 -6.501765 0.289600 0
M  V30 49 H -3.897206 -7.007080 -1.139598 0
M  V30 50 H -2.053344 -6.891213 -2.330555 0
M  V30 END ATOM
M  V30 BEGIN BOND
M  V30 1 2 1 2
M  V30 2 1 2 3
M  V30 3 1 3 4
M  V30 4 2 4 5
M  V30 5 1 5 6
M  V30 6 2 6 7
M  V30 7 1 7 8
M  V30 8 2 8 9
M  V30 9 1 9 10
M  V30 10 2 10 11
M  V30 11 1 11 12
M  V30 12 1 12 13
M  V30 13 1 13 14
M  V30 14 2 14 15
M  V30 15 1 15 16
M  V30 16 2 16 17
M  V30 17 1 17 18
M  V30 18 2 18 19
M  V30 19 1 19 20
M  V30 20 1 20 21
M  V30 21 2 21 22
M  V30 22 2 12 23
M  V30 23 1 7 24
M  V30 24 2 24 25
M  V30 25 1 2 26
M  V30 26 1 26 27
M  V30 27 1 27 28
M  V30 28 1 28 29
M  V30 29 1 29 30
M  V30 30 1 25 4
M  V30 31 1 30 26
M  V30 32 1 23 8
M  V30 33 1 22 14
M  V30 34 1 21 17
M  V30 35 1 3 31
M  V30 36 1 5 32
M  V30 37 1 6 33
M  V30 38 1 9 34
M  V30 39 1 10 35
M  V30 40 1 13 36
M  V30 41 1 15 37
M  V30 42 1 16 38
M  V30 43 1 19 39
M  V30 44 1 22 40
M  V30 45 1 24 41
M  V30 46 1 25 42
M  V30 47 1 26 43
M  V30 48 1 27 44
M  V30 49 1 27 45
M  V30 50 1 28 46
M  V30 51 1 28 47
M  V30 52 1 29 48
M  V30 53 1 29 49
M  V30 54 1 30 50
M  V30 END BOND
M  V30 END CTAB
M  END
>  <Dataset>  (623) 
ChEMBL_Kinases

>  <Ligand_Instance>  (623) 
nan

>  <PDB_ID>  (623) 
nan

>  <Standardized_SMILES>  (623) 
O=C(Nc1ccc(-c2ccnc(Nc3ccc4ncsc4c3)n2)cc1)C1CCCN1

>  <Name>  (623) 
nan

>  <Pocket>  (623) 
nan

>  <ATP_Site>  (623) 
nan

>  <Peripheral>  (623) 
nan

>  <Num_H_Atoms_ProtBoundConf>  (623) 
nan

>  <Num_Resolved_Atoms>  (623) 
nan

>  <Num_Not_Resolved_Atoms>  (623) 
nan

$$$$
CHEMBL254390
     RDKit          3D

  0  0  0  0  0  0  0  0  0  0999 V3000
M  V30 BEGIN CTAB
M  V30 COUNTS 29 32 0 0 0
M  V30 BEGIN ATOM
M  V30 1 O -2.533417 -4.025004 1.365285 0
M  V30 2 C -1.514174 -3.547141 1.939540 0
M  V30 3 N -0.946892 -4.077764 3.131687 0
M  V30 4 C -0.265429 -3.173880 4.064202 0
M  V30 5 C 0.813288 -2.473092 3.267352 0
M  V30 6 C 0.223436 -1.914582 2.022228 0
M  V30 7 N 0.682310 -0.835298 1.334976 0
M  V30 8 C -0.082016 -0.601801 0.256770 0
M  V30 9 C 0.034747 0.439890 -0.757610 0
M  V30 10 N -0.824846 0.546702 -1.799713 0
M  V30 11 C -0.694319 1.528080 -2.733293 0
M  V30 12 N 0.299448 2.456366 -2.679625 0
M  V30 13 C 1.164873 2.361628 -1.644449 0
M  V30 14 N 2.216719 3.140341 -1.364540 0
M  V30 15 C 2.796081 2.673809 -0.230344 0
M  V30 16 N 2.061182 1.605039 0.148352 0
M  V30 17 C 1.043106 1.381058 -0.702336 0
M  V30 18 C -1.087378 -1.565688 0.229554 0
M  V30 19 C -0.876385 -2.361774 1.327906 0
M  V30 20 H -1.063650 -5.126595 3.261858 0
M  V30 21 H -1.010347 -2.382828 4.323067 0
M  V30 22 H 0.120810 -3.701158 4.934704 0
M  V30 23 H 1.576397 -3.234784 3.011758 0
M  V30 24 H 1.207808 -1.668208 3.911750 0
M  V30 25 H 1.497273 -0.232062 1.551979 0
M  V30 26 H -1.474092 1.439336 -3.475469 0
M  V30 27 H 2.593873 3.977354 -1.874664 0
M  V30 28 H 3.671093 3.070585 0.277246 0
M  V30 29 H -1.906603 -1.750927 -0.449478 0
M  V30 END ATOM
M  V30 BEGIN BOND
M  V30 1 2 1 2
M  V30 2 1 2 3
M  V30 3 1 3 4
M  V30 4 1 4 5
M  V30 5 1 5 6
M  V30 6 1 6 7
M  V30 7 1 7 8
M  V30 8 1 8 9
M  V30 9 2 9 10
M  V30 10 1 10 11
M  V30 11 2 11 12
M  V30 12 1 12 13
M  V30 13 1 13 14
M  V30 14 1 14 15
M  V30 15 2 15 16
M  V30 16 1 16 17
M  V30 17 2 8 18
M  V30 18 1 18 19
M  V30 19 1 19 2
M  V30 20 2 19 6
M  V30 21 1 17 9
M  V30 22 2 17 13
M  V30 23 1 3 20
M  V30 24 1 4 21
M  V30 25 1 4 22
M  V30 26 1 5 23
M  V30 27 1 5 24
M  V30 28 1 7 25
M  V30 29 1 11 26
M  V30 30 1 14 27
M  V30 31 1 15 28
M  V30 32 1 18 29
M  V30 END BOND
M  V30 END CTAB
M  END
>  <Dataset>  (624) 
ChEMBL_Kinases

>  <Ligand_Instance>  (624) 
nan

>  <PDB_ID>  (624) 
nan

>  <Standardized_SMILES>  (624) 
O=C1NCCc2[nH]c(-c3ncnc4[nH]cnc34)cc21

>  <Name>  (624) 
nan

>  <Pocket>  (624) 
nan

>  <ATP_Site>  (624) 
nan

>  <Peripheral>  (624) 
nan

>  <Num_H_Atoms_ProtBoundConf>  (624) 
nan

>  <Num_Resolved_Atoms>  (624) 
nan

>  <Num_Not_Resolved_Atoms>  (624) 
nan

$$$$
CHEMBL254365
     RDKit          3D

  0  0  0  0  0  0  0  0  0  0999 V3000
M  V30 BEGIN CTAB
M  V30 COUNTS 53 56 0 0 0
M  V30 BEGIN ATOM
M  V30 1 C 3.412113 -5.284437 4.293157 0
M  V30 2 C 2.780014 -5.617482 2.946014 0
M  V30 3 N 2.586052 -4.372737 2.226220 0
M  V30 4 C 3.720076 -3.568756 1.928455 0
M  V30 5 O 4.839128 -3.990294 2.312059 0
M  V30 6 C 3.658922 -2.299062 1.212350 0
M  V30 7 C 4.858283 -1.648868 1.009285 0
M  V30 8 C 4.780614 -0.433144 0.321047 0
M  V30 9 C 3.623264 0.143912 -0.154637 0
M  V30 10 C 3.608147 1.421364 -0.868990 0
M  V30 11 C 2.438013 -0.555647 0.077831 0
M  V30 12 N 1.173656 -0.044592 -0.375296 0
M  V30 13 C 0.143187 0.818154 0.183409 0
M  V30 14 C -1.130864 0.103158 -0.211392 0
M  V30 15 N -2.289144 0.886504 -0.134642 0
M  V30 16 C -2.661504 1.551595 -1.138259 0
M  V30 17 N -3.807101 2.401063 -1.245282 0
M  V30 18 C -4.954439 2.055465 -0.436276 0
M  V30 19 C -5.502084 0.700798 -0.735086 0
M  V30 20 C -5.753874 -0.013393 0.551619 0
M  V30 21 C -4.981582 0.745723 1.586261 0
M  V30 22 C -4.664472 2.108673 1.043224 0
M  V30 23 S -1.456655 1.218066 -2.457153 0
M  V30 24 C -0.806648 -0.296310 -1.630157 0
M  V30 25 C 0.652740 -0.371031 -1.678713 0
M  V30 26 O 1.276254 -0.683378 -2.748337 0
M  V30 27 C 2.475248 -1.769381 0.759582 0
M  V30 28 H 4.454853 -5.710970 4.297789 0
M  V30 29 H 2.832281 -5.674966 5.143067 0
M  V30 30 H 3.554567 -4.196405 4.444481 0
M  V30 31 H 1.756709 -6.028105 3.171165 0
M  V30 32 H 3.357428 -6.358715 2.373459 0
M  V30 33 H 1.646713 -4.046416 1.919591 0
M  V30 34 H 5.823268 -2.010376 1.339199 0
M  V30 35 H 5.696600 0.105212 0.142656 0
M  V30 36 H 3.274152 2.216565 -0.156967 0
M  V30 37 H 4.635997 1.635105 -1.229396 0
M  V30 38 H 2.850342 1.417324 -1.687105 0
M  V30 39 H 0.250942 0.950723 1.279378 0
M  V30 40 H 0.211744 1.809674 -0.292560 0
M  V30 41 H -1.257690 -0.778298 0.452339 0
M  V30 42 H -3.748746 3.230725 -1.908317 0
M  V30 43 H -5.743241 2.809026 -0.644633 0
M  V30 44 H -6.487510 0.747311 -1.273822 0
M  V30 45 H -4.840597 0.121941 -1.443647 0
M  V30 46 H -5.403744 -1.083424 0.479547 0
M  V30 47 H -6.840036 -0.119020 0.811255 0
M  V30 48 H -4.084063 0.167104 1.890402 0
M  V30 49 H -5.634704 0.781683 2.505542 0
M  V30 50 H -3.617967 2.432670 1.274118 0
M  V30 51 H -5.312619 2.821264 1.596570 0
M  V30 52 H -1.347036 -1.185936 -1.969348 0
M  V30 53 H 1.541080 -2.273642 0.916546 0
M  V30 END ATOM
M  V30 BEGIN BOND
M  V30 1 1 1 2
M  V30 2 1 2 3
M  V30 3 1 3 4
M  V30 4 2 4 5
M  V30 5 1 4 6
M  V30 6 2 6 7
M  V30 7 1 7 8
M  V30 8 2 8 9
M  V30 9 1 9 10
M  V30 10 1 9 11
M  V30 11 1 11 12
M  V30 12 1 12 13
M  V30 13 1 13 14
M  V30 14 1 14 15
M  V30 15 2 15 16
M  V30 16 1 16 17
M  V30 17 1 17 18
M  V30 18 1 18 19
M  V30 19 1 19 20
M  V30 20 1 20 21
M  V30 21 1 21 22
M  V30 22 1 16 23
M  V30 23 1 23 24
M  V30 24 1 24 25
M  V30 25 2 25 26
M  V30 26 2 11 27
M  V30 27 1 27 6
M  V30 28 1 25 12
M  V30 29 1 24 14
M  V30 30 1 22 18
M  V30 31 1 1 28
M  V30 32 1 1 29
M  V30 33 1 1 30
M  V30 34 1 2 31
M  V30 35 1 2 32
M  V30 36 1 3 33
M  V30 37 1 7 34
M  V30 38 1 8 35
M  V30 39 1 10 36
M  V30 40 1 10 37
M  V30 41 1 10 38
M  V30 42 1 13 39
M  V30 43 1 13 40
M  V30 44 1 14 41
M  V30 45 1 17 42
M  V30 46 1 18 43
M  V30 47 1 19 44
M  V30 48 1 19 45
M  V30 49 1 20 46
M  V30 50 1 20 47
M  V30 51 1 21 48
M  V30 52 1 21 49
M  V30 53 1 22 50
M  V30 54 1 22 51
M  V30 55 1 24 52
M  V30 56 1 27 53
M  V30 END BOND
M  V30 END CTAB
M  END
>  <Dataset>  (625) 
ChEMBL_Kinases

>  <Ligand_Instance>  (625) 
nan

>  <PDB_ID>  (625) 
nan

>  <Standardized_SMILES>  (625) 
CCNC(=O)c1ccc(C)c(N2CC3N=C(NC4CCCC4)SC3C2=O)c1

>  <Name>  (625) 
nan

>  <Pocket>  (625) 
nan

>  <ATP_Site>  (625) 
nan

>  <Peripheral>  (625) 
nan

>  <Num_H_Atoms_ProtBoundConf>  (625) 
nan

>  <Num_Resolved_Atoms>  (625) 
nan

>  <Num_Not_Resolved_Atoms>  (625) 
nan

$$$$
CHEMBL254169
     RDKit          3D

  0  0  0  0  0  0  0  0  0  0999 V3000
M  V30 BEGIN CTAB
M  V30 COUNTS 47 49 0 0 0
M  V30 BEGIN ATOM
M  V30 1 C 1.666556 -6.202152 -0.969798 0
M  V30 2 C 2.528625 -5.284752 -1.788129 0
M  V30 3 N 2.324638 -3.900919 -1.451710 0
M  V30 4 C 3.023560 -2.838270 -2.085715 0
M  V30 5 O 3.846673 -3.180795 -2.975168 0
M  V30 6 C 2.854755 -1.422742 -1.782668 0
M  V30 7 C 3.646900 -0.553955 -2.520611 0
M  V30 8 C 3.516711 0.814057 -2.259468 0
M  V30 9 C 2.645730 1.312703 -1.313508 0
M  V30 10 C 2.488812 2.737596 -1.015937 0
M  V30 11 C 1.878449 0.410854 -0.604709 0
M  V30 12 N 0.929780 0.741840 0.404126 0
M  V30 13 C -0.483827 1.011597 0.234109 0
M  V30 14 C -0.962700 1.272976 1.618767 0
M  V30 15 N -2.134306 1.569511 2.151904 0
M  V30 16 C -2.398252 1.759961 3.265505 0
M  V30 17 N -3.701157 2.084081 3.835980 0
M  V30 18 C -4.337929 0.814434 4.209218 0
M  V30 19 C -3.477375 0.095055 5.242528 0
M  V30 20 C -5.700765 1.003716 4.782817 0
M  V30 21 S -0.695219 1.529582 4.100953 0
M  V30 22 C 0.108722 1.178352 2.551268 0
M  V30 23 C 1.352033 0.830113 1.753608 0
M  V30 24 O 2.404389 0.702430 2.389778 0
M  V30 25 C 1.970248 -0.969356 -0.827241 0
M  V30 26 H 2.274827 -6.632062 -0.147140 0
M  V30 27 H 1.245386 -7.035342 -1.546889 0
M  V30 28 H 0.841626 -5.640910 -0.467126 0
M  V30 29 H 3.590153 -5.538368 -1.663004 0
M  V30 30 H 2.283810 -5.461364 -2.865857 0
M  V30 31 H 1.643062 -3.672162 -0.720560 0
M  V30 32 H 4.351650 -0.865639 -3.277173 0
M  V30 33 H 4.130168 1.502413 -2.829328 0
M  V30 34 H 3.174919 3.064119 -0.184189 0
M  V30 35 H 1.463662 3.077720 -0.861676 0
M  V30 36 H 2.859208 3.312579 -1.914880 0
M  V30 37 H -0.577167 1.929357 -0.361026 0
M  V30 38 H -1.018083 0.146596 -0.224985 0
M  V30 39 H -3.977428 3.096591 3.894102 0
M  V30 40 H -4.398300 0.128393 3.336095 0
M  V30 41 H -2.814251 0.833034 5.762124 0
M  V30 42 H -2.791431 -0.628633 4.743406 0
M  V30 43 H -4.128712 -0.384177 5.981320 0
M  V30 44 H -5.673806 1.015148 5.906526 0
M  V30 45 H -6.245630 1.879113 4.382198 0
M  V30 46 H -6.318002 0.117370 4.518321 0
M  V30 47 H 1.379377 -1.703965 -0.284564 0
M  V30 END ATOM
M  V30 BEGIN BOND
M  V30 1 1 1 2
M  V30 2 1 2 3
M  V30 3 1 3 4
M  V30 4 2 4 5
M  V30 5 1 4 6
M  V30 6 2 6 7
M  V30 7 1 7 8
M  V30 8 2 8 9
M  V30 9 1 9 10
M  V30 10 1 9 11
M  V30 11 1 11 12
M  V30 12 1 12 13
M  V30 13 1 13 14
M  V30 14 1 14 15
M  V30 15 2 15 16
M  V30 16 1 16 17
M  V30 17 1 17 18
M  V30 18 1 18 19
M  V30 19 1 18 20
M  V30 20 1 16 21
M  V30 21 1 21 22
M  V30 22 1 22 23
M  V30 23 2 23 24
M  V30 24 2 11 25
M  V30 25 1 25 6
M  V30 26 1 23 12
M  V30 27 2 22 14
M  V30 28 1 1 26
M  V30 29 1 1 27
M  V30 30 1 1 28
M  V30 31 1 2 29
M  V30 32 1 2 30
M  V30 33 1 3 31
M  V30 34 1 7 32
M  V30 35 1 8 33
M  V30 36 1 10 34
M  V30 37 1 10 35
M  V30 38 1 10 36
M  V30 39 1 13 37
M  V30 40 1 13 38
M  V30 41 1 17 39
M  V30 42 1 18 40
M  V30 43 1 19 41
M  V30 44 1 19 42
M  V30 45 1 19 43
M  V30 46 1 20 44
M  V30 47 1 20 45
M  V30 48 1 20 46
M  V30 49 1 25 47
M  V30 END BOND
M  V30 END CTAB
M  END
>  <Dataset>  (626) 
ChEMBL_Kinases

>  <Ligand_Instance>  (626) 
nan

>  <PDB_ID>  (626) 
nan

>  <Standardized_SMILES>  (626) 
CCNC(=O)c1ccc(C)c(N2Cc3nc(NC(C)C)sc3C2=O)c1

>  <Name>  (626) 
nan

>  <Pocket>  (626) 
nan

>  <ATP_Site>  (626) 
nan

>  <Peripheral>  (626) 
nan

>  <Num_H_Atoms_ProtBoundConf>  (626) 
nan

>  <Num_Resolved_Atoms>  (626) 
nan

>  <Num_Not_Resolved_Atoms>  (626) 
nan

$$$$
CHEMBL254168
     RDKit          3D

  0  0  0  0  0  0  0  0  0  0999 V3000
M  V30 BEGIN CTAB
M  V30 COUNTS 47 49 0 0 0
M  V30 BEGIN ATOM
M  V30 1 C -1.656599 -5.575306 -2.828334 0
M  V30 2 C -2.511079 -4.510684 -2.174922 0
M  V30 3 C -3.477832 -3.857472 -3.129761 0
M  V30 4 N -4.289667 -2.844013 -2.502898 0
M  V30 5 C -3.414844 -1.814095 -1.968684 0
M  V30 6 N -2.946461 -1.776105 -0.911285 0
M  V30 7 C -2.154018 -0.887736 -0.360647 0
M  V30 8 C -1.803897 0.187101 -1.142608 0
M  V30 9 S -2.719494 -0.198047 -2.742140 0
M  V30 10 C -0.886382 1.173814 -0.447719 0
M  V30 11 O -0.515437 2.173792 -1.067523 0
M  V30 12 N -0.749435 0.547085 0.815917 0
M  V30 13 C 0.068126 1.192425 1.785006 0
M  V30 14 C 1.429072 0.864223 1.812915 0
M  V30 15 C 2.165380 1.522829 2.773176 0
M  V30 16 C 3.589745 1.205964 2.832481 0
M  V30 17 O 4.053776 0.366118 2.018880 0
M  V30 18 N 4.512121 1.772991 3.744065 0
M  V30 19 C 5.843262 1.232454 3.523120 0
M  V30 20 C 5.744101 -0.277378 3.736133 0
M  V30 21 C 1.598063 2.434580 3.637485 0
M  V30 22 C 0.250833 2.726352 3.572416 0
M  V30 23 C -0.537238 2.103358 2.637240 0
M  V30 24 C -1.965459 2.411488 2.566926 0
M  V30 25 C -1.471212 -0.678290 0.942987 0
M  V30 26 H -0.610124 -5.531509 -2.414273 0
M  V30 27 H -1.563508 -5.420575 -3.935788 0
M  V30 28 H -2.011152 -6.600724 -2.631156 0
M  V30 29 H -1.850977 -3.754740 -1.747869 0
M  V30 30 H -3.103542 -4.946551 -1.331412 0
M  V30 31 H -4.180038 -4.591939 -3.573342 0
M  V30 32 H -2.864627 -3.410822 -3.941649 0
M  V30 33 H -5.312807 -2.711051 -2.365209 0
M  V30 34 H 1.834649 0.146159 1.120137 0
M  V30 35 H 4.161988 2.465401 4.424357 0
M  V30 36 H 6.202604 1.471427 2.509697 0
M  V30 37 H 6.582739 1.626456 4.250871 0
M  V30 38 H 6.533432 -0.658484 4.418166 0
M  V30 39 H 4.775692 -0.571221 4.175313 0
M  V30 40 H 5.906602 -0.840484 2.779836 0
M  V30 41 H 2.180523 2.948859 4.389507 0
M  V30 42 H -0.207261 3.434268 4.238338 0
M  V30 43 H -2.111915 3.482548 2.855955 0
M  V30 44 H -2.373287 2.338389 1.542773 0
M  V30 45 H -2.486834 1.802041 3.321555 0
M  V30 46 H -2.268331 -0.593916 1.714369 0
M  V30 47 H -0.799164 -1.523253 1.199191 0
M  V30 END ATOM
M  V30 BEGIN BOND
M  V30 1 1 1 2
M  V30 2 1 2 3
M  V30 3 1 3 4
M  V30 4 1 4 5
M  V30 5 2 5 6
M  V30 6 1 6 7
M  V30 7 2 7 8
M  V30 8 1 8 9
M  V30 9 1 8 10
M  V30 10 2 10 11
M  V30 11 1 10 12
M  V30 12 1 12 13
M  V30 13 2 13 14
M  V30 14 1 14 15
M  V30 15 1 15 16
M  V30 16 2 16 17
M  V30 17 1 16 18
M  V30 18 1 18 19
M  V30 19 1 19 20
M  V30 20 2 15 21
M  V30 21 1 21 22
M  V30 22 2 22 23
M  V30 23 1 23 24
M  V30 24 1 12 25
M  V30 25 1 9 5
M  V30 26 1 23 13
M  V30 27 1 25 7
M  V30 28 1 1 26
M  V30 29 1 1 27
M  V30 30 1 1 28
M  V30 31 1 2 29
M  V30 32 1 2 30
M  V30 33 1 3 31
M  V30 34 1 3 32
M  V30 35 1 4 33
M  V30 36 1 14 34
M  V30 37 1 18 35
M  V30 38 1 19 36
M  V30 39 1 19 37
M  V30 40 1 20 38
M  V30 41 1 20 39
M  V30 42 1 20 40
M  V30 43 1 21 41
M  V30 44 1 22 42
M  V30 45 1 24 43
M  V30 46 1 24 44
M  V30 47 1 24 45
M  V30 48 1 25 46
M  V30 49 1 25 47
M  V30 END BOND
M  V30 END CTAB
M  END
>  <Dataset>  (627) 
ChEMBL_Kinases

>  <Ligand_Instance>  (627) 
nan

>  <PDB_ID>  (627) 
nan

>  <Standardized_SMILES>  (627) 
CCCNc1nc2c(s1)C(=O)N(c1cc(C(=O)NCC)ccc1C)C2

>  <Name>  (627) 
nan

>  <Pocket>  (627) 
nan

>  <ATP_Site>  (627) 
nan

>  <Peripheral>  (627) 
nan

>  <Num_H_Atoms_ProtBoundConf>  (627) 
nan

>  <Num_Resolved_Atoms>  (627) 
nan

>  <Num_Not_Resolved_Atoms>  (627) 
nan

$$$$
CHEMBL253896
     RDKit          3D

  0  0  0  0  0  0  0  0  0  0999 V3000
M  V30 BEGIN CTAB
M  V30 COUNTS 48 49 0 0 0
M  V30 BEGIN ATOM
M  V30 1 C 1.476549 -4.466452 2.244022 0
M  V30 2 O 0.852563 -3.221196 2.285980 0
M  V30 3 C 1.185144 -2.092608 1.589261 0
M  V30 4 C 2.241376 -2.005012 0.692023 0
M  V30 5 C 2.497549 -0.798981 0.028388 0
M  V30 6 O 3.564013 -0.709052 -0.878178 0
M  V30 7 C 1.687597 0.292583 0.280129 0
M  V30 8 C 1.963606 1.590728 -0.430473 0
M  V30 9 C 3.121168 2.289343 0.157180 0
M  V30 10 C 4.271593 2.662615 -0.353908 0
M  V30 11 C 4.731011 2.466310 -1.736390 0
M  V30 12 C 5.248385 3.362432 0.516897 0
M  V30 13 C 0.633486 0.211382 1.173275 0
M  V30 14 O -0.124342 1.379762 1.353644 0
M  V30 15 C 0.386065 -0.997818 1.831141 0
M  V30 16 C -0.755834 -0.902285 2.731194 0
M  V30 17 O -0.302420 -0.542007 3.847238 0
M  V30 18 C -2.160582 -1.160494 2.447105 0
M  V30 19 C -2.642776 -1.539418 1.278490 0
M  V30 20 C -4.056357 -1.788381 1.032234 0
M  V30 21 C -5.039933 -1.652817 1.985359 0
M  V30 22 C -6.364937 -1.901883 1.695666 0
M  V30 23 C -6.723428 -2.297378 0.421411 0
M  V30 24 O -8.053070 -2.549983 0.119729 0
M  V30 25 C -5.760497 -2.447683 -0.575806 0
M  V30 26 C -4.450908 -2.184441 -0.227178 0
M  V30 27 H 2.003609 -4.688422 1.278407 0
M  V30 28 H 2.258400 -4.525457 3.030536 0
M  V30 29 H 0.715948 -5.290458 2.344544 0
M  V30 30 H 2.849699 -2.885681 0.525956 0
M  V30 31 H 3.317166 -0.422320 -1.823980 0
M  V30 32 H 2.118373 1.398793 -1.518009 0
M  V30 33 H 1.077458 2.254795 -0.384513 0
M  V30 34 H 2.872589 2.477782 1.187731 0
M  V30 35 H 4.945551 3.454929 -2.197487 0
M  V30 36 H 5.672840 1.844064 -1.668058 0
M  V30 37 H 3.998719 1.963208 -2.386230 0
M  V30 38 H 5.546649 4.357899 0.076577 0
M  V30 39 H 6.184655 2.768007 0.536136 0
M  V30 40 H 4.825991 3.553807 1.527293 0
M  V30 41 H -0.161068 1.807566 2.280758 0
M  V30 42 H -2.818343 -1.016929 3.290846 0
M  V30 43 H -1.916742 -1.655194 0.505641 0
M  V30 44 H -4.789914 -1.347984 2.979794 0
M  V30 45 H -7.100930 -1.776027 2.496887 0
M  V30 46 H -8.539108 -3.380676 0.468997 0
M  V30 47 H -6.045806 -2.759374 -1.577918 0
M  V30 48 H -3.696732 -2.296808 -0.987616 0
M  V30 END ATOM
M  V30 BEGIN BOND
M  V30 1 1 1 2
M  V30 2 1 2 3
M  V30 3 2 3 4
M  V30 4 1 4 5
M  V30 5 1 5 6
M  V30 6 2 5 7
M  V30 7 1 7 8
M  V30 8 1 8 9
M  V30 9 2 9 10 CFG=2
M  V30 10 1 10 11
M  V30 11 1 10 12
M  V30 12 1 7 13
M  V30 13 1 13 14
M  V30 14 2 13 15
M  V30 15 1 15 16
M  V30 16 2 16 17
M  V30 17 1 16 18
M  V30 18 2 18 19
M  V30 19 1 19 20
M  V30 20 2 20 21
M  V30 21 1 21 22
M  V30 22 2 22 23
M  V30 23 1 23 24
M  V30 24 1 23 25
M  V30 25 2 25 26
M  V30 26 1 15 3
M  V30 27 1 26 20
M  V30 28 1 1 27
M  V30 29 1 1 28
M  V30 30 1 1 29
M  V30 31 1 4 30
M  V30 32 1 6 31
M  V30 33 1 8 32
M  V30 34 1 8 33
M  V30 35 1 9 34
M  V30 36 1 11 35
M  V30 37 1 11 36
M  V30 38 1 11 37
M  V30 39 1 12 38
M  V30 40 1 12 39
M  V30 41 1 12 40
M  V30 42 1 14 41
M  V30 43 1 18 42
M  V30 44 1 19 43
M  V30 45 1 21 44
M  V30 46 1 22 45
M  V30 47 1 24 46
M  V30 48 1 25 47
M  V30 49 1 26 48
M  V30 END BOND
M  V30 END CTAB
M  END
>  <Dataset>  (628) 
ChEMBL_Kinases

>  <Ligand_Instance>  (628) 
nan

>  <PDB_ID>  (628) 
nan

>  <Standardized_SMILES>  (628) 
COc1cc(O)c(CC=C(C)C)c(O)c1C(=O)/C=C/c1ccc(O)cc1

>  <Name>  (628) 
XANTHOHUMOL

>  <Pocket>  (628) 
nan

>  <ATP_Site>  (628) 
nan

>  <Peripheral>  (628) 
nan

>  <Num_H_Atoms_ProtBoundConf>  (628) 
nan

>  <Num_Resolved_Atoms>  (628) 
nan

>  <Num_Not_Resolved_Atoms>  (628) 
nan

$$$$
CHEMBL253770
     RDKit          3D

  0  0  0  0  0  0  0  0  0  0999 V3000
M  V30 BEGIN CTAB
M  V30 COUNTS 32 35 0 0 0
M  V30 BEGIN ATOM
M  V30 1 O 3.577611 -1.435181 0.846720 0
M  V30 2 C 2.573523 -1.942357 0.334865 0
M  V30 3 N 2.619658 -3.150275 -0.413180 0
M  V30 4 C 1.255324 -3.380292 -0.820959 0
M  V30 5 C 0.871972 -4.486368 -1.588182 0
M  V30 6 C -0.458158 -4.609222 -1.922208 0
M  V30 7 C -1.344181 -3.630021 -1.479793 0
M  V30 8 Br -3.160596 -3.924704 -2.015464 0
M  V30 9 C -0.865533 -2.583596 -0.731536 0
M  V30 10 C 0.412189 -2.399104 -0.369008 0
M  V30 11 C 1.202165 -1.465516 0.368692 0
M  V30 12 C 0.751588 -0.398786 0.950109 0
M  V30 13 N 1.558936 0.509622 1.675381 0
M  V30 14 C 0.810327 1.595548 2.211281 0
M  V30 15 C 1.234471 2.677202 2.971090 0
M  V30 16 C 0.256686 3.564503 3.338240 0
M  V30 17 C -1.065651 3.410071 2.985975 0
M  V30 18 C -1.402653 2.310895 2.232018 0
M  V30 19 C -0.487558 1.352898 1.808453 0
M  V30 20 C -0.571863 0.138477 1.031104 0
M  V30 21 N -1.659278 -0.234552 0.587226 0
M  V30 22 O -2.849215 0.380584 0.742829 0
M  V30 23 H 3.482752 -3.715144 -0.600381 0
M  V30 24 H 1.556396 -5.245146 -1.931436 0
M  V30 25 H -0.754967 -5.460345 -2.512945 0
M  V30 26 H -1.679421 -1.976675 -0.508481 0
M  V30 27 H 2.586679 0.407034 1.809659 0
M  V30 28 H 2.272187 2.798733 3.247748 0
M  V30 29 H 0.567525 4.406278 3.925833 0
M  V30 30 H -1.781694 4.151691 3.312397 0
M  V30 31 H -2.455472 2.260573 1.997071 0
M  V30 32 H -3.355866 0.728875 -0.075745 0
M  V30 END ATOM
M  V30 BEGIN BOND
M  V30 1 2 1 2
M  V30 2 1 2 3
M  V30 3 1 3 4
M  V30 4 2 4 5
M  V30 5 1 5 6
M  V30 6 2 6 7
M  V30 7 1 7 8
M  V30 8 1 7 9
M  V30 9 2 9 10
M  V30 10 1 10 11
M  V30 11 2 11 12
M  V30 12 1 12 13
M  V30 13 1 13 14
M  V30 14 2 14 15
M  V30 15 1 15 16
M  V30 16 2 16 17
M  V30 17 1 17 18
M  V30 18 2 18 19
M  V30 19 1 19 20
M  V30 20 2 20 21
M  V30 21 1 21 22
M  V30 22 1 11 2
M  V30 23 1 20 12
M  V30 24 1 10 4
M  V30 25 1 19 14
M  V30 26 1 3 23
M  V30 27 1 5 24
M  V30 28 1 6 25
M  V30 29 1 9 26
M  V30 30 1 13 27
M  V30 31 1 15 28
M  V30 32 1 16 29
M  V30 33 1 17 30
M  V30 34 1 18 31
M  V30 35 1 22 32
M  V30 END BOND
M  V30 END CTAB
M  END
>  <Dataset>  (629) 
ChEMBL_Kinases

>  <Ligand_Instance>  (629) 
nan

>  <PDB_ID>  (629) 
nan

>  <Standardized_SMILES>  (629) 
O=C1Nc2ccc(Br)cc2/C1=C1/Nc2ccccc2/C1=N\O

>  <Name>  (629) 
INDIRUBIN 2

>  <Pocket>  (629) 
nan

>  <ATP_Site>  (629) 
nan

>  <Peripheral>  (629) 
nan

>  <Num_H_Atoms_ProtBoundConf>  (629) 
nan

>  <Num_Resolved_Atoms>  (629) 
nan

>  <Num_Not_Resolved_Atoms>  (629) 
nan

$$$$
CHEMBL253769
     RDKit          3D

  0  0  0  0  0  0  0  0  0  0999 V3000
M  V30 BEGIN CTAB
M  V30 COUNTS 37 40 0 0 0
M  V30 BEGIN ATOM
M  V30 1 C 2.582816 -2.179267 4.481689 0
M  V30 2 C 2.212060 -1.527043 3.197863 0
M  V30 3 O 3.165743 -1.233262 2.429518 0
M  V30 4 O 0.905329 -1.229677 2.805493 0
M  V30 5 N 0.576105 -0.638664 1.641026 0
M  V30 6 C -0.148543 -1.122318 0.770859 0
M  V30 7 C -0.592850 -0.639062 -0.502438 0
M  V30 8 C -0.358793 0.472397 -1.127479 0
M  V30 9 C -0.851654 0.884244 -2.422086 0
M  V30 10 O -1.594513 0.267042 -3.199103 0
M  V30 11 N -0.343095 2.178310 -2.716842 0
M  V30 12 C 0.462375 2.527881 -1.571135 0
M  V30 13 C 1.144766 3.739955 -1.469287 0
M  V30 14 C 1.881936 3.971481 -0.336860 0
M  V30 15 Cl 2.748784 5.477976 -0.175974 0
M  V30 16 C 1.907240 2.983490 0.646717 0
M  V30 17 Cl 2.889048 3.392213 2.059755 0
M  V30 18 C 1.200297 1.822423 0.451456 0
M  V30 19 C 0.460756 1.531948 -0.629405 0
M  V30 20 N -1.412292 -1.670703 -1.026675 0
M  V30 21 C -1.506154 -2.782401 -0.144240 0
M  V30 22 C -2.202340 -3.977007 -0.287849 0
M  V30 23 C -2.091015 -4.864881 0.758562 0
M  V30 24 C -1.339981 -4.598251 1.883046 0
M  V30 25 C -0.678932 -3.394790 1.953812 0
M  V30 26 C -0.732742 -2.434013 0.943727 0
M  V30 27 H 3.103281 -3.161902 4.309466 0
M  V30 28 H 3.309746 -1.574933 5.078799 0
M  V30 29 H 1.711822 -2.394752 5.125866 0
M  V30 30 H -0.539009 2.724314 -3.594075 0
M  V30 31 H 1.129445 4.505595 -2.223638 0
M  V30 32 H 1.351879 1.229392 1.292003 0
M  V30 33 H -1.894910 -1.639521 -1.941384 0
M  V30 34 H -2.791588 -4.186702 -1.169622 0
M  V30 35 H -2.633559 -5.787862 0.639068 0
M  V30 36 H -1.308500 -5.352869 2.656616 0
M  V30 37 H -0.125310 -3.275205 2.855722 0
M  V30 END ATOM
M  V30 BEGIN BOND
M  V30 1 1 1 2
M  V30 2 2 2 3
M  V30 3 1 2 4
M  V30 4 1 4 5
M  V30 5 2 5 6
M  V30 6 1 6 7
M  V30 7 2 7 8
M  V30 8 1 8 9
M  V30 9 2 9 10
M  V30 10 1 9 11
M  V30 11 1 11 12
M  V30 12 2 12 13
M  V30 13 1 13 14
M  V30 14 1 14 15
M  V30 15 2 14 16
M  V30 16 1 16 17
M  V30 17 1 16 18
M  V30 18 2 18 19
M  V30 19 1 7 20
M  V30 20 1 20 21
M  V30 21 2 21 22
M  V30 22 1 22 23
M  V30 23 2 23 24
M  V30 24 1 24 25
M  V30 25 2 25 26
M  V30 26 1 26 6
M  V30 27 1 19 8
M  V30 28 1 26 21
M  V30 29 1 19 12
M  V30 30 1 1 27
M  V30 31 1 1 28
M  V30 32 1 1 29
M  V30 33 1 11 30
M  V30 34 1 13 31
M  V30 35 1 18 32
M  V30 36 1 20 33
M  V30 37 1 22 34
M  V30 38 1 23 35
M  V30 39 1 24 36
M  V30 40 1 25 37
M  V30 END BOND
M  V30 END CTAB
M  END
>  <Dataset>  (630) 
ChEMBL_Kinases

>  <Ligand_Instance>  (630) 
nan

>  <PDB_ID>  (630) 
nan

>  <Standardized_SMILES>  (630) 
CC(=O)O/N=C1C(=C2/C(=O)Nc3cc(Cl)c(Cl)cc32)/Nc2ccccc2/1

>  <Name>  (630) 
INDIRUBIN 1

>  <Pocket>  (630) 
nan

>  <ATP_Site>  (630) 
nan

>  <Peripheral>  (630) 
nan

>  <Num_H_Atoms_ProtBoundConf>  (630) 
nan

>  <Num_Resolved_Atoms>  (630) 
nan

>  <Num_Not_Resolved_Atoms>  (630) 
nan

$$$$
CHEMBL253768
     RDKit          3D

  0  0  0  0  0  0  0  0  0  0999 V3000
M  V30 BEGIN CTAB
M  V30 COUNTS 28 30 0 0 0
M  V30 BEGIN ATOM
M  V30 1 N 2.700288 -4.842033 1.362574 0
M  V30 2 C 2.608559 -3.580783 2.052717 0
M  V30 3 N 3.266128 -3.319230 3.191691 0
M  V30 4 C 3.100285 -2.087664 3.753329 0
M  V30 5 C 2.268499 -1.201892 3.108551 0
M  V30 6 Br 2.105022 0.484203 3.971064 0
M  V30 7 C 1.588139 -1.447099 1.946725 0
M  V30 8 C 0.710489 -0.535538 1.251336 0
M  V30 9 C 0.258148 0.742536 1.421700 0
M  V30 10 C -0.594885 1.138549 0.425555 0
M  V30 11 C -0.669993 0.040401 -0.403996 0
M  V30 12 N 0.107817 -0.918249 0.113927 0
M  V30 13 C -1.523302 0.130869 -1.617438 0
M  V30 14 C -2.678672 1.066445 -1.351994 0
M  V30 15 N -2.152371 2.376644 -1.021173 0
M  V30 16 C -1.331812 2.374326 0.165974 0
M  V30 17 O -1.222470 3.355502 0.964989 0
M  V30 18 N 1.819553 -2.680949 1.480109 0
M  V30 19 H 3.215503 -5.362527 0.620368 0
M  V30 20 H 1.957245 -5.473018 1.773262 0
M  V30 21 H 3.618681 -1.866047 4.661321 0
M  V30 22 H 0.536062 1.367344 2.239277 0
M  V30 23 H 0.167549 -1.845024 -0.404253 0
M  V30 24 H -1.856454 -0.854391 -1.973051 0
M  V30 25 H -0.927511 0.629689 -2.437294 0
M  V30 26 H -3.372993 1.118343 -2.220131 0
M  V30 27 H -3.230637 0.619814 -0.488813 0
M  V30 28 H -2.261261 3.316792 -1.483717 0
M  V30 END ATOM
M  V30 BEGIN BOND
M  V30 1 1 1 2
M  V30 2 2 2 3
M  V30 3 1 3 4
M  V30 4 2 4 5
M  V30 5 1 5 6
M  V30 6 1 5 7
M  V30 7 1 7 8
M  V30 8 2 8 9
M  V30 9 1 9 10
M  V30 10 2 10 11
M  V30 11 1 11 12
M  V30 12 1 11 13
M  V30 13 1 13 14
M  V30 14 1 14 15
M  V30 15 1 15 16
M  V30 16 2 16 17
M  V30 17 2 7 18
M  V30 18 1 18 2
M  V30 19 1 12 8
M  V30 20 1 16 10
M  V30 21 1 1 19
M  V30 22 1 1 20
M  V30 23 1 4 21
M  V30 24 1 9 22
M  V30 25 1 12 23
M  V30 26 1 13 24
M  V30 27 1 13 25
M  V30 28 1 14 26
M  V30 29 1 14 27
M  V30 30 1 15 28
M  V30 END BOND
M  V30 END CTAB
M  END
>  <Dataset>  (631) 
ChEMBL_Kinases

>  <Ligand_Instance>  (631) 
nan

>  <PDB_ID>  (631) 
nan

>  <Standardized_SMILES>  (631) 
Nc1ncc(Br)c(-c2cc3c([nH]2)CCNC3=O)n1

>  <Name>  (631) 
nan

>  <Pocket>  (631) 
nan

>  <ATP_Site>  (631) 
nan

>  <Peripheral>  (631) 
nan

>  <Num_H_Atoms_ProtBoundConf>  (631) 
nan

>  <Num_Resolved_Atoms>  (631) 
nan

>  <Num_Not_Resolved_Atoms>  (631) 
nan

$$$$
CHEMBL253760
     RDKit          3D

  0  0  0  0  0  0  0  0  0  0999 V3000
M  V30 BEGIN CTAB
M  V30 COUNTS 31 34 0 0 0
M  V30 BEGIN ATOM
M  V30 1 O -2.130907 -2.150056 3.742454 0
M  V30 2 C -1.066857 -2.663434 3.260426 0
M  V30 3 N -0.467948 -3.879477 3.754902 0
M  V30 4 C 0.969554 -3.911561 3.595842 0
M  V30 5 C 1.299147 -3.759567 2.131426 0
M  V30 6 C 0.756043 -2.492554 1.564577 0
M  V30 7 N 1.092922 -1.647268 0.588771 0
M  V30 8 C 0.241782 -0.604105 0.459815 0
M  V30 9 C 0.505198 0.375233 -0.563435 0
M  V30 10 C 1.589251 0.262482 -1.397298 0
M  V30 11 C 1.869246 1.178453 -2.382288 0
M  V30 12 N 1.085702 2.244420 -2.581256 0
M  V30 13 C 0.008378 2.422117 -1.806007 0
M  V30 14 N -0.916341 3.383809 -1.799217 0
M  V30 15 C -1.822811 3.149240 -0.833911 0
M  V30 16 C -1.395238 1.980280 -0.247279 0
M  V30 17 C -0.250004 1.486057 -0.823111 0
M  V30 18 C -0.664846 -0.866807 1.443787 0
M  V30 19 C -0.392155 -2.009689 2.145342 0
M  V30 20 H -1.155425 -4.579457 4.165782 0
M  V30 21 H 1.395730 -4.892535 3.920114 0
M  V30 22 H 1.425555 -3.076347 4.183345 0
M  V30 23 H 0.851055 -4.624308 1.599885 0
M  V30 24 H 2.383864 -3.731386 1.943900 0
M  V30 25 H 1.955912 -1.904249 0.066133 0
M  V30 26 H 2.304524 -0.542812 -1.352343 0
M  V30 27 H 2.721215 1.082028 -3.031291 0
M  V30 28 H -0.917266 4.192861 -2.457233 0
M  V30 29 H -2.686888 3.747852 -0.583263 0
M  V30 30 H -1.942770 1.557136 0.565215 0
M  V30 31 H -1.490987 -0.250670 1.641678 0
M  V30 END ATOM
M  V30 BEGIN BOND
M  V30 1 2 1 2
M  V30 2 1 2 3
M  V30 3 1 3 4
M  V30 4 1 4 5
M  V30 5 1 5 6
M  V30 6 1 6 7
M  V30 7 1 7 8
M  V30 8 1 8 9
M  V30 9 2 9 10
M  V30 10 1 10 11
M  V30 11 2 11 12
M  V30 12 1 12 13
M  V30 13 1 13 14
M  V30 14 1 14 15
M  V30 15 2 15 16
M  V30 16 1 16 17
M  V30 17 2 8 18
M  V30 18 1 18 19
M  V30 19 1 19 2
M  V30 20 2 19 6
M  V30 21 1 17 9
M  V30 22 2 17 13
M  V30 23 1 3 20
M  V30 24 1 4 21
M  V30 25 1 4 22
M  V30 26 1 5 23
M  V30 27 1 5 24
M  V30 28 1 7 25
M  V30 29 1 10 26
M  V30 30 1 11 27
M  V30 31 1 14 28
M  V30 32 1 15 29
M  V30 33 1 16 30
M  V30 34 1 18 31
M  V30 END BOND
M  V30 END CTAB
M  END
>  <Dataset>  (632) 
ChEMBL_Kinases

>  <Ligand_Instance>  (632) 
nan

>  <PDB_ID>  (632) 
nan

>  <Standardized_SMILES>  (632) 
O=C1NCCc2[nH]c(-c3ccnc4[nH]ccc34)cc21

>  <Name>  (632) 
nan

>  <Pocket>  (632) 
nan

>  <ATP_Site>  (632) 
nan

>  <Peripheral>  (632) 
nan

>  <Num_H_Atoms_ProtBoundConf>  (632) 
nan

>  <Num_Resolved_Atoms>  (632) 
nan

>  <Num_Not_Resolved_Atoms>  (632) 
nan

$$$$
CHEMBL251364
     RDKit          3D

  0  0  0  0  0  0  0  0  0  0999 V3000
M  V30 BEGIN CTAB
M  V30 COUNTS 61 65 0 0 0
M  V30 BEGIN ATOM
M  V30 1 N 9.386840 -3.449253 0.024559 0
M  V30 2 C 9.411708 -2.086791 0.353354 0
M  V30 3 O 10.550334 -1.591954 0.525036 0
M  V30 4 C 8.256079 -1.231279 0.505582 0
M  V30 5 C 8.452913 0.092660 0.838271 0
M  V30 6 C 7.359984 0.954365 0.995416 0
M  V30 7 C 6.066713 0.505911 0.823118 0
M  V30 8 N 4.873407 1.126341 0.917309 0
M  V30 9 C 3.931957 0.180105 0.640913 0
M  V30 10 C 2.463784 0.352973 0.613539 0
M  V30 11 C 1.619406 -0.709242 0.311342 0
M  V30 12 C 0.256888 -0.465216 0.308303 0
M  V30 13 C -0.253987 0.807754 0.599648 0
M  V30 14 O -1.644516 0.819234 0.538192 0
M  V30 15 C -2.444289 1.935614 0.777984 0
M  V30 16 C -3.910271 1.734326 0.660887 0
M  V30 17 C -4.352126 1.275937 -0.708031 0
M  V30 18 C -4.589166 -0.218814 -0.743458 0
M  V30 19 N -3.692846 -0.868311 0.162903 0
M  V30 20 C -3.432079 -2.234980 -0.156114 0
M  V30 21 C -4.598368 -3.120764 -0.167773 0
M  V30 22 C -5.323985 -3.281640 -1.337855 0
M  V30 23 C -6.427052 -4.133779 -1.316299 0
M  V30 24 C -6.763676 -4.790170 -0.135356 0
M  V30 25 Cl -8.181205 -5.849455 -0.209214 0
M  V30 26 C -6.047132 -4.636113 1.033999 0
M  V30 27 Cl -6.547902 -5.506549 2.473501 0
M  V30 28 C -4.956386 -3.790358 1.003309 0
M  V30 29 C -3.988962 -0.617552 1.535587 0
M  V30 30 C -4.485913 0.801318 1.695012 0
M  V30 31 C 0.603859 1.850164 0.897482 0
M  V30 32 C 1.970001 1.612793 0.902343 0
M  V30 33 N 4.550004 -1.010256 0.379804 0
M  V30 34 C 5.899384 -0.826269 0.489680 0
M  V30 35 C 6.957080 -1.699036 0.328145 0
M  V30 36 H 9.903257 -4.022318 -0.651103 0
M  V30 37 H 8.849605 -4.279857 0.356706 0
M  V30 38 H 9.419935 0.549794 0.996516 0
M  V30 39 H 7.519934 1.997977 1.257880 0
M  V30 40 H 4.673440 2.127890 1.152362 0
M  V30 41 H 2.039111 -1.682040 0.090159 0
M  V30 42 H -0.338641 -1.339614 0.064012 0
M  V30 43 H -2.242126 2.266231 1.820540 0
M  V30 44 H -2.171859 2.811013 0.149230 0
M  V30 45 H -4.387350 2.722749 0.835650 0
M  V30 46 H -5.304292 1.772133 -0.990084 0
M  V30 47 H -3.588899 1.595126 -1.439743 0
M  V30 48 H -5.659339 -0.434601 -0.536882 0
M  V30 49 H -4.341608 -0.550991 -1.773530 0
M  V30 50 H -2.715513 -2.640978 0.606393 0
M  V30 51 H -2.917545 -2.234707 -1.156373 0
M  V30 52 H -5.082153 -2.788023 -2.252031 0
M  V30 53 H -7.004792 -4.267914 -2.229327 0
M  V30 54 H -4.427966 -3.704266 1.941962 0
M  V30 55 H -3.027929 -0.657019 2.114185 0
M  V30 56 H -4.698668 -1.328322 2.005231 0
M  V30 57 H -5.584313 0.776936 1.482926 0
M  V30 58 H -4.374057 1.198536 2.714360 0
M  V30 59 H 0.098712 2.784089 1.105026 0
M  V30 60 H 2.590058 2.468848 1.143256 0
M  V30 61 H 6.774704 -2.733004 0.066993 0
M  V30 END ATOM
M  V30 BEGIN BOND
M  V30 1 1 1 2
M  V30 2 2 2 3
M  V30 3 1 2 4
M  V30 4 2 4 5
M  V30 5 1 5 6
M  V30 6 2 6 7
M  V30 7 1 7 8
M  V30 8 1 8 9
M  V30 9 1 9 10
M  V30 10 2 10 11
M  V30 11 1 11 12
M  V30 12 2 12 13
M  V30 13 1 13 14
M  V30 14 1 14 15
M  V30 15 1 15 16
M  V30 16 1 16 17
M  V30 17 1 17 18
M  V30 18 1 18 19
M  V30 19 1 19 20
M  V30 20 1 20 21
M  V30 21 2 21 22
M  V30 22 1 22 23
M  V30 23 2 23 24
M  V30 24 1 24 25
M  V30 25 1 24 26
M  V30 26 1 26 27
M  V30 27 2 26 28
M  V30 28 1 19 29
M  V30 29 1 29 30
M  V30 30 1 13 31
M  V30 31 2 31 32
M  V30 32 2 9 33
M  V30 33 1 33 34
M  V30 34 2 34 35
M  V30 35 1 35 4
M  V30 36 1 34 7
M  V30 37 1 32 10
M  V30 38 1 30 16
M  V30 39 1 28 21
M  V30 40 1 1 36
M  V30 41 1 1 37
M  V30 42 1 5 38
M  V30 43 1 6 39
M  V30 44 1 8 40
M  V30 45 1 11 41
M  V30 46 1 12 42
M  V30 47 1 15 43
M  V30 48 1 15 44
M  V30 49 1 16 45
M  V30 50 1 17 46
M  V30 51 1 17 47
M  V30 52 1 18 48
M  V30 53 1 18 49
M  V30 54 1 20 50
M  V30 55 1 20 51
M  V30 56 1 22 52
M  V30 57 1 23 53
M  V30 58 1 28 54
M  V30 59 1 29 55
M  V30 60 1 29 56
M  V30 61 1 30 57
M  V30 62 1 30 58
M  V30 63 1 31 59
M  V30 64 1 32 60
M  V30 65 1 35 61
M  V30 END BOND
M  V30 END CTAB
M  END
>  <Dataset>  (633) 
ChEMBL_Kinases

>  <Ligand_Instance>  (633) 
nan

>  <PDB_ID>  (633) 
nan

>  <Standardized_SMILES>  (633) 
NC(=O)c1ccc2[nH]c(-c3ccc(OCC4CCN(Cc5ccc(Cl)c(Cl)c5)CC4)cc3)nc2c1

>  <Name>  (633) 
nan

>  <Pocket>  (633) 
nan

>  <ATP_Site>  (633) 
nan

>  <Peripheral>  (633) 
nan

>  <Num_H_Atoms_ProtBoundConf>  (633) 
nan

>  <Num_Resolved_Atoms>  (633) 
nan

>  <Num_Not_Resolved_Atoms>  (633) 
nan

$$$$
CHEMBL251368
     RDKit          3D

  0  0  0  0  0  0  0  0  0  0999 V3000
M  V30 BEGIN CTAB
M  V30 COUNTS 45 48 0 0 0
M  V30 BEGIN ATOM
M  V30 1 N -4.302680 -7.256308 -1.618383 0
M  V30 2 C -2.948651 -7.316071 -2.049957 0
M  V30 3 O -2.688346 -8.361199 -2.699319 0
M  V30 4 C -1.972190 -6.272150 -1.765544 0
M  V30 5 C -0.693219 -6.457013 -2.243586 0
M  V30 6 C 0.210233 -5.434721 -1.949515 0
M  V30 7 C -0.190540 -4.314718 -1.217721 0
M  V30 8 N 0.530751 -3.221915 -0.831354 0
M  V30 9 C -0.323710 -2.437026 -0.149554 0
M  V30 10 C 0.059152 -1.157425 0.438874 0
M  V30 11 C 1.352041 -0.691657 0.313280 0
M  V30 12 C 1.768919 0.508964 0.848406 0
M  V30 13 C 0.877845 1.298681 1.543627 0
M  V30 14 O 1.003029 2.521758 2.176977 0
M  V30 15 C 2.172994 3.294570 2.255839 0
M  V30 16 C 1.971111 4.582391 1.509392 0
M  V30 17 C 1.579077 5.746016 2.356982 0
M  V30 18 N 2.427130 5.842281 3.527012 0
M  V30 19 C 2.086507 4.689100 4.349862 0
M  V30 20 C 2.656766 3.483877 3.666391 0
M  V30 21 C -0.441045 0.847183 1.684703 0
M  V30 22 C -0.842362 -0.375656 1.132817 0
M  V30 23 N -1.529638 -3.005045 -0.105593 0
M  V30 24 C -1.501957 -4.196499 -0.766641 0
M  V30 25 C -2.410309 -5.183817 -1.040104 0
M  V30 26 H -4.588177 -7.387648 -0.621723 0
M  V30 27 H -5.271798 -7.107782 -1.974884 0
M  V30 28 H -0.445791 -7.340164 -2.800421 0
M  V30 29 H 1.215117 -5.519607 -2.292032 0
M  V30 30 H 1.551060 -3.044376 -1.034616 0
M  V30 31 H 2.114450 -1.246466 -0.215316 0
M  V30 32 H 2.740009 0.957815 0.808327 0
M  V30 33 H 2.974708 2.748644 1.720539 0
M  V30 34 H 1.164760 4.423354 0.735573 0
M  V30 35 H 2.877052 4.870814 0.942522 0
M  V30 36 H 0.525562 5.729329 2.692786 0
M  V30 37 H 1.679589 6.656324 1.725459 0
M  V30 38 H 2.195953 6.679503 4.079341 0
M  V30 39 H 1.017878 4.619716 4.572709 0
M  V30 40 H 2.635517 4.795409 5.311605 0
M  V30 41 H 3.763411 3.563871 3.699349 0
M  V30 42 H 2.376076 2.613014 4.279765 0
M  V30 43 H -1.273281 1.341172 2.200540 0
M  V30 44 H -1.846200 -0.768212 1.213386 0
M  V30 45 H -3.427966 -5.091316 -0.689651 0
M  V30 END ATOM
M  V30 BEGIN BOND
M  V30 1 1 1 2
M  V30 2 2 2 3
M  V30 3 1 2 4
M  V30 4 2 4 5
M  V30 5 1 5 6
M  V30 6 2 6 7
M  V30 7 1 7 8
M  V30 8 1 8 9
M  V30 9 1 9 10
M  V30 10 2 10 11
M  V30 11 1 11 12
M  V30 12 2 12 13
M  V30 13 1 13 14
M  V30 14 1 14 15
M  V30 15 1 15 16
M  V30 16 1 16 17
M  V30 17 1 17 18
M  V30 18 1 18 19
M  V30 19 1 19 20
M  V30 20 1 13 21
M  V30 21 2 21 22
M  V30 22 2 9 23
M  V30 23 1 23 24
M  V30 24 2 24 25
M  V30 25 1 25 4
M  V30 26 1 24 7
M  V30 27 1 22 10
M  V30 28 1 20 15
M  V30 29 1 1 26
M  V30 30 1 1 27
M  V30 31 1 5 28
M  V30 32 1 6 29
M  V30 33 1 8 30
M  V30 34 1 11 31
M  V30 35 1 12 32
M  V30 36 1 15 33
M  V30 37 1 16 34
M  V30 38 1 16 35
M  V30 39 1 17 36
M  V30 40 1 17 37
M  V30 41 1 18 38
M  V30 42 1 19 39
M  V30 43 1 19 40
M  V30 44 1 20 41
M  V30 45 1 20 42
M  V30 46 1 21 43
M  V30 47 1 22 44
M  V30 48 1 25 45
M  V30 END BOND
M  V30 END CTAB
M  END
>  <Dataset>  (634) 
ChEMBL_Kinases

>  <Ligand_Instance>  (634) 
nan

>  <PDB_ID>  (634) 
nan

>  <Standardized_SMILES>  (634) 
NC(=O)c1ccc2[nH]c(-c3ccc(OC4CCNCC4)cc3)nc2c1

>  <Name>  (634) 
nan

>  <Pocket>  (634) 
nan

>  <ATP_Site>  (634) 
nan

>  <Peripheral>  (634) 
nan

>  <Num_H_Atoms_ProtBoundConf>  (634) 
nan

>  <Num_Resolved_Atoms>  (634) 
nan

>  <Num_Not_Resolved_Atoms>  (634) 
nan

$$$$
CHEMBL251375
     RDKit          3D

  0  0  0  0  0  0  0  0  0  0999 V3000
M  V30 BEGIN CTAB
M  V30 COUNTS 35 37 0 0 0
M  V30 BEGIN ATOM
M  V30 1 C -0.285481 -4.402497 3.383465 0
M  V30 2 C -0.849507 -4.082422 2.020103 0
M  V30 3 O -0.137253 -4.772914 1.031942 0
M  V30 4 C -0.860863 -2.617482 1.788509 0
M  V30 5 C 0.272721 -1.960476 1.417326 0
M  V30 6 C 0.365259 -0.580970 1.179513 0
M  V30 7 N 1.575214 -0.001745 0.809850 0
M  V30 8 C 2.114615 1.248884 0.437032 0
M  V30 9 C 1.654609 1.853447 -0.814878 0
M  V30 10 C 2.281017 1.398348 -1.960502 0
M  V30 11 C 2.013623 1.844724 -3.237083 0
M  V30 12 C 1.047329 2.824368 -3.417559 0
M  V30 13 N 0.414875 3.290130 -2.306271 0
M  V30 14 C 0.716221 2.820232 -1.092237 0
M  V30 15 N -0.825416 0.052577 1.362575 0
M  V30 16 N -1.092583 1.329630 1.230795 0
M  V30 17 C -2.384365 1.541593 1.506165 0
M  V30 18 C -2.992382 0.350183 1.833386 0
M  V30 19 Br -4.804711 0.022062 2.315614 0
M  V30 20 C -1.963620 -0.551421 1.726519 0
M  V30 21 N -1.961096 -1.876080 1.932832 0
M  V30 22 H -0.907288 -5.168580 3.877947 0
M  V30 23 H 0.734030 -4.801301 3.270928 0
M  V30 24 H -0.236162 -3.492784 4.031244 0
M  V30 25 H -1.906134 -4.439493 1.988110 0
M  V30 26 H -0.349748 -5.741263 1.141211 0
M  V30 27 H 1.163235 -2.603700 1.306786 0
M  V30 28 H 2.386200 -0.706727 0.788446 0
M  V30 29 H 1.885950 1.981379 1.270406 0
M  V30 30 H 3.221658 1.245998 0.376240 0
M  V30 31 H 3.060833 0.629430 -1.967379 0
M  V30 32 H 2.497122 1.494499 -4.132380 0
M  V30 33 H 0.720340 3.276412 -4.332153 0
M  V30 34 H 0.214999 3.212959 -0.215334 0
M  V30 35 H -2.889076 2.511546 1.478123 0
M  V30 END ATOM
M  V30 BEGIN BOND
M  V30 1 1 1 2
M  V30 2 1 2 3
M  V30 3 1 2 4
M  V30 4 1 4 5
M  V30 5 2 5 6
M  V30 6 1 6 7
M  V30 7 1 7 8
M  V30 8 1 8 9
M  V30 9 2 9 10
M  V30 10 1 10 11
M  V30 11 2 11 12
M  V30 12 1 12 13
M  V30 13 2 13 14
M  V30 14 1 6 15
M  V30 15 1 15 16
M  V30 16 2 16 17
M  V30 17 1 17 18
M  V30 18 1 18 19
M  V30 19 2 18 20
M  V30 20 1 20 21
M  V30 21 2 21 4
M  V30 22 1 14 9
M  V30 23 1 20 15
M  V30 24 1 1 22
M  V30 25 1 1 23
M  V30 26 1 1 24
M  V30 27 1 2 25
M  V30 28 1 3 26
M  V30 29 1 5 27
M  V30 30 1 7 28
M  V30 31 1 8 29
M  V30 32 1 8 30
M  V30 33 1 10 31
M  V30 34 1 11 32
M  V30 35 1 12 33
M  V30 36 1 14 34
M  V30 37 1 17 35
M  V30 END BOND
M  V30 END CTAB
M  END
>  <Dataset>  (635) 
ChEMBL_Kinases

>  <Ligand_Instance>  (635) 
nan

>  <PDB_ID>  (635) 
nan

>  <Standardized_SMILES>  (635) 
CC(O)c1cc(NCc2cccnc2)n2ncc(Br)c2n1

>  <Name>  (635) 
nan

>  <Pocket>  (635) 
nan

>  <ATP_Site>  (635) 
nan

>  <Peripheral>  (635) 
nan

>  <Num_H_Atoms_ProtBoundConf>  (635) 
nan

>  <Num_Resolved_Atoms>  (635) 
nan

>  <Num_Not_Resolved_Atoms>  (635) 
nan

$$$$
CHEMBL251382
     RDKit          3D

  0  0  0  0  0  0  0  0  0  0999 V3000
M  V30 BEGIN CTAB
M  V30 COUNTS 58 61 0 0 0
M  V30 BEGIN ATOM
M  V30 1 C 1.825771 -1.763078 5.023074 0
M  V30 2 C 3.303478 -1.835427 4.726909 0
M  V30 3 C 3.957371 -0.469372 4.657935 0
M  V30 4 C 3.338509 0.383932 3.575051 0
M  V30 5 N 3.475700 -0.215499 2.262035 0
M  V30 6 C 2.865590 0.556057 1.205883 0
M  V30 7 N 3.339628 1.564813 0.454120 0
M  V30 8 C 2.512640 2.079599 -0.467802 0
M  V30 9 C 1.213660 1.646746 -0.697172 0
M  V30 10 C 0.757189 0.593055 0.106972 0
M  V30 11 C -0.595430 0.146530 -0.145370 0
M  V30 12 C -1.827901 0.754974 -0.023552 0
M  V30 13 C -1.993039 2.124841 0.450549 0
M  V30 14 C -1.559510 2.278857 1.753732 0
M  V30 15 C -1.634540 3.505785 2.385703 0
M  V30 16 C -2.155599 4.570915 1.674340 0
M  V30 17 F -2.276532 5.822565 2.198320 0
M  V30 18 C -2.596417 4.444262 0.369309 0
M  V30 19 C -2.509199 3.204003 -0.238421 0
M  V30 20 N -2.752627 -0.168500 -0.419445 0
M  V30 21 C -2.089961 -1.305847 -0.770761 0
M  V30 22 C -2.661536 -2.481572 -1.229016 0
M  V30 23 C -1.828100 -3.542209 -1.540173 0
M  V30 24 C -2.289370 -4.865111 -2.045931 0
M  V30 25 N -2.346543 -4.908003 -3.481311 0
M  V30 26 C -3.240458 -3.930960 -4.056214 0
M  V30 27 C -1.031798 -4.871390 -4.088964 0
M  V30 28 C -0.458157 -3.376218 -1.377768 0
M  V30 29 C 0.021344 -2.171719 -0.916534 0
M  V30 30 N -0.764940 -1.124314 -0.606490 0
M  V30 31 N 1.607148 0.088315 1.031144 0
M  V30 32 H 1.314876 -2.406280 4.293502 0
M  V30 33 H 1.568225 -2.167491 6.042024 0
M  V30 34 H 1.425738 -0.734717 4.911818 0
M  V30 35 H 3.557371 -2.417515 3.832443 0
M  V30 36 H 3.780757 -2.368443 5.581573 0
M  V30 37 H 5.009020 -0.644832 4.355898 0
M  V30 38 H 3.892214 0.071972 5.603215 0
M  V30 39 H 2.316121 0.702807 3.776259 0
M  V30 40 H 3.986077 1.309010 3.537762 0
M  V30 41 H 3.962342 -1.115726 2.067018 0
M  V30 42 H 2.937753 2.894851 -1.055325 0
M  V30 43 H 0.631152 2.134791 -1.468994 0
M  V30 44 H -1.140127 1.497456 2.375824 0
M  V30 45 H -1.334443 3.764099 3.392728 0
M  V30 46 H -3.012757 5.222810 -0.248421 0
M  V30 47 H -2.818128 2.965512 -1.256853 0
M  V30 48 H -3.721054 -2.624714 -1.358212 0
M  V30 49 H -3.270926 -5.145308 -1.645253 0
M  V30 50 H -1.574994 -5.648730 -1.729424 0
M  V30 51 H -4.243803 -4.108955 -3.627952 0
M  V30 52 H -3.315413 -4.146744 -5.146809 0
M  V30 53 H -2.965555 -2.885122 -3.859586 0
M  V30 54 H -0.607609 -3.860162 -4.181824 0
M  V30 55 H -0.396382 -5.573803 -3.545823 0
M  V30 56 H -1.157287 -5.261815 -5.129073 0
M  V30 57 H 0.211527 -4.177546 -1.609374 0
M  V30 58 H 1.103542 -2.049284 -0.790028 0
M  V30 END ATOM
M  V30 BEGIN BOND
M  V30 1 1 1 2
M  V30 2 1 2 3
M  V30 3 1 3 4
M  V30 4 1 4 5
M  V30 5 1 5 6
M  V30 6 2 6 7
M  V30 7 1 7 8
M  V30 8 2 8 9
M  V30 9 1 9 10
M  V30 10 1 10 11
M  V30 11 2 11 12
M  V30 12 1 12 13
M  V30 13 2 13 14
M  V30 14 1 14 15
M  V30 15 2 15 16
M  V30 16 1 16 17
M  V30 17 1 16 18
M  V30 18 2 18 19
M  V30 19 1 12 20
M  V30 20 2 20 21
M  V30 21 1 21 22
M  V30 22 2 22 23
M  V30 23 1 23 24
M  V30 24 1 24 25
M  V30 25 1 25 26
M  V30 26 1 25 27
M  V30 27 1 23 28
M  V30 28 2 28 29
M  V30 29 1 29 30
M  V30 30 2 10 31
M  V30 31 1 31 6
M  V30 32 1 30 11
M  V30 33 1 19 13
M  V30 34 1 30 21
M  V30 35 1 1 32
M  V30 36 1 1 33
M  V30 37 1 1 34
M  V30 38 1 2 35
M  V30 39 1 2 36
M  V30 40 1 3 37
M  V30 41 1 3 38
M  V30 42 1 4 39
M  V30 43 1 4 40
M  V30 44 1 5 41
M  V30 45 1 8 42
M  V30 46 1 9 43
M  V30 47 1 14 44
M  V30 48 1 15 45
M  V30 49 1 18 46
M  V30 50 1 19 47
M  V30 51 1 22 48
M  V30 52 1 24 49
M  V30 53 1 24 50
M  V30 54 1 26 51
M  V30 55 1 26 52
M  V30 56 1 26 53
M  V30 57 1 27 54
M  V30 58 1 27 55
M  V30 59 1 27 56
M  V30 60 1 28 57
M  V30 61 1 29 58
M  V30 END BOND
M  V30 END CTAB
M  END
>  <Dataset>  (636) 
ChEMBL_Kinases

>  <Ligand_Instance>  (636) 
nan

>  <PDB_ID>  (636) 
nan

>  <Standardized_SMILES>  (636) 
CCCCNc1nccc(-c2c(-c3ccc(F)cc3)nc3cc(CN(C)C)ccn23)n1

>  <Name>  (636) 
nan

>  <Pocket>  (636) 
nan

>  <ATP_Site>  (636) 
nan

>  <Peripheral>  (636) 
nan

>  <Num_H_Atoms_ProtBoundConf>  (636) 
nan

>  <Num_Resolved_Atoms>  (636) 
nan

>  <Num_Not_Resolved_Atoms>  (636) 
nan

$$$$
CHEMBL251393
     RDKit          3D

  0  0  0  0  0  0  0  0  0  0999 V3000
M  V30 BEGIN CTAB
M  V30 COUNTS 44 47 0 0 0
M  V30 BEGIN ATOM
M  V30 1 Br 2.618367 2.370282 4.219114 0
M  V30 2 C 1.101641 2.095104 3.106088 0
M  V30 3 C -0.156430 2.680224 3.277324 0
M  V30 4 N -0.924601 2.201727 2.257282 0
M  V30 5 N -0.200287 1.377413 1.502771 0
M  V30 6 C -0.590423 0.699262 0.398997 0
M  V30 7 N -1.882963 0.738482 -0.180906 0
M  V30 8 C -2.964308 -0.145229 0.149887 0
M  V30 9 C -3.380695 -0.097519 1.568755 0
M  V30 10 C -2.899977 -0.865103 2.629373 0
M  V30 11 C -3.393784 -0.698509 3.895241 0
M  V30 12 C -4.392248 0.239969 4.176096 0
M  V30 13 N -4.859607 0.983541 3.155154 0
M  V30 14 C -4.377737 0.823786 1.909290 0
M  V30 15 C 0.345106 -0.118786 -0.243757 0
M  V30 16 C 1.632651 -0.226222 0.242265 0
M  V30 17 C 2.714935 -1.046348 -0.331098 0
M  V30 18 C 2.390903 -2.527571 -0.356108 0
M  V30 19 C 3.689266 -3.295801 -0.445195 0
M  V30 20 C 4.677429 -2.478918 -1.211138 0
M  V30 21 C 4.043525 -1.631786 -2.291299 0
M  V30 22 C 3.048226 -0.647717 -1.754184 0
M  V30 23 N 1.914375 0.493486 1.348832 0
M  V30 24 C 1.055655 1.280133 1.986943 0
M  V30 25 H -0.450033 3.376340 4.070282 0
M  V30 26 H -1.867938 1.525328 -0.875118 0
M  V30 27 H -3.828491 0.092652 -0.471589 0
M  V30 28 H -2.648189 -1.179386 -0.102844 0
M  V30 29 H -2.130678 -1.569272 2.341179 0
M  V30 30 H -3.003682 -1.304356 4.691224 0
M  V30 31 H -4.768429 0.353171 5.192112 0
M  V30 32 H -4.856847 1.493784 1.212096 0
M  V30 33 H 0.158371 -0.716187 -1.139247 0
M  V30 34 H 3.674333 -0.960378 0.251176 0
M  V30 35 H 1.813676 -2.745018 -1.277359 0
M  V30 36 H 1.770521 -2.830539 0.506365 0
M  V30 37 H 3.558190 -4.318870 -0.862260 0
M  V30 38 H 4.023898 -3.464932 0.618133 0
M  V30 39 H 5.321147 -1.844654 -0.566449 0
M  V30 40 H 5.407877 -3.149995 -1.743907 0
M  V30 41 H 4.883751 -1.074543 -2.772213 0
M  V30 42 H 3.626267 -2.302267 -3.064124 0
M  V30 43 H 3.394199 0.394429 -1.762088 0
M  V30 44 H 2.110923 -0.650024 -2.377508 0
M  V30 END ATOM
M  V30 BEGIN BOND
M  V30 1 1 1 2
M  V30 2 1 2 3
M  V30 3 2 3 4
M  V30 4 1 4 5
M  V30 5 1 5 6
M  V30 6 1 6 7
M  V30 7 1 7 8
M  V30 8 1 8 9
M  V30 9 2 9 10
M  V30 10 1 10 11
M  V30 11 2 11 12
M  V30 12 1 12 13
M  V30 13 2 13 14
M  V30 14 2 6 15
M  V30 15 1 15 16
M  V30 16 1 16 17
M  V30 17 1 17 18
M  V30 18 1 18 19
M  V30 19 1 19 20
M  V30 20 1 20 21
M  V30 21 1 21 22
M  V30 22 2 16 23
M  V30 23 1 23 24
M  V30 24 2 24 2
M  V30 25 1 24 5
M  V30 26 1 14 9
M  V30 27 1 22 17
M  V30 28 1 3 25
M  V30 29 1 7 26
M  V30 30 1 8 27
M  V30 31 1 8 28
M  V30 32 1 10 29
M  V30 33 1 11 30
M  V30 34 1 12 31
M  V30 35 1 14 32
M  V30 36 1 15 33
M  V30 37 1 17 34
M  V30 38 1 18 35
M  V30 39 1 18 36
M  V30 40 1 19 37
M  V30 41 1 19 38
M  V30 42 1 20 39
M  V30 43 1 20 40
M  V30 44 1 21 41
M  V30 45 1 21 42
M  V30 46 1 22 43
M  V30 47 1 22 44
M  V30 END BOND
M  V30 END CTAB
M  END
>  <Dataset>  (637) 
ChEMBL_Kinases

>  <Ligand_Instance>  (637) 
nan

>  <PDB_ID>  (637) 
nan

>  <Standardized_SMILES>  (637) 
Brc1cnn2c(NCc3cccnc3)cc(C3CCCCC3)nc12

>  <Name>  (637) 
nan

>  <Pocket>  (637) 
nan

>  <ATP_Site>  (637) 
nan

>  <Peripheral>  (637) 
nan

>  <Num_H_Atoms_ProtBoundConf>  (637) 
nan

>  <Num_Resolved_Atoms>  (637) 
nan

>  <Num_Not_Resolved_Atoms>  (637) 
nan

$$$$
CHEMBL251469
     RDKit          3D

  0  0  0  0  0  0  0  0  0  0999 V3000
M  V30 BEGIN CTAB
M  V30 COUNTS 40 42 0 0 0
M  V30 BEGIN ATOM
M  V30 1 C 1.236804 -3.107943 1.491524 0
M  V30 2 C 0.964511 -3.544350 0.092888 0
M  V30 3 C 0.184648 -4.850027 0.120192 0
M  V30 4 C 2.172589 -3.732524 -0.764322 0
M  V30 5 N 2.978880 -2.541181 -0.933951 0
M  V30 6 C 2.007766 -1.625519 -1.446704 0
M  V30 7 N 1.598290 -1.529492 -2.731449 0
M  V30 8 C 0.653962 -0.604249 -3.074617 0
M  V30 9 C 0.138347 0.221241 -2.075602 0
M  V30 10 C 0.563868 0.114466 -0.770197 0
M  V30 11 C 0.048114 0.963901 0.292230 0
M  V30 12 C -0.912242 1.949019 0.144447 0
M  V30 13 C -1.078648 2.476073 1.411027 0
M  V30 14 C -0.252705 1.842383 2.314147 0
M  V30 15 N 0.410890 0.932271 1.582456 0
M  V30 16 C -0.275444 2.255959 3.725655 0
M  V30 17 C -1.617872 2.843358 4.133043 0
M  V30 18 N -1.969883 3.941284 3.222265 0
M  V30 19 C -1.968356 3.549373 1.833378 0
M  V30 20 O -2.757068 4.175951 1.046588 0
M  V30 21 N 1.492903 -0.821029 -0.524904 0
M  V30 22 H 0.573815 -2.225149 1.727677 0
M  V30 23 H 0.929343 -3.898310 2.230095 0
M  V30 24 H 2.293478 -2.798776 1.663861 0
M  V30 25 H 0.288768 -2.839070 -0.476947 0
M  V30 26 H -0.847350 -4.552623 0.465540 0
M  V30 27 H 0.680536 -5.511387 0.845840 0
M  V30 28 H 0.141844 -5.317508 -0.884036 0
M  V30 29 H 2.855565 -4.532419 -0.362859 0
M  V30 30 H 1.864118 -4.097001 -1.762102 0
M  V30 31 H 4.013029 -2.506953 -0.697049 0
M  V30 32 H 0.345450 -0.549296 -4.103587 0
M  V30 33 H -0.617293 0.962796 -2.341025 0
M  V30 34 H -1.408286 2.228345 -0.764255 0
M  V30 35 H 1.128490 0.270463 1.954466 0
M  V30 36 H -0.061901 1.402932 4.396762 0
M  V30 37 H 0.491340 3.062586 3.918334 0
M  V30 38 H -1.508580 3.190812 5.180535 0
M  V30 39 H -2.373762 2.035421 4.121990 0
M  V30 40 H -2.204476 4.917729 3.504494 0
M  V30 END ATOM
M  V30 BEGIN BOND
M  V30 1 1 1 2
M  V30 2 1 2 3
M  V30 3 1 2 4
M  V30 4 1 4 5
M  V30 5 1 5 6
M  V30 6 2 6 7
M  V30 7 1 7 8
M  V30 8 2 8 9
M  V30 9 1 9 10
M  V30 10 1 10 11
M  V30 11 2 11 12
M  V30 12 1 12 13
M  V30 13 2 13 14
M  V30 14 1 14 15
M  V30 15 1 14 16
M  V30 16 1 16 17
M  V30 17 1 17 18
M  V30 18 1 18 19
M  V30 19 2 19 20
M  V30 20 2 10 21
M  V30 21 1 21 6
M  V30 22 1 15 11
M  V30 23 1 19 13
M  V30 24 1 1 22
M  V30 25 1 1 23
M  V30 26 1 1 24
M  V30 27 1 2 25
M  V30 28 1 3 26
M  V30 29 1 3 27
M  V30 30 1 3 28
M  V30 31 1 4 29
M  V30 32 1 4 30
M  V30 33 1 5 31
M  V30 34 1 8 32
M  V30 35 1 9 33
M  V30 36 1 12 34
M  V30 37 1 15 35
M  V30 38 1 16 36
M  V30 39 1 16 37
M  V30 40 1 17 38
M  V30 41 1 17 39
M  V30 42 1 18 40
M  V30 END BOND
M  V30 END CTAB
M  END
>  <Dataset>  (638) 
ChEMBL_Kinases

>  <Ligand_Instance>  (638) 
nan

>  <PDB_ID>  (638) 
nan

>  <Standardized_SMILES>  (638) 
CC(C)CNc1nccc(-c2cc3c([nH]2)CCNC3=O)n1

>  <Name>  (638) 
nan

>  <Pocket>  (638) 
nan

>  <ATP_Site>  (638) 
nan

>  <Peripheral>  (638) 
nan

>  <Num_H_Atoms_ProtBoundConf>  (638) 
nan

>  <Num_Resolved_Atoms>  (638) 
nan

>  <Num_Not_Resolved_Atoms>  (638) 
nan

$$$$
CHEMBL251472
     RDKit          3D

  0  0  0  0  0  0  0  0  0  0999 V3000
M  V30 BEGIN CTAB
M  V30 COUNTS 47 50 0 0 0
M  V30 BEGIN ATOM
M  V30 1 O -1.119134 -4.118410 2.337659 0
M  V30 2 C -0.332119 -4.456988 1.405383 0
M  V30 3 N 0.175129 -5.768705 1.230885 0
M  V30 4 C 0.533997 -6.157522 -0.107682 0
M  V30 5 C 1.450959 -5.125141 -0.749666 0
M  V30 6 C 0.903393 -3.759039 -0.537974 0
M  V30 7 N 1.160590 -2.669524 -1.306763 0
M  V30 8 C 0.508623 -1.604188 -0.838956 0
M  V30 9 C 0.377375 -0.201399 -1.190061 0
M  V30 10 C 1.108234 0.212304 -2.286620 0
M  V30 11 C 1.156759 1.508702 -2.808741 0
M  V30 12 N 0.386009 2.411084 -2.126451 0
M  V30 13 C -0.331986 2.007881 -1.051287 0
M  V30 14 N -1.137909 2.925164 -0.316952 0
M  V30 15 C -0.573200 3.531184 0.891007 0
M  V30 16 C -0.304132 2.392972 1.848691 0
M  V30 17 C 0.300392 2.882786 3.172282 0
M  V30 18 C 0.939639 1.634333 3.773151 0
M  V30 19 C 0.089339 0.420522 3.572864 0
M  V30 20 C -1.340180 0.702186 3.263903 0
M  V30 21 C -1.601038 1.736481 2.228047 0
M  V30 22 N -0.348745 0.748676 -0.583775 0
M  V30 23 C -0.184194 -2.044114 0.266668 0
M  V30 24 C 0.034595 -3.380829 0.489230 0
M  V30 25 H 0.253808 -6.364369 2.078430 0
M  V30 26 H -0.407928 -6.253474 -0.719385 0
M  V30 27 H 1.099298 -7.133439 -0.142424 0
M  V30 28 H 1.503050 -5.346387 -1.838594 0
M  V30 29 H 2.454123 -5.254249 -0.329024 0
M  V30 30 H 1.759926 -2.535470 -2.155989 0
M  V30 31 H 1.734807 -0.497718 -2.846326 0
M  V30 32 H 1.757616 1.744005 -3.673557 0
M  V30 33 H -2.111563 3.170634 -0.620224 0
M  V30 34 H -1.316995 4.186335 1.364929 0
M  V30 35 H 0.338011 4.105695 0.690014 0
M  V30 36 H 0.448510 1.730257 1.419727 0
M  V30 37 H -0.531604 3.165320 3.847581 0
M  V30 38 H 1.017397 3.688914 3.024489 0
M  V30 39 H 1.296613 1.789540 4.809274 0
M  V30 40 H 1.867277 1.460483 3.154303 0
M  V30 41 H 0.087087 -0.143805 4.552675 0
M  V30 42 H 0.501720 -0.306379 2.827092 0
M  V30 43 H -1.961178 0.889680 4.184592 0
M  V30 44 H -1.760181 -0.264072 2.848734 0
M  V30 45 H -2.218165 1.393640 1.382515 0
M  V30 46 H -2.217725 2.554646 2.705333 0
M  V30 47 H -0.856214 -1.552478 0.982587 0
M  V30 END ATOM
M  V30 BEGIN BOND
M  V30 1 2 1 2
M  V30 2 1 2 3
M  V30 3 1 3 4
M  V30 4 1 4 5
M  V30 5 1 5 6
M  V30 6 1 6 7
M  V30 7 1 7 8
M  V30 8 1 8 9
M  V30 9 2 9 10
M  V30 10 1 10 11
M  V30 11 2 11 12
M  V30 12 1 12 13
M  V30 13 1 13 14
M  V30 14 1 14 15
M  V30 15 1 15 16
M  V30 16 1 16 17
M  V30 17 1 17 18
M  V30 18 1 18 19
M  V30 19 1 19 20
M  V30 20 1 20 21
M  V30 21 2 13 22
M  V30 22 2 8 23
M  V30 23 1 23 24
M  V30 24 1 24 2
M  V30 25 2 24 6
M  V30 26 1 22 9
M  V30 27 1 21 16
M  V30 28 1 3 25
M  V30 29 1 4 26
M  V30 30 1 4 27
M  V30 31 1 5 28
M  V30 32 1 5 29
M  V30 33 1 7 30
M  V30 34 1 10 31
M  V30 35 1 11 32
M  V30 36 1 14 33
M  V30 37 1 15 34
M  V30 38 1 15 35
M  V30 39 1 16 36
M  V30 40 1 17 37
M  V30 41 1 17 38
M  V30 42 1 18 39
M  V30 43 1 18 40
M  V30 44 1 19 41
M  V30 45 1 19 42
M  V30 46 1 20 43
M  V30 47 1 20 44
M  V30 48 1 21 45
M  V30 49 1 21 46
M  V30 50 1 23 47
M  V30 END BOND
M  V30 END CTAB
M  END
>  <Dataset>  (639) 
ChEMBL_Kinases

>  <Ligand_Instance>  (639) 
nan

>  <PDB_ID>  (639) 
nan

>  <Standardized_SMILES>  (639) 
O=C1NCCc2[nH]c(-c3ccnc(NCC4CCCCC4)n3)cc21

>  <Name>  (639) 
nan

>  <Pocket>  (639) 
nan

>  <ATP_Site>  (639) 
nan

>  <Peripheral>  (639) 
nan

>  <Num_H_Atoms_ProtBoundConf>  (639) 
nan

>  <Num_Resolved_Atoms>  (639) 
nan

>  <Num_Not_Resolved_Atoms>  (639) 
nan

$$$$
CHEMBL251549
     RDKit          3D

  0  0  0  0  0  0  0  0  0  0999 V3000
M  V30 BEGIN CTAB
M  V30 COUNTS 41 44 0 0 0
M  V30 BEGIN ATOM
M  V30 1 N 3.330828 -6.715930 0.614878 0
M  V30 2 C 2.715520 -5.807889 -0.291661 0
M  V30 3 O 2.361462 -6.284378 -1.400355 0
M  V30 4 C 2.510940 -4.385608 0.067192 0
M  V30 5 C 2.905255 -3.866830 1.280955 0
M  V30 6 C 2.682714 -2.533973 1.557101 0
M  V30 7 C 2.065186 -1.788959 0.576883 0
M  V30 8 C 1.639593 -2.220924 -0.657334 0
M  V30 9 N 0.997827 -1.475242 -1.645284 0
M  V30 10 C 0.494265 -0.152039 -1.559999 0
M  V30 11 N -0.088311 0.396150 -2.641911 0
M  V30 12 C -0.615168 1.624602 -2.687305 0
M  V30 13 C -0.569949 2.405672 -1.555124 0
M  V30 14 C 0.030827 1.825427 -0.459390 0
M  V30 15 N 0.193384 2.414459 0.852775 0
M  V30 16 C -0.630161 2.145012 1.976649 0
M  V30 17 C 0.129261 1.620157 2.997642 0
M  V30 18 C -0.448368 1.258890 4.218223 0
M  V30 19 C -1.819409 1.445213 4.374018 0
M  V30 20 C -2.591722 1.973033 3.350710 0
M  V30 21 N -3.875543 2.287640 3.128737 0
M  V30 22 N -4.058700 2.787501 1.903123 0
M  V30 23 C -2.862291 2.822232 1.250346 0
M  V30 24 C -1.976428 2.313679 2.167143 0
M  V30 25 N 0.548218 0.592623 -0.449168 0
M  V30 26 C 1.898694 -3.577071 -0.863847 0
M  V30 27 H 4.290033 -7.107611 0.494967 0
M  V30 28 H 2.895130 -7.092770 1.499325 0
M  V30 29 H 3.385662 -4.500377 2.009970 0
M  V30 30 H 2.982477 -2.088618 2.509248 0
M  V30 31 H 1.916391 -0.752936 0.838872 0
M  V30 32 H 0.871630 -1.962303 -2.584658 0
M  V30 33 H -1.080894 2.066546 -3.546930 0
M  V30 34 H -0.939770 3.409851 -1.405053 0
M  V30 35 H 0.996130 3.102392 0.977658 0
M  V30 36 H 1.208496 1.421133 3.014020 0
M  V30 37 H 0.085308 0.844349 5.055309 0
M  V30 38 H -2.329003 1.185739 5.296467 0
M  V30 39 H -4.625537 2.141629 3.862080 0
M  V30 40 H -2.672929 3.172347 0.247715 0
M  V30 41 H 1.601786 -4.038869 -1.818906 0
M  V30 END ATOM
M  V30 BEGIN BOND
M  V30 1 1 1 2
M  V30 2 2 2 3
M  V30 3 1 2 4
M  V30 4 2 4 5
M  V30 5 1 5 6
M  V30 6 2 6 7
M  V30 7 1 7 8
M  V30 8 1 8 9
M  V30 9 1 9 10
M  V30 10 2 10 11
M  V30 11 1 11 12
M  V30 12 2 12 13
M  V30 13 1 13 14
M  V30 14 1 14 15
M  V30 15 1 15 16
M  V30 16 2 16 17
M  V30 17 1 17 18
M  V30 18 2 18 19
M  V30 19 1 19 20
M  V30 20 1 20 21
M  V30 21 1 21 22
M  V30 22 2 22 23
M  V30 23 1 23 24
M  V30 24 2 14 25
M  V30 25 2 8 26
M  V30 26 1 26 4
M  V30 27 1 25 10
M  V30 28 1 24 16
M  V30 29 2 24 20
M  V30 30 1 1 27
M  V30 31 1 1 28
M  V30 32 1 5 29
M  V30 33 1 6 30
M  V30 34 1 7 31
M  V30 35 1 9 32
M  V30 36 1 12 33
M  V30 37 1 13 34
M  V30 38 1 15 35
M  V30 39 1 17 36
M  V30 40 1 18 37
M  V30 41 1 19 38
M  V30 42 1 21 39
M  V30 43 1 23 40
M  V30 44 1 26 41
M  V30 END BOND
M  V30 END CTAB
M  END
>  <Dataset>  (640) 
ChEMBL_Kinases

>  <Ligand_Instance>  (640) 
nan

>  <PDB_ID>  (640) 
nan

>  <Standardized_SMILES>  (640) 
NC(=O)c1cccc(Nc2nccc(Nc3cccc4[nH]ncc34)n2)c1

>  <Name>  (640) 
GW782612X

>  <Pocket>  (640) 
nan

>  <ATP_Site>  (640) 
nan

>  <Peripheral>  (640) 
nan

>  <Num_H_Atoms_ProtBoundConf>  (640) 
nan

>  <Num_Resolved_Atoms>  (640) 
nan

>  <Num_Not_Resolved_Atoms>  (640) 
nan

$$$$
CHEMBL253545
     RDKit          3D

  0  0  0  0  0  0  0  0  0  0999 V3000
M  V30 BEGIN CTAB
M  V30 COUNTS 27 29 0 0 0
M  V30 BEGIN ATOM
M  V30 1 O 1.751555 -4.009685 1.213156 0
M  V30 2 C 1.003828 -3.207499 1.867430 0
M  V30 3 N 0.476924 -3.535735 3.168191 0
M  V30 4 C -0.813626 -2.942294 3.462805 0
M  V30 5 C -0.685449 -1.435718 3.391711 0
M  V30 6 C -0.153973 -1.080225 2.049709 0
M  V30 7 N -0.333039 0.040181 1.331050 0
M  V30 8 C 0.315438 -0.014019 0.158203 0
M  V30 9 C 0.435288 0.924454 -0.952970 0
M  V30 10 C 1.168410 0.674967 -2.101470 0
M  V30 11 C 1.258544 1.572184 -3.117611 0
M  V30 12 N 0.640563 2.759944 -3.071163 0
M  V30 13 C -0.096337 3.082689 -1.984616 0
M  V30 14 C -0.174753 2.159937 -0.966514 0
M  V30 15 F -0.928495 2.550370 0.088005 0
M  V30 16 C 0.950426 -1.250112 0.125386 0
M  V30 17 C 0.655474 -1.907829 1.302283 0
M  V30 18 H 1.085539 -4.171983 3.765746 0
M  V30 19 H -1.129223 -3.254402 4.494728 0
M  V30 20 H -1.562241 -3.289246 2.716966 0
M  V30 21 H -1.682032 -0.955673 3.516917 0
M  V30 22 H 0.034990 -1.091858 4.161343 0
M  V30 23 H -0.893272 0.852792 1.622095 0
M  V30 24 H 1.691468 -0.285117 -2.183419 0
M  V30 25 H 1.856897 1.294330 -3.984992 0
M  V30 26 H -0.592157 4.040081 -1.951534 0
M  V30 27 H 1.564911 -1.664896 -0.643204 0
M  V30 END ATOM
M  V30 BEGIN BOND
M  V30 1 2 1 2
M  V30 2 1 2 3
M  V30 3 1 3 4
M  V30 4 1 4 5
M  V30 5 1 5 6
M  V30 6 1 6 7
M  V30 7 1 7 8
M  V30 8 1 8 9
M  V30 9 2 9 10
M  V30 10 1 10 11
M  V30 11 2 11 12
M  V30 12 1 12 13
M  V30 13 2 13 14
M  V30 14 1 14 15
M  V30 15 2 8 16
M  V30 16 1 16 17
M  V30 17 1 17 2
M  V30 18 2 17 6
M  V30 19 1 14 9
M  V30 20 1 3 18
M  V30 21 1 4 19
M  V30 22 1 4 20
M  V30 23 1 5 21
M  V30 24 1 5 22
M  V30 25 1 7 23
M  V30 26 1 10 24
M  V30 27 1 11 25
M  V30 28 1 13 26
M  V30 29 1 16 27
M  V30 END BOND
M  V30 END CTAB
M  END
>  <Dataset>  (641) 
ChEMBL_Kinases

>  <Ligand_Instance>  (641) 
nan

>  <PDB_ID>  (641) 
nan

>  <Standardized_SMILES>  (641) 
O=C1NCCc2[nH]c(-c3ccncc3F)cc21

>  <Name>  (641) 
nan

>  <Pocket>  (641) 
nan

>  <ATP_Site>  (641) 
nan

>  <Peripheral>  (641) 
nan

>  <Num_H_Atoms_ProtBoundConf>  (641) 
nan

>  <Num_Resolved_Atoms>  (641) 
nan

>  <Num_Not_Resolved_Atoms>  (641) 
nan

$$$$
CHEMBL251589
     RDKit          3D

  0  0  0  0  0  0  0  0  0  0999 V3000
M  V30 BEGIN CTAB
M  V30 COUNTS 61 64 0 0 0
M  V30 BEGIN ATOM
M  V30 1 C 1.861563 -1.267343 3.576354 0
M  V30 2 C 2.987885 -0.493718 4.228518 0
M  V30 3 C 2.973228 0.908821 3.692270 0
M  V30 4 C 3.170021 0.865603 2.175891 0
M  V30 5 C 3.149849 2.310549 1.670576 0
M  V30 6 N 3.326046 2.386267 0.255287 0
M  V30 7 C 2.428101 1.778096 -0.679555 0
M  V30 8 N 2.599768 1.843528 -2.016108 0
M  V30 9 C 1.782357 1.289005 -2.911723 0
M  V30 10 C 0.676924 0.595622 -2.434839 0
M  V30 11 C 0.470762 0.509357 -1.061321 0
M  V30 12 C -0.707126 -0.234236 -0.699044 0
M  V30 13 C -1.996552 0.152548 -1.063699 0
M  V30 14 C -2.442534 1.320669 -1.846855 0
M  V30 15 C -3.131553 1.271382 -3.042761 0
M  V30 16 C -3.488495 2.452372 -3.672362 0
M  V30 17 C -3.165207 3.675114 -3.121337 0
M  V30 18 F -3.536152 4.806956 -3.774960 0
M  V30 19 C -2.472024 3.771208 -1.918564 0
M  V30 20 C -2.124527 2.565743 -1.305098 0
M  V30 21 N -2.809739 -0.785253 -0.543266 0
M  V30 22 C -2.110934 -1.725338 0.118075 0
M  V30 23 C -2.518626 -2.857372 0.799555 0
M  V30 24 C -1.596411 -3.687028 1.411935 0
M  V30 25 C -1.925369 -4.904345 2.154835 0
M  V30 26 N -1.961450 -6.109095 1.381967 0
M  V30 27 C -2.919338 -6.083139 0.321756 0
M  V30 28 C -0.688241 -6.654141 1.033329 0
M  V30 29 C -0.270489 -3.290885 1.282912 0
M  V30 30 C 0.113542 -2.156603 0.597789 0
M  V30 31 N -0.817330 -1.370369 0.012138 0
M  V30 32 N 1.352926 1.103231 -0.230757 0
M  V30 33 H 1.488095 -2.089166 4.238786 0
M  V30 34 H 1.068322 -0.540074 3.319555 0
M  V30 35 H 2.218769 -1.746047 2.639165 0
M  V30 36 H 3.980287 -0.948099 4.015337 0
M  V30 37 H 2.848692 -0.485089 5.324137 0
M  V30 38 H 3.804124 1.455431 4.178324 0
M  V30 39 H 2.028598 1.384413 3.979097 0
M  V30 40 H 2.440711 0.221522 1.690135 0
M  V30 41 H 4.188568 0.449829 2.024223 0
M  V30 42 H 2.231570 2.826624 2.033580 0
M  V30 43 H 4.026477 2.785819 2.157150 0
M  V30 44 H 4.145807 2.906545 -0.179471 0
M  V30 45 H 1.953884 1.363537 -3.977737 0
M  V30 46 H 0.029589 0.154972 -3.192249 0
M  V30 47 H -3.357109 0.274759 -3.425487 0
M  V30 48 H -4.026688 2.324153 -4.605983 0
M  V30 49 H -2.224954 4.726281 -1.497681 0
M  V30 50 H -1.580684 2.706404 -0.362156 0
M  V30 51 H -3.550011 -3.108110 0.863621 0
M  V30 52 H -2.917652 -4.778373 2.675748 0
M  V30 53 H -1.196085 -4.999238 2.980711 0
M  V30 54 H -3.337054 -7.108478 0.099534 0
M  V30 55 H -2.467430 -5.684376 -0.624874 0
M  V30 56 H -3.794679 -5.484476 0.636896 0
M  V30 57 H -0.475670 -6.634802 -0.065943 0
M  V30 58 H 0.151122 -6.196564 1.619176 0
M  V30 59 H -0.620303 -7.748607 1.302552 0
M  V30 60 H 0.561634 -3.833253 1.704071 0
M  V30 61 H 1.143378 -1.843356 0.494279 0
M  V30 END ATOM
M  V30 BEGIN BOND
M  V30 1 1 1 2
M  V30 2 1 2 3
M  V30 3 1 3 4
M  V30 4 1 4 5
M  V30 5 1 5 6
M  V30 6 1 6 7
M  V30 7 2 7 8
M  V30 8 1 8 9
M  V30 9 2 9 10
M  V30 10 1 10 11
M  V30 11 1 11 12
M  V30 12 2 12 13
M  V30 13 1 13 14
M  V30 14 2 14 15
M  V30 15 1 15 16
M  V30 16 2 16 17
M  V30 17 1 17 18
M  V30 18 1 17 19
M  V30 19 2 19 20
M  V30 20 1 13 21
M  V30 21 2 21 22
M  V30 22 1 22 23
M  V30 23 2 23 24
M  V30 24 1 24 25
M  V30 25 1 25 26
M  V30 26 1 26 27
M  V30 27 1 26 28
M  V30 28 1 24 29
M  V30 29 2 29 30
M  V30 30 1 30 31
M  V30 31 2 11 32
M  V30 32 1 32 7
M  V30 33 1 31 12
M  V30 34 1 20 14
M  V30 35 1 31 22
M  V30 36 1 1 33
M  V30 37 1 1 34
M  V30 38 1 1 35
M  V30 39 1 2 36
M  V30 40 1 2 37
M  V30 41 1 3 38
M  V30 42 1 3 39
M  V30 43 1 4 40
M  V30 44 1 4 41
M  V30 45 1 5 42
M  V30 46 1 5 43
M  V30 47 1 6 44
M  V30 48 1 9 45
M  V30 49 1 10 46
M  V30 50 1 15 47
M  V30 51 1 16 48
M  V30 52 1 19 49
M  V30 53 1 20 50
M  V30 54 1 23 51
M  V30 55 1 25 52
M  V30 56 1 25 53
M  V30 57 1 27 54
M  V30 58 1 27 55
M  V30 59 1 27 56
M  V30 60 1 28 57
M  V30 61 1 28 58
M  V30 62 1 28 59
M  V30 63 1 29 60
M  V30 64 1 30 61
M  V30 END BOND
M  V30 END CTAB
M  END
>  <Dataset>  (642) 
ChEMBL_Kinases

>  <Ligand_Instance>  (642) 
nan

>  <PDB_ID>  (642) 
nan

>  <Standardized_SMILES>  (642) 
CCCCCNc1nccc(-c2c(-c3ccc(F)cc3)nc3cc(CN(C)C)ccn23)n1

>  <Name>  (642) 
nan

>  <Pocket>  (642) 
nan

>  <ATP_Site>  (642) 
nan

>  <Peripheral>  (642) 
nan

>  <Num_H_Atoms_ProtBoundConf>  (642) 
nan

>  <Num_Resolved_Atoms>  (642) 
nan

>  <Num_Not_Resolved_Atoms>  (642) 
nan

$$$$
CHEMBL251601
     RDKit          3D

  0  0  0  0  0  0  0  0  0  0999 V3000
M  V30 BEGIN CTAB
M  V30 COUNTS 43 46 0 0 0
M  V30 BEGIN ATOM
M  V30 1 Br -0.817062 -5.043323 3.234744 0
M  V30 2 C 0.201452 -4.239412 1.833197 0
M  V30 3 C 0.857060 -4.957299 0.856696 0
M  V30 4 N 1.430271 -4.009507 0.097133 0
M  V30 5 N 1.149973 -2.804109 0.568468 0
M  V30 6 C 1.526684 -1.571442 0.106861 0
M  V30 7 N 2.347888 -1.417567 -1.035849 0
M  V30 8 C 2.875883 -0.307387 -1.792845 0
M  V30 9 C 1.856880 0.493480 -2.476028 0
M  V30 10 C 1.515953 -0.047516 -3.722451 0
M  V30 11 C 0.572852 0.585994 -4.520231 0
M  V30 12 C -0.071202 1.752920 -4.151378 0
M  V30 13 N 0.281895 2.249696 -2.939764 0
M  V30 14 C 1.190941 1.652629 -2.154849 0
M  V30 15 C 1.061825 -0.494347 0.833910 0
M  V30 16 C 0.266983 -0.540856 1.961669 0
M  V30 17 C -0.194384 0.670941 2.689720 0
M  V30 18 C -1.682684 0.638820 2.741788 0
M  V30 19 C -2.276761 0.001751 3.939440 0
M  V30 20 C -1.366993 -0.184137 5.108011 0
M  V30 21 N -0.000501 -0.475556 4.741963 0
M  V30 22 C 0.485067 0.699540 4.038585 0
M  V30 23 N -0.062507 -1.805994 2.354104 0
M  V30 24 C 0.379542 -2.879141 1.660630 0
M  V30 25 H 0.877580 -6.038718 0.762025 0
M  V30 26 H 2.657103 -2.341056 -1.448505 0
M  V30 27 H 3.690295 -0.609611 -2.466994 0
M  V30 28 H 3.385134 0.352920 -1.030014 0
M  V30 29 H 1.938267 -0.962385 -4.149427 0
M  V30 30 H 0.273710 0.204003 -5.498003 0
M  V30 31 H -0.803082 2.292150 -4.711956 0
M  V30 32 H 1.484110 2.048496 -1.194655 0
M  V30 33 H 1.312007 0.517946 0.551781 0
M  V30 34 H 0.205928 1.556525 2.135207 0
M  V30 35 H -2.052574 0.082831 1.832661 0
M  V30 36 H -2.047317 1.678747 2.582084 0
M  V30 37 H -2.702741 -1.020486 3.709736 0
M  V30 38 H -3.150221 0.600021 4.273541 0
M  V30 39 H -1.690143 -1.034205 5.748585 0
M  V30 40 H -1.345331 0.709986 5.766901 0
M  V30 41 H 0.528748 -0.593756 5.631512 0
M  V30 42 H 0.313041 1.640378 4.574148 0
M  V30 43 H 1.571400 0.568653 3.846638 0
M  V30 END ATOM
M  V30 BEGIN BOND
M  V30 1 1 1 2
M  V30 2 1 2 3
M  V30 3 2 3 4
M  V30 4 1 4 5
M  V30 5 1 5 6
M  V30 6 1 6 7
M  V30 7 1 7 8
M  V30 8 1 8 9
M  V30 9 2 9 10
M  V30 10 1 10 11
M  V30 11 2 11 12
M  V30 12 1 12 13
M  V30 13 2 13 14
M  V30 14 2 6 15
M  V30 15 1 15 16
M  V30 16 1 16 17
M  V30 17 1 17 18
M  V30 18 1 18 19
M  V30 19 1 19 20
M  V30 20 1 20 21
M  V30 21 1 21 22
M  V30 22 2 16 23
M  V30 23 1 23 24
M  V30 24 2 24 2
M  V30 25 1 24 5
M  V30 26 1 14 9
M  V30 27 1 22 17
M  V30 28 1 3 25
M  V30 29 1 7 26
M  V30 30 1 8 27
M  V30 31 1 8 28
M  V30 32 1 10 29
M  V30 33 1 11 30
M  V30 34 1 12 31
M  V30 35 1 14 32
M  V30 36 1 15 33
M  V30 37 1 17 34
M  V30 38 1 18 35
M  V30 39 1 18 36
M  V30 40 1 19 37
M  V30 41 1 19 38
M  V30 42 1 20 39
M  V30 43 1 20 40
M  V30 44 1 21 41
M  V30 45 1 22 42
M  V30 46 1 22 43
M  V30 END BOND
M  V30 END CTAB
M  END
>  <Dataset>  (643) 
ChEMBL_Kinases

>  <Ligand_Instance>  (643) 
nan

>  <PDB_ID>  (643) 
nan

>  <Standardized_SMILES>  (643) 
Brc1cnn2c(NCc3cccnc3)cc(C3CCCNC3)nc12

>  <Name>  (643) 
nan

>  <Pocket>  (643) 
nan

>  <ATP_Site>  (643) 
nan

>  <Peripheral>  (643) 
nan

>  <Num_H_Atoms_ProtBoundConf>  (643) 
nan

>  <Num_Resolved_Atoms>  (643) 
nan

>  <Num_Not_Resolved_Atoms>  (643) 
nan

$$$$
CHEMBL251785
     RDKit          3D

  0  0  0  0  0  0  0  0  0  0999 V3000
M  V30 BEGIN CTAB
M  V30 COUNTS 45 48 0 0 0
M  V30 BEGIN ATOM
M  V30 1 C -2.067891 -4.713485 3.634618 0
M  V30 2 O -1.688695 -4.954867 2.282804 0
M  V30 3 C -1.074235 -3.979402 1.525496 0
M  V30 4 C -0.813696 -2.740550 2.069836 0
M  V30 5 C -0.198667 -1.818325 1.254972 0
M  V30 6 C 0.191253 -1.989778 -0.056907 0
M  V30 7 C 0.826219 -0.941633 -0.865275 0
M  V30 8 N 0.962618 0.222869 -0.267895 0
M  V30 9 N 1.544559 1.307724 -0.892865 0
M  V30 10 C 2.011437 1.235931 -2.157144 0
M  V30 11 N 2.556325 2.384454 -2.521852 0
M  V30 12 N 2.450767 3.232754 -1.488659 0
M  V30 13 C 1.818750 2.556457 -0.479364 0
M  V30 14 C 1.589435 3.235662 0.780673 0
M  V30 15 C 2.350889 4.382480 1.051337 0
M  V30 16 C 2.224756 5.160355 2.180885 0
M  V30 17 C 1.301023 4.831939 3.141486 0
M  V30 18 C 0.540797 3.713926 2.902040 0
M  V30 19 C 0.677585 2.944255 1.765889 0
M  V30 20 O -0.113497 1.832679 1.568945 0
M  V30 21 C -1.062586 1.552770 2.598128 0
M  V30 22 S 1.920015 -0.190158 -3.208588 0
M  V30 23 C 1.166681 -1.502106 -2.214623 0
M  V30 24 C -0.124825 -3.265114 -0.477398 0
M  V30 25 C -0.729403 -4.265299 0.226562 0
M  V30 26 O -0.985797 -5.508475 -0.333180 0
M  V30 27 C -0.600827 -5.726557 -1.677420 0
M  V30 28 H -1.165744 -4.621565 4.272249 0
M  V30 29 H -2.641609 -5.578537 4.007751 0
M  V30 30 H -2.700284 -3.797337 3.674302 0
M  V30 31 H -1.088095 -2.523271 3.092753 0
M  V30 32 H -0.003476 -0.875185 1.734701 0
M  V30 33 H 3.120215 4.762843 0.382644 0
M  V30 34 H 2.824623 6.037334 2.364410 0
M  V30 35 H 1.149129 5.394263 4.048280 0
M  V30 36 H -0.191260 3.444428 3.651796 0
M  V30 37 H -1.705581 0.694366 2.368060 0
M  V30 38 H -1.723447 2.416082 2.782056 0
M  V30 39 H -0.516290 1.326393 3.530428 0
M  V30 40 H 1.917764 -2.308926 -2.097853 0
M  V30 41 H 0.233137 -1.806542 -2.679847 0
M  V30 42 H 0.140100 -3.516913 -1.510865 0
M  V30 43 H -0.729998 -6.798908 -1.961193 0
M  V30 44 H 0.455253 -5.496984 -1.886751 0
M  V30 45 H -1.218594 -5.123053 -2.395275 0
M  V30 END ATOM
M  V30 BEGIN BOND
M  V30 1 1 1 2
M  V30 2 1 2 3
M  V30 3 2 3 4
M  V30 4 1 4 5
M  V30 5 2 5 6
M  V30 6 1 6 7
M  V30 7 2 7 8
M  V30 8 1 8 9
M  V30 9 1 9 10
M  V30 10 2 10 11
M  V30 11 1 11 12
M  V30 12 2 12 13
M  V30 13 1 13 14
M  V30 14 2 14 15
M  V30 15 1 15 16
M  V30 16 2 16 17
M  V30 17 1 17 18
M  V30 18 2 18 19
M  V30 19 1 19 20
M  V30 20 1 20 21
M  V30 21 1 10 22
M  V30 22 1 22 23
M  V30 23 1 6 24
M  V30 24 2 24 25
M  V30 25 1 25 26
M  V30 26 1 26 27
M  V30 27 1 25 3
M  V30 28 1 23 7
M  V30 29 1 13 9
M  V30 30 1 19 14
M  V30 31 1 1 28
M  V30 32 1 1 29
M  V30 33 1 1 30
M  V30 34 1 4 31
M  V30 35 1 5 32
M  V30 36 1 15 33
M  V30 37 1 16 34
M  V30 38 1 17 35
M  V30 39 1 18 36
M  V30 40 1 21 37
M  V30 41 1 21 38
M  V30 42 1 21 39
M  V30 43 1 23 40
M  V30 44 1 23 41
M  V30 45 1 24 42
M  V30 46 1 27 43
M  V30 47 1 27 44
M  V30 48 1 27 45
M  V30 END BOND
M  V30 END CTAB
M  END
>  <Dataset>  (644) 
ChEMBL_Kinases

>  <Ligand_Instance>  (644) 
nan

>  <PDB_ID>  (644) 
nan

>  <Standardized_SMILES>  (644) 
COc1ccc(C2=Nn3c(nnc3-c3ccccc3OC)SC2)cc1OC

>  <Name>  (644) 
nan

>  <Pocket>  (644) 
nan

>  <ATP_Site>  (644) 
nan

>  <Peripheral>  (644) 
nan

>  <Num_H_Atoms_ProtBoundConf>  (644) 
nan

>  <Num_Resolved_Atoms>  (644) 
nan

>  <Num_Not_Resolved_Atoms>  (644) 
nan

$$$$
CHEMBL251940
     RDKit          3D

  0  0  0  0  0  0  0  0  0  0999 V3000
M  V30 BEGIN CTAB
M  V30 COUNTS 49 52 0 0 0
M  V30 BEGIN ATOM
M  V30 1 N 4.277787 -1.703263 2.883131 0
M  V30 2 C 3.476608 -2.210537 2.220852 0
M  V30 3 C 2.500115 -2.841271 1.388004 0
M  V30 4 C 2.744770 -4.125838 0.988469 0
M  V30 5 C 1.823645 -4.742922 0.194882 0
M  V30 6 C 0.688506 -4.083325 -0.184238 0
M  V30 7 C 0.362143 -2.797447 0.167601 0
M  V30 8 C 1.332939 -2.235348 0.967547 0
M  V30 9 N -0.815792 -2.093942 -0.190794 0
M  V30 10 C -0.871684 -0.722580 0.292665 0
M  V30 11 C 0.110716 0.119509 -0.469890 0
M  V30 12 C 0.220135 1.539739 -0.085257 0
M  V30 13 N 0.583271 1.856807 1.254770 0
M  V30 14 C 1.036283 3.270555 1.351487 0
M  V30 15 C 1.432916 3.441095 2.802762 0
M  V30 16 C 1.319960 2.173688 3.618247 0
M  V30 17 O 2.278687 1.268513 3.173942 0
M  V30 18 C -0.061346 1.531455 3.510754 0
M  V30 19 C -0.605171 1.893874 2.153961 0
M  V30 20 C -1.815741 -2.690137 -0.983791 0
M  V30 21 C -2.953173 -1.982439 -1.302488 0
M  V30 22 C -4.009213 -2.466039 -2.064875 0
M  V30 23 C -3.913177 -3.761838 -2.543189 0
M  V30 24 C -2.801686 -4.529216 -2.263690 0
M  V30 25 C -1.831594 -3.950319 -1.508927 0
M  V30 26 S -0.429046 -5.014619 -1.211843 0
M  V30 27 H 3.646605 -4.633689 1.296531 0
M  V30 28 H 2.039985 -5.765991 -0.109609 0
M  V30 29 H 1.264148 -1.225586 1.378830 0
M  V30 30 H -1.848485 -0.245426 0.141353 0
M  V30 31 H -0.665696 -0.792824 1.383510 0
M  V30 32 H -0.373102 0.159086 -1.530003 0
M  V30 33 H 1.080529 -0.365124 -0.702599 0
M  V30 34 H 0.932448 2.043871 -0.789933 0
M  V30 35 H -0.778658 2.030705 -0.272858 0
M  V30 36 H 0.121822 3.877444 1.188790 0
M  V30 37 H 1.858984 3.485742 0.668399 0
M  V30 38 H 0.836137 4.207064 3.334329 0
M  V30 39 H 2.513217 3.724239 2.849504 0
M  V30 40 H 1.519448 2.481347 4.675912 0
M  V30 41 H 2.968565 1.707246 2.623337 0
M  V30 42 H -0.702796 1.923544 4.334268 0
M  V30 43 H 0.047330 0.447077 3.678224 0
M  V30 44 H -0.952870 2.972275 2.261975 0
M  V30 45 H -1.441891 1.318403 1.798417 0
M  V30 46 H -3.151930 -0.968866 -0.995101 0
M  V30 47 H -4.893674 -1.928313 -2.317186 0
M  V30 48 H -4.733517 -4.171100 -3.149165 0
M  V30 49 H -2.774557 -5.532729 -2.661416 0
M  V30 END ATOM
M  V30 BEGIN BOND
M  V30 1 3 1 2
M  V30 2 1 2 3
M  V30 3 2 3 4
M  V30 4 1 4 5
M  V30 5 2 5 6
M  V30 6 1 6 7
M  V30 7 2 7 8
M  V30 8 1 7 9
M  V30 9 1 9 10
M  V30 10 1 10 11
M  V30 11 1 11 12
M  V30 12 1 12 13
M  V30 13 1 13 14
M  V30 14 1 14 15
M  V30 15 1 15 16
M  V30 16 1 16 17
M  V30 17 1 16 18
M  V30 18 1 18 19
M  V30 19 1 9 20
M  V30 20 2 20 21
M  V30 21 1 21 22
M  V30 22 2 22 23
M  V30 23 1 23 24
M  V30 24 2 24 25
M  V30 25 1 25 26
M  V30 26 1 8 3
M  V30 27 1 19 13
M  V30 28 1 25 20
M  V30 29 1 26 6
M  V30 30 1 4 27
M  V30 31 1 5 28
M  V30 32 1 8 29
M  V30 33 1 10 30
M  V30 34 1 10 31
M  V30 35 1 11 32
M  V30 36 1 11 33
M  V30 37 1 12 34
M  V30 38 1 12 35
M  V30 39 1 14 36
M  V30 40 1 14 37
M  V30 41 1 15 38
M  V30 42 1 15 39
M  V30 43 1 16 40
M  V30 44 1 17 41
M  V30 45 1 18 42
M  V30 46 1 18 43
M  V30 47 1 19 44
M  V30 48 1 19 45
M  V30 49 1 21 46
M  V30 50 1 22 47
M  V30 51 1 23 48
M  V30 52 1 24 49
M  V30 END BOND
M  V30 END CTAB
M  END
>  <Dataset>  (645) 
ChEMBL_Kinases

>  <Ligand_Instance>  (645) 
nan

>  <PDB_ID>  (645) 
nan

>  <Standardized_SMILES>  (645) 
N#Cc1ccc2c(c1)N(CCCN1CCC(O)CC1)c1ccccc1S2

>  <Name>  (645) 
PERICIAZINE

>  <Pocket>  (645) 
nan

>  <ATP_Site>  (645) 
nan

>  <Peripheral>  (645) 
nan

>  <Num_H_Atoms_ProtBoundConf>  (645) 
nan

>  <Num_Resolved_Atoms>  (645) 
nan

>  <Num_Not_Resolved_Atoms>  (645) 
nan

$$$$
CHEMBL252128
     RDKit          3D

  0  0  0  0  0  0  0  0  0  0999 V3000
M  V30 BEGIN CTAB
M  V30 COUNTS 50 52 0 0 0
M  V30 BEGIN ATOM
M  V30 1 C -0.134418 -5.134968 2.849441 0
M  V30 2 C 1.292766 -4.711442 3.118987 0
M  V30 3 N 1.551844 -3.533251 2.307510 0
M  V30 4 C 1.407111 -3.761008 0.887207 0
M  V30 5 O 1.091745 -4.851165 0.375025 0
M  V30 6 C 1.678167 -2.542119 0.122704 0
M  V30 7 C 2.862091 -1.906741 -0.161856 0
M  V30 8 N 2.610572 -0.798625 -0.885834 0
M  V30 9 N 3.378271 0.163086 -1.406003 0
M  V30 10 C 2.812318 1.176120 -2.089746 0
M  V30 11 N 1.482229 1.257878 -2.272502 0
M  V30 12 C 0.702108 0.274080 -1.740365 0
M  V30 13 N -0.684831 0.525512 -2.000516 0
M  V30 14 C -1.465180 1.171868 -0.969265 0
M  V30 15 C -0.749488 1.399389 0.178724 0
M  V30 16 C -1.358903 2.043530 1.234771 0
M  V30 17 C -0.744354 2.282528 2.542988 0
M  V30 18 O -0.845199 3.089714 3.477969 0
M  V30 19 N 0.280442 1.321152 2.897703 0
M  V30 20 O 1.212536 0.767242 3.660442 0
M  V30 21 C 2.512101 1.172149 3.463815 0
M  V30 22 C -2.671147 2.440231 1.100094 0
M  V30 23 C -3.394989 2.205083 -0.074231 0
M  V30 24 C -2.763363 1.549631 -1.133003 0
M  V30 25 C -3.460778 1.230923 -2.418526 0
M  V30 26 C 1.279214 -0.759963 -1.042511 0
M  V30 27 C 0.623164 -1.811625 -0.444418 0
M  V30 28 C -0.828374 -2.114344 -0.403010 0
M  V30 29 H -0.766401 -5.050141 3.761275 0
M  V30 30 H -0.592038 -4.475263 2.059275 0
M  V30 31 H -0.180596 -6.167636 2.466151 0
M  V30 32 H 1.380443 -4.522653 4.209239 0
M  V30 33 H 1.951182 -5.518037 2.760896 0
M  V30 34 H 1.815700 -2.619212 2.731213 0
M  V30 35 H 3.828827 -2.266733 0.163306 0
M  V30 36 H 3.465248 1.950002 -2.500978 0
M  V30 37 H -1.066366 0.230451 -2.919151 0
M  V30 38 H 0.278506 1.143566 0.401866 0
M  V30 39 H 0.571925 0.507835 2.275260 0
M  V30 40 H 2.758774 2.048740 4.084278 0
M  V30 41 H 2.771067 1.373123 2.400759 0
M  V30 42 H 3.162953 0.283365 3.754275 0
M  V30 43 H -3.174472 2.945685 1.899386 0
M  V30 44 H -4.423706 2.484744 -0.253771 0
M  V30 45 H -3.088509 0.279011 -2.857255 0
M  V30 46 H -4.553745 1.032239 -2.232897 0
M  V30 47 H -3.409102 2.096297 -3.096429 0
M  V30 48 H -0.958097 -3.225689 -0.332259 0
M  V30 49 H -1.226718 -1.613759 0.509618 0
M  V30 50 H -1.319008 -1.702240 -1.290382 0
M  V30 END ATOM
M  V30 BEGIN BOND
M  V30 1 1 1 2
M  V30 2 1 2 3
M  V30 3 1 3 4
M  V30 4 2 4 5
M  V30 5 1 4 6
M  V30 6 2 6 7
M  V30 7 1 7 8
M  V30 8 1 8 9
M  V30 9 2 9 10
M  V30 10 1 10 11
M  V30 11 2 11 12
M  V30 12 1 12 13
M  V30 13 1 13 14
M  V30 14 2 14 15
M  V30 15 1 15 16
M  V30 16 1 16 17
M  V30 17 2 17 18
M  V30 18 1 17 19
M  V30 19 1 19 20
M  V30 20 1 20 21
M  V30 21 2 16 22
M  V30 22 1 22 23
M  V30 23 2 23 24
M  V30 24 1 24 25
M  V30 25 1 12 26
M  V30 26 2 26 27
M  V30 27 1 27 28
M  V30 28 1 27 6
M  V30 29 1 26 8
M  V30 30 1 24 14
M  V30 31 1 1 29
M  V30 32 1 1 30
M  V30 33 1 1 31
M  V30 34 1 2 32
M  V30 35 1 2 33
M  V30 36 1 3 34
M  V30 37 1 7 35
M  V30 38 1 10 36
M  V30 39 1 13 37
M  V30 40 1 15 38
M  V30 41 1 19 39
M  V30 42 1 21 40
M  V30 43 1 21 41
M  V30 44 1 21 42
M  V30 45 1 22 43
M  V30 46 1 23 44
M  V30 47 1 25 45
M  V30 48 1 25 46
M  V30 49 1 25 47
M  V30 50 1 28 48
M  V30 51 1 28 49
M  V30 52 1 28 50
M  V30 END BOND
M  V30 END CTAB
M  END
>  <Dataset>  (646) 
ChEMBL_Kinases

>  <Ligand_Instance>  (646) 
nan

>  <PDB_ID>  (646) 
nan

>  <Standardized_SMILES>  (646) 
CCNC(=O)c1cn2ncnc(Nc3cc(C(=O)NOC)ccc3C)c2c1C

>  <Name>  (646) 
nan

>  <Pocket>  (646) 
nan

>  <ATP_Site>  (646) 
nan

>  <Peripheral>  (646) 
nan

>  <Num_H_Atoms_ProtBoundConf>  (646) 
nan

>  <Num_Resolved_Atoms>  (646) 
nan

>  <Num_Not_Resolved_Atoms>  (646) 
nan

$$$$
CHEMBL25219
     RDKit          3D

  0  0  0  0  0  0  0  0  0  0999 V3000
M  V30 BEGIN CTAB
M  V30 COUNTS 45 48 0 0 0
M  V30 BEGIN ATOM
M  V30 1 O -2.308452 -3.189670 2.313525 0
M  V30 2 C -1.005399 -2.753073 2.415116 0
M  V30 3 C -0.729629 -1.602711 1.502931 0
M  V30 4 N 0.436971 -1.418279 0.880311 0
M  V30 5 C 0.387054 -0.286110 0.121404 0
M  V30 6 C 1.468241 0.220731 -0.686732 0
M  V30 7 C 2.723438 0.612972 -0.255966 0
M  V30 8 C 3.675244 1.084671 -1.138423 0
M  V30 9 C 3.383836 1.173539 -2.486860 0
M  V30 10 F 4.393644 1.651196 -3.264121 0
M  V30 11 C 2.136586 0.789342 -2.953128 0
M  V30 12 C 1.202878 0.320830 -2.047682 0
M  V30 13 C -0.856086 0.221183 0.299995 0
M  V30 14 C -1.403396 1.423714 -0.294214 0
M  V30 15 C -0.681125 2.548441 0.122501 0
M  V30 16 C -1.016544 3.822875 -0.313850 0
M  V30 17 N -2.061983 3.961797 -1.155801 0
M  V30 18 C -2.768895 2.903609 -1.569384 0
M  V30 19 C -2.461972 1.624989 -1.155018 0
M  V30 20 N -1.526514 -0.591067 1.144305 0
M  V30 21 C -0.656445 -2.420854 3.864516 0
M  V30 22 C 0.688083 -1.738824 3.814352 0
M  V30 23 C 1.763993 -2.581292 3.216878 0
M  V30 24 C 1.347111 -3.682230 2.338486 0
M  V30 25 C -0.092951 -3.923250 2.107521 0
M  V30 26 H -2.763032 -3.329821 3.168918 0
M  V30 27 H 2.864258 0.507330 0.830177 0
M  V30 28 H 4.644320 1.371819 -0.697723 0
M  V30 29 H 1.961169 0.879098 -4.016069 0
M  V30 30 H 0.253507 0.039104 -2.477292 0
M  V30 31 H 0.173344 2.567903 0.791987 0
M  V30 32 H -0.507644 4.723885 -0.034655 0
M  V30 33 H -3.607452 2.970589 -2.238156 0
M  V30 34 H -2.940761 0.687073 -1.405007 0
M  V30 35 H -2.491694 -0.539229 1.518362 0
M  V30 36 H -0.539412 -3.370142 4.419337 0
M  V30 37 H -1.380047 -1.729152 4.323123 0
M  V30 38 H 0.536813 -0.791581 3.252574 0
M  V30 39 H 0.920093 -1.422904 4.862998 0
M  V30 40 H 2.490860 -1.894574 2.727543 0
M  V30 41 H 2.334074 -3.009001 4.093251 0
M  V30 42 H 1.807883 -4.664495 2.659256 0
M  V30 43 H 1.807418 -3.516077 1.318244 0
M  V30 44 H -0.458165 -4.768082 2.742177 0
M  V30 45 H -0.314390 -4.257277 1.060436 0
M  V30 END ATOM
M  V30 BEGIN BOND
M  V30 1 1 1 2
M  V30 2 1 2 3
M  V30 3 2 3 4
M  V30 4 1 4 5
M  V30 5 1 5 6
M  V30 6 2 6 7
M  V30 7 1 7 8
M  V30 8 2 8 9
M  V30 9 1 9 10
M  V30 10 1 9 11
M  V30 11 2 11 12
M  V30 12 2 5 13
M  V30 13 1 13 14
M  V30 14 2 14 15
M  V30 15 1 15 16
M  V30 16 2 16 17
M  V30 17 1 17 18
M  V30 18 2 18 19
M  V30 19 1 13 20
M  V30 20 1 2 21
M  V30 21 1 21 22
M  V30 22 1 22 23
M  V30 23 1 23 24
M  V30 24 1 24 25
M  V30 25 1 25 2
M  V30 26 1 20 3
M  V30 27 1 12 6
M  V30 28 1 19 14
M  V30 29 1 1 26
M  V30 30 1 7 27
M  V30 31 1 8 28
M  V30 32 1 11 29
M  V30 33 1 12 30
M  V30 34 1 15 31
M  V30 35 1 16 32
M  V30 36 1 18 33
M  V30 37 1 19 34
M  V30 38 1 20 35
M  V30 39 1 21 36
M  V30 40 1 21 37
M  V30 41 1 22 38
M  V30 42 1 22 39
M  V30 43 1 23 40
M  V30 44 1 23 41
M  V30 45 1 24 42
M  V30 46 1 24 43
M  V30 47 1 25 44
M  V30 48 1 25 45
M  V30 END BOND
M  V30 END CTAB
M  END
>  <Dataset>  (647) 
ChEMBL_Kinases

>  <Ligand_Instance>  (647) 
nan

>  <PDB_ID>  (647) 
nan

>  <Standardized_SMILES>  (647) 
OC1(c2nc(-c3ccc(F)cc3)c(-c3ccncc3)[nH]2)CCCCC1

>  <Name>  (647) 
nan

>  <Pocket>  (647) 
nan

>  <ATP_Site>  (647) 
nan

>  <Peripheral>  (647) 
nan

>  <Num_H_Atoms_ProtBoundConf>  (647) 
nan

>  <Num_Resolved_Atoms>  (647) 
nan

>  <Num_Not_Resolved_Atoms>  (647) 
nan

$$$$
CHEMBL252520
     RDKit          3D

  0  0  0  0  0  0  0  0  0  0999 V3000
M  V30 BEGIN CTAB
M  V30 COUNTS 88 95 0 0 0
M  V30 BEGIN ATOM
M  V30 1 C 0.984833 -6.588513 0.527933 0
M  V30 2 C 2.080587 -5.727122 0.977128 0
M  V30 3 O 2.296168 -5.563709 2.215247 0
M  V30 4 O 3.020414 -4.982494 0.260611 0
M  V30 5 C 3.970797 -4.237004 0.964158 0
M  V30 6 C 5.179924 -4.774780 1.319507 0
M  V30 7 C 6.085402 -4.002894 2.012194 0
M  V30 8 C 5.798628 -2.699308 2.355017 0
M  V30 9 C 4.578251 -2.176268 1.989194 0
M  V30 10 C 3.645385 -2.936760 1.288167 0
M  V30 11 N 2.592549 -2.140397 1.097923 0
M  V30 12 C 2.768975 -0.922088 1.621741 0
M  V30 13 C 1.899920 0.139066 1.598254 0
M  V30 14 C 0.559747 0.226916 1.078671 0
M  V30 15 C -0.188047 -0.744545 0.607681 0
M  V30 16 C -0.999706 -0.688740 -0.596556 0
M  V30 17 C -1.654186 -1.635740 -1.171686 0
M  V30 18 C -2.466532 -1.588921 -2.374864 0
M  V30 19 C -3.921362 -1.712553 -2.136791 0
M  V30 20 C -4.924881 -1.815790 -1.275555 0
M  V30 21 C -4.528461 -1.813066 0.137536 0
M  V30 22 C -5.170217 -0.667076 0.898036 0
M  V30 23 C -4.631935 -0.527312 2.276591 0
M  V30 24 C -3.187284 -0.277363 2.435261 0
M  V30 25 N -2.549716 0.860499 1.982077 0
M  V30 26 C -1.596545 1.355727 2.929952 0
M  V30 27 C -0.477125 2.129660 2.350352 0
M  V30 28 C -0.088529 1.570489 1.013282 0
M  V30 29 C -1.251290 1.646558 0.100605 0 CFG=1
M  V30 30 C -1.140882 2.940286 -0.674211 0
M  V30 31 C -0.012106 2.658293 -1.688412 0 CFG=2
M  V30 32 C -0.500594 3.119703 -3.018594 0
M  V30 33 C -0.320965 2.906489 -4.339010 0
M  V30 34 C 0.659714 1.902492 -4.896630 0
M  V30 35 C 0.114065 0.529037 -4.638692 0
M  V30 36 C 0.787146 -0.222292 -3.543634 0
M  V30 37 C 1.079722 0.574347 -2.303924 0
M  V30 38 N 0.054703 1.248489 -1.696610 0
M  V30 39 C -1.051749 0.665333 -1.111134 0 CFG=1
M  V30 40 C -2.601549 1.395408 0.712106 0
M  V30 41 N 2.415438 1.242734 2.216252 0
M  V30 42 C 3.631002 1.272485 2.778525 0
M  V30 43 C 4.477487 0.201785 2.790133 0
M  V30 44 C 4.010201 -0.933007 2.181963 0
M  V30 45 H 1.138732 -7.055938 -0.462462 0
M  V30 46 H 0.903515 -7.454664 1.242236 0
M  V30 47 H -0.023516 -6.090684 0.593846 0
M  V30 48 H 5.335492 -5.805065 1.016160 0
M  V30 49 H 7.032735 -4.497109 2.264139 0
M  V30 50 H 6.541601 -2.129118 2.900471 0
M  V30 51 H 1.785241 -2.494844 0.587590 0
M  V30 52 H -0.193534 -1.671088 1.209632 0
M  V30 53 H -1.542006 -2.605294 -0.660147 0
M  V30 54 H -2.316324 -0.675711 -2.988587 0
M  V30 55 H -2.097372 -2.422971 -3.034361 0
M  V30 56 H -4.377368 -1.732679 -3.150875 0
M  V30 57 H -5.957410 -1.897155 -1.536438 0
M  V30 58 H -3.470720 -1.829515 0.344513 0
M  V30 59 H -4.927644 -2.761196 0.622462 0
M  V30 60 H -5.224865 0.287935 0.382464 0
M  V30 61 H -6.274783 -0.992855 0.936656 0
M  V30 62 H -4.828482 -1.526030 2.781097 0
M  V30 63 H -5.272601 0.157905 2.912045 0
M  V30 64 H -2.980279 -0.351201 3.565393 0
M  V30 65 H -2.661222 -1.208745 2.067288 0
M  V30 66 H -1.156409 0.466267 3.439087 0
M  V30 67 H -2.117282 1.904198 3.760208 0
M  V30 68 H -0.734240 3.206490 2.155741 0
M  V30 69 H 0.374289 2.165882 3.063139 0
M  V30 70 H 0.749423 2.259164 0.657589 0
M  V30 71 H -2.095425 3.115967 -1.173856 0
M  V30 72 H -0.882945 3.797387 -0.027433 0
M  V30 73 H 0.906396 3.163269 -1.351840 0
M  V30 74 H -1.270853 3.900149 -2.920328 0
M  V30 75 H -0.962683 3.539467 -4.972049 0
M  V30 76 H 0.748133 2.117675 -5.982343 0
M  V30 77 H 1.658722 2.062668 -4.455511 0
M  V30 78 H 0.252138 -0.088503 -5.574512 0
M  V30 79 H -0.987489 0.600897 -4.525799 0
M  V30 80 H 0.224326 -1.141332 -3.356279 0
M  V30 81 H 1.789981 -0.560488 -3.932168 0
M  V30 82 H 1.890559 1.288669 -2.582127 0
M  V30 83 H 1.590841 -0.145357 -1.603774 0
M  V30 84 H -1.945744 0.918780 -1.734571 0
M  V30 85 H -3.059482 0.630549 0.023538 0
M  V30 86 H -3.252464 2.300677 0.586258 0
M  V30 87 H 3.942986 2.216038 3.248661 0
M  V30 88 H 5.445172 0.287590 3.260103 0
M  V30 END ATOM
M  V30 BEGIN BOND
M  V30 1 1 1 2
M  V30 2 2 2 3
M  V30 3 1 2 4
M  V30 4 1 4 5
M  V30 5 2 5 6
M  V30 6 1 6 7
M  V30 7 2 7 8
M  V30 8 1 8 9
M  V30 9 2 9 10
M  V30 10 1 10 11
M  V30 11 1 11 12
M  V30 12 2 12 13
M  V30 13 1 13 14
M  V30 14 2 14 15
M  V30 15 1 15 16
M  V30 16 2 16 17
M  V30 17 1 17 18
M  V30 18 1 18 19
M  V30 19 2 19 20
M  V30 20 1 20 21
M  V30 21 1 21 22
M  V30 22 1 22 23
M  V30 23 1 23 24
M  V30 24 1 24 25
M  V30 25 1 25 26
M  V30 26 1 26 27
M  V30 27 1 27 28
M  V30 28 1 28 29
M  V30 29 1 29 30 CFG=3
M  V30 30 1 30 31
M  V30 31 1 31 32
M  V30 32 2 32 33
M  V30 33 1 33 34
M  V30 34 1 34 35
M  V30 35 1 35 36
M  V30 36 1 36 37
M  V30 37 1 37 38
M  V30 38 1 38 39
M  V30 39 1 29 40
M  V30 40 1 13 41
M  V30 41 2 41 42
M  V30 42 1 42 43
M  V30 43 2 43 44
M  V30 44 1 10 5
M  V30 45 1 44 12
M  V30 46 1 44 9
M  V30 47 1 28 14
M  V30 48 1 39 29
M  V30 49 1 39 16
M  V30 50 1 40 25
M  V30 51 1 38 31
M  V30 52 1 1 45
M  V30 53 1 1 46
M  V30 54 1 1 47
M  V30 55 1 6 48
M  V30 56 1 7 49
M  V30 57 1 8 50
M  V30 58 1 11 51
M  V30 59 1 15 52
M  V30 60 1 17 53
M  V30 61 1 18 54
M  V30 62 1 18 55
M  V30 63 1 19 56
M  V30 64 1 20 57
M  V30 65 1 21 58
M  V30 66 1 21 59
M  V30 67 1 22 60
M  V30 68 1 22 61
M  V30 69 1 23 62
M  V30 70 1 23 63
M  V30 71 1 24 64
M  V30 72 1 24 65
M  V30 73 1 26 66
M  V30 74 1 26 67
M  V30 75 1 27 68
M  V30 76 1 27 69
M  V30 77 1 28 70
M  V30 78 1 30 71
M  V30 79 1 30 72
M  V30 80 1 31 73 CFG=1
M  V30 81 1 32 74
M  V30 82 1 33 75
M  V30 83 1 34 76
M  V30 84 1 34 77
M  V30 85 1 35 78
M  V30 86 1 35 79
M  V30 87 1 36 80
M  V30 88 1 36 81
M  V30 89 1 37 82
M  V30 90 1 37 83
M  V30 91 1 39 84 CFG=3
M  V30 92 1 40 85
M  V30 93 1 40 86
M  V30 94 1 42 87
M  V30 95 1 43 88
M  V30 END BOND
M  V30 END CTAB
M  END
>  <Dataset>  (648) 
ChEMBL_Kinases

>  <Ligand_Instance>  (648) 
nan

>  <PDB_ID>  (648) 
nan

>  <Standardized_SMILES>  (648) 
CC(=O)Oc1cccc2c1[nH]c1c(C3=C/C4=C/C/C=C\CCCCN5CCC3[C@]3(C[C@@H]6/C=C\CCCCN6[C@@H]43)C5)nccc12

>  <Name>  (648) 
12,13-DEHYDRO-8-O-ACETYLMANZAMINE A

>  <Pocket>  (648) 
nan

>  <ATP_Site>  (648) 
nan

>  <Peripheral>  (648) 
nan

>  <Num_H_Atoms_ProtBoundConf>  (648) 
nan

>  <Num_Resolved_Atoms>  (648) 
nan

>  <Num_Not_Resolved_Atoms>  (648) 
nan

$$$$
CHEMBL252535
     RDKit          3D

  0  0  0  0  0  0  0  0  0  0999 V3000
M  V30 BEGIN CTAB
M  V30 COUNTS 60 63 0 0 0
M  V30 BEGIN ATOM
M  V30 1 C 5.470116 -0.831840 4.275299 0
M  V30 2 O 4.783037 -1.579125 3.316493 0
M  V30 3 N 4.138013 -0.759380 2.460963 0
M  V30 4 C 2.907030 -0.095831 2.275047 0
M  V30 5 O 1.974188 -0.221513 3.147282 0
M  V30 6 C 2.795673 0.707502 1.063841 0
M  V30 7 C 3.732479 0.860156 0.063690 0
M  V30 8 C 3.482066 1.659490 -1.029885 0
M  V30 9 C 2.270664 2.309627 -1.110494 0
M  V30 10 C 2.017233 3.174790 -2.302272 0
M  V30 11 C 1.300715 2.199293 -0.152655 0
M  V30 12 N 0.039851 2.881312 -0.238786 0
M  V30 13 C -0.892558 2.711455 0.819735 0
M  V30 14 N -0.903621 3.600129 1.830185 0
M  V30 15 C -1.779037 3.448120 2.842591 0
M  V30 16 N -2.647369 2.425022 2.871045 0
M  V30 17 N -2.678831 1.519844 1.900071 0
M  V30 18 C -3.418528 0.419932 1.676936 0
M  V30 19 C -2.969663 -0.122578 0.467512 0
M  V30 20 C -3.624859 -1.340671 0.010637 0
M  V30 21 O -4.781083 -1.785581 -0.004256 0
M  V30 22 N -2.667959 -2.246195 -0.566792 0
M  V30 23 C -2.988718 -3.544261 -1.112497 0 CFG=1
M  V30 24 C -2.835471 -3.633817 -2.611055 0
M  V30 25 C -2.311227 -4.620561 -0.381414 0
M  V30 26 C -1.660232 -5.686070 -0.978349 0
M  V30 27 C -1.038242 -6.667094 -0.238811 0
M  V30 28 C -1.034231 -6.633316 1.149689 0
M  V30 29 C -1.689772 -5.560619 1.758993 0
M  V30 30 C -2.315340 -4.575179 0.995546 0
M  V30 31 C -1.953265 0.656352 -0.041365 0
M  V30 32 C -1.267812 0.349729 -1.309764 0
M  V30 33 C -1.797123 1.672321 0.878286 0
M  V30 34 C 1.592645 1.385065 0.932294 0
M  V30 35 H 5.006967 0.172351 4.340308 0
M  V30 36 H 6.527249 -0.684410 4.040299 0
M  V30 37 H 5.387962 -1.371294 5.250070 0
M  V30 38 H 4.988676 -0.776486 1.878363 0
M  V30 39 H 4.642628 0.319810 0.207340 0
M  V30 40 H 4.265181 1.731073 -1.774198 0
M  V30 41 H 1.838678 4.217362 -1.928937 0
M  V30 42 H 2.891725 3.201877 -2.980000 0
M  V30 43 H 1.124812 2.857147 -2.875365 0
M  V30 44 H -0.105411 3.471267 -1.099002 0
M  V30 45 H -1.740171 4.198984 3.629265 0
M  V30 46 H -4.192021 0.106964 2.372815 0
M  V30 47 H -1.637563 -2.222400 -0.726176 0
M  V30 48 H -4.096420 -3.673038 -0.935970 0
M  V30 49 H -1.824974 -3.478597 -2.984959 0
M  V30 50 H -3.142745 -4.669616 -2.885393 0
M  V30 51 H -3.600580 -2.966381 -3.044909 0
M  V30 52 H -1.636816 -5.752795 -2.037256 0
M  V30 53 H -0.528910 -7.503756 -0.729973 0
M  V30 54 H -0.535581 -7.418792 1.694829 0
M  V30 55 H -1.672810 -5.560567 2.846166 0
M  V30 56 H -2.789302 -3.790816 1.608651 0
M  V30 57 H -0.971732 1.320758 -1.783284 0
M  V30 58 H -0.356377 -0.252420 -1.170741 0
M  V30 59 H -1.942849 -0.209113 -1.986446 0
M  V30 60 H 0.808287 1.311415 1.681633 0
M  V30 END ATOM
M  V30 BEGIN BOND
M  V30 1 1 1 2
M  V30 2 1 2 3
M  V30 3 1 3 4
M  V30 4 2 4 5
M  V30 5 1 4 6
M  V30 6 2 6 7
M  V30 7 1 7 8
M  V30 8 2 8 9
M  V30 9 1 9 10
M  V30 10 1 9 11
M  V30 11 1 11 12
M  V30 12 1 12 13
M  V30 13 2 13 14
M  V30 14 1 14 15
M  V30 15 2 15 16
M  V30 16 1 16 17
M  V30 17 1 17 18
M  V30 18 2 18 19
M  V30 19 1 19 20
M  V30 20 2 20 21
M  V30 21 1 20 22
M  V30 22 1 22 23
M  V30 23 1 23 24
M  V30 24 1 23 25
M  V30 25 2 25 26
M  V30 26 1 26 27
M  V30 27 2 27 28
M  V30 28 1 28 29
M  V30 29 2 29 30
M  V30 30 1 19 31
M  V30 31 1 31 32
M  V30 32 2 31 33
M  V30 33 2 11 34
M  V30 34 1 34 6
M  V30 35 1 33 13
M  V30 36 1 33 17
M  V30 37 1 30 25
M  V30 38 1 1 35
M  V30 39 1 1 36
M  V30 40 1 1 37
M  V30 41 1 3 38
M  V30 42 1 7 39
M  V30 43 1 8 40
M  V30 44 1 10 41
M  V30 45 1 10 42
M  V30 46 1 10 43
M  V30 47 1 12 44
M  V30 48 1 15 45
M  V30 49 1 18 46
M  V30 50 1 22 47
M  V30 51 1 23 48 CFG=3
M  V30 52 1 24 49
M  V30 53 1 24 50
M  V30 54 1 24 51
M  V30 55 1 26 52
M  V30 56 1 27 53
M  V30 57 1 28 54
M  V30 58 1 29 55
M  V30 59 1 30 56
M  V30 60 1 32 57
M  V30 61 1 32 58
M  V30 62 1 32 59
M  V30 63 1 34 60
M  V30 END BOND
M  V30 END CTAB
M  END
>  <Dataset>  (649) 
ChEMBL_Kinases

>  <Ligand_Instance>  (649) 
nan

>  <PDB_ID>  (649) 
nan

>  <Standardized_SMILES>  (649) 
CONC(=O)c1ccc(C)c(Nc2ncnn3cc(C(=O)N[C@@H](C)c4ccccc4)c(C)c23)c1

>  <Name>  (649) 
nan

>  <Pocket>  (649) 
nan

>  <ATP_Site>  (649) 
nan

>  <Peripheral>  (649) 
nan

>  <Num_H_Atoms_ProtBoundConf>  (649) 
nan

>  <Num_Resolved_Atoms>  (649) 
nan

>  <Num_Not_Resolved_Atoms>  (649) 
nan

$$$$
CHEMBL251585
     RDKit          3D

  0  0  0  0  0  0  0  0  0  0999 V3000
M  V30 BEGIN CTAB
M  V30 COUNTS 37 39 0 0 0
M  V30 BEGIN ATOM
M  V30 1 N 0.179810 -6.167404 4.464631 0
M  V30 2 C 0.252214 -6.532516 3.091587 0
M  V30 3 O 0.255313 -7.767886 2.853317 0
M  V30 4 C 0.318465 -5.533141 2.031517 0
M  V30 5 C 0.386578 -5.969194 0.726099 0
M  V30 6 C 0.448021 -4.990074 -0.249539 0
M  V30 7 C 0.444071 -3.649704 0.019708 0
M  V30 8 N 0.490139 -2.479911 -0.647604 0
M  V30 9 C 0.453080 -1.419296 0.183865 0
M  V30 10 C 0.484861 -0.010774 -0.188116 0
M  V30 11 C 0.436625 0.916411 0.828640 0
M  V30 12 C 0.465710 2.247686 0.496552 0
M  V30 13 C 0.539072 2.745836 -0.780833 0
M  V30 14 O 0.580206 3.938035 -1.420481 0
M  V30 15 C 0.533129 5.203536 -0.858329 0
M  V30 16 C -0.762520 5.446769 -0.166547 0
M  V30 17 O -0.828045 6.722882 0.407621 0
M  V30 18 C 0.587048 1.767790 -1.792971 0
M  V30 19 C 0.560348 0.393182 -1.503573 0
M  V30 20 N 0.381302 -1.955170 1.412997 0
M  V30 21 C 0.373761 -3.299752 1.352488 0
M  V30 22 C 0.309557 -4.202780 2.389595 0
M  V30 23 H -0.263328 -5.445753 5.074015 0
M  V30 24 H 0.637509 -6.633085 5.275974 0
M  V30 25 H 0.391767 -7.022401 0.476567 0
M  V30 26 H 0.503071 -5.280670 -1.295398 0
M  V30 27 H 0.548063 -2.448940 -1.698731 0
M  V30 28 H 0.376843 0.719016 1.888582 0
M  V30 29 H 0.450278 3.037457 1.224561 0
M  V30 30 H 0.799619 6.011770 -1.580117 0
M  V30 31 H 1.326442 5.250075 -0.043655 0
M  V30 32 H -0.934348 4.742018 0.649475 0
M  V30 33 H -1.637708 5.422935 -0.879939 0
M  V30 34 H -0.985763 6.707860 1.376791 0
M  V30 35 H 0.647976 1.869025 -2.886321 0
M  V30 36 H 0.592941 -0.420335 -2.212422 0
M  V30 37 H 0.255540 -3.869920 3.422965 0
M  V30 END ATOM
M  V30 BEGIN BOND
M  V30 1 1 1 2
M  V30 2 2 2 3
M  V30 3 1 2 4
M  V30 4 2 4 5
M  V30 5 1 5 6
M  V30 6 2 6 7
M  V30 7 1 7 8
M  V30 8 1 8 9
M  V30 9 1 9 10
M  V30 10 2 10 11
M  V30 11 1 11 12
M  V30 12 2 12 13
M  V30 13 1 13 14
M  V30 14 1 14 15
M  V30 15 1 15 16
M  V30 16 1 16 17
M  V30 17 1 13 18
M  V30 18 2 18 19
M  V30 19 2 9 20
M  V30 20 1 20 21
M  V30 21 2 21 22
M  V30 22 1 22 4
M  V30 23 1 21 7
M  V30 24 1 19 10
M  V30 25 1 1 23
M  V30 26 1 1 24
M  V30 27 1 5 25
M  V30 28 1 6 26
M  V30 29 1 8 27
M  V30 30 1 11 28
M  V30 31 1 12 29
M  V30 32 1 15 30
M  V30 33 1 15 31
M  V30 34 1 16 32
M  V30 35 1 16 33
M  V30 36 1 17 34
M  V30 37 1 18 35
M  V30 38 1 19 36
M  V30 39 1 22 37
M  V30 END BOND
M  V30 END CTAB
M  END
>  <Dataset>  (650) 
ChEMBL_Kinases

>  <Ligand_Instance>  (650) 
nan

>  <PDB_ID>  (650) 
nan

>  <Standardized_SMILES>  (650) 
NC(=O)c1ccc2[nH]c(-c3ccc(OCCO)cc3)nc2c1

>  <Name>  (650) 
nan

>  <Pocket>  (650) 
nan

>  <ATP_Site>  (650) 
nan

>  <Peripheral>  (650) 
nan

>  <Num_H_Atoms_ProtBoundConf>  (650) 
nan

>  <Num_Resolved_Atoms>  (650) 
nan

>  <Num_Not_Resolved_Atoms>  (650) 
nan

$$$$
CHEMBL3628364
     RDKit          3D

  0  0  0  0  0  0  0  0  0  0999 V3000
M  V30 BEGIN CTAB
M  V30 COUNTS 24 26 0 0 0
M  V30 BEGIN ATOM
M  V30 1 C 1.151899 -0.954761 4.129440 0
M  V30 2 C 0.919753 -1.893965 3.006061 0
M  V30 3 N 0.905471 -3.232542 3.074090 0
M  V30 4 N 0.670629 -3.754332 1.892102 0
M  V30 5 C 0.533858 -2.718146 1.060226 0
M  V30 6 C 0.683021 -1.513879 1.717519 0
M  V30 7 C 0.575590 -0.255903 1.016736 0
M  V30 8 C 0.700585 1.002971 1.539228 0
M  V30 9 N 0.586434 2.132934 0.816793 0
M  V30 10 C 0.334745 2.109103 -0.505471 0
M  V30 11 N 0.153546 2.937841 -1.548400 0
M  V30 12 C -0.076413 2.258055 -2.685694 0
M  V30 13 C -0.051193 0.897867 -2.406620 0
M  V30 14 C 0.205784 0.848525 -1.048663 0
M  V30 15 N 0.324475 -0.269288 -0.303633 0
M  V30 16 H 1.312045 -1.569771 5.050732 0
M  V30 17 H 0.261569 -0.329298 4.254875 0
M  V30 18 H 2.056225 -0.352336 3.926761 0
M  V30 19 H 0.618536 -4.780985 1.727459 0
M  V30 20 H 0.328497 -2.952097 0.002811 0
M  V30 21 H 0.899899 1.147586 2.572709 0
M  V30 22 H 0.205302 3.987829 -1.388969 0
M  V30 23 H -0.246416 2.751714 -3.633695 0
M  V30 24 H -0.201700 0.094625 -3.112386 0
M  V30 END ATOM
M  V30 BEGIN BOND
M  V30 1 1 1 2
M  V30 2 2 2 3
M  V30 3 1 3 4
M  V30 4 1 4 5
M  V30 5 2 5 6
M  V30 6 1 6 7
M  V30 7 2 7 8
M  V30 8 1 8 9
M  V30 9 2 9 10
M  V30 10 1 10 11
M  V30 11 1 11 12
M  V30 12 2 12 13
M  V30 13 1 13 14
M  V30 14 2 14 15
M  V30 15 1 6 2
M  V30 16 1 15 7
M  V30 17 1 14 10
M  V30 18 1 1 16
M  V30 19 1 1 17
M  V30 20 1 1 18
M  V30 21 1 4 19
M  V30 22 1 5 20
M  V30 23 1 8 21
M  V30 24 1 11 22
M  V30 25 1 12 23
M  V30 26 1 13 24
M  V30 END BOND
M  V30 END CTAB
M  END
>  <Dataset>  (651) 
ChEMBL_Kinases

>  <Ligand_Instance>  (651) 
nan

>  <PDB_ID>  (651) 
nan

>  <Standardized_SMILES>  (651) 
Cc1n[nH]cc1-c1cnc2[nH]ccc2n1

>  <Name>  (651) 
nan

>  <Pocket>  (651) 
nan

>  <ATP_Site>  (651) 
nan

>  <Peripheral>  (651) 
nan

>  <Num_H_Atoms_ProtBoundConf>  (651) 
nan

>  <Num_Resolved_Atoms>  (651) 
nan

>  <Num_Not_Resolved_Atoms>  (651) 
nan

$$$$
CHEMBL3628363
     RDKit          3D

  0  0  0  0  0  0  0  0  0  0999 V3000
M  V30 BEGIN CTAB
M  V30 COUNTS 27 29 0 0 0
M  V30 BEGIN ATOM
M  V30 1 C 2.527091 -2.221280 1.853629 0
M  V30 2 C 1.151809 -2.154424 2.414242 0
M  V30 3 N 0.637919 -2.606536 3.579694 0
M  V30 4 N -0.651239 -2.314826 3.646226 0
M  V30 5 C -0.999623 -1.665182 2.520421 0
M  V30 6 C -2.380594 -1.188700 2.263049 0
M  V30 7 C 0.124065 -1.550888 1.723919 0
M  V30 8 C 0.176955 -0.910667 0.414351 0
M  V30 9 C -0.027294 -1.464765 -0.833137 0
M  V30 10 N 0.070495 -0.685321 -1.925725 0
M  V30 11 C 0.365311 0.628758 -1.815397 0
M  V30 12 N 0.519463 1.610520 -2.726199 0
M  V30 13 C 0.818150 2.789086 -2.112286 0
M  V30 14 C 0.856003 2.549100 -0.754785 0
M  V30 15 C 0.571971 1.195810 -0.574256 0
M  V30 16 N 0.474911 0.417848 0.524432 0
M  V30 17 H 3.026138 -1.230246 1.865285 0
M  V30 18 H 2.556833 -2.727909 0.875129 0
M  V30 19 H 3.111213 -2.868027 2.558927 0
M  V30 20 H -1.200569 -2.597336 4.489754 0
M  V30 21 H -2.420916 -0.119008 2.583316 0
M  V30 22 H -3.126023 -1.785515 2.804687 0
M  V30 23 H -2.562668 -1.197844 1.170622 0
M  V30 24 H -0.255259 -2.520034 -0.789606 0
M  V30 25 H 0.419551 1.469104 -3.762474 0
M  V30 26 H 0.998198 3.751613 -2.571096 0
M  V30 27 H 1.063771 3.252309 0.055511 0
M  V30 END ATOM
M  V30 BEGIN BOND
M  V30 1 1 1 2
M  V30 2 2 2 3
M  V30 3 1 3 4
M  V30 4 1 4 5
M  V30 5 1 5 6
M  V30 6 2 5 7
M  V30 7 1 7 8
M  V30 8 2 8 9
M  V30 9 1 9 10
M  V30 10 2 10 11
M  V30 11 1 11 12
M  V30 12 1 12 13
M  V30 13 2 13 14
M  V30 14 1 14 15
M  V30 15 2 15 16
M  V30 16 1 7 2
M  V30 17 1 16 8
M  V30 18 1 15 11
M  V30 19 1 1 17
M  V30 20 1 1 18
M  V30 21 1 1 19
M  V30 22 1 4 20
M  V30 23 1 6 21
M  V30 24 1 6 22
M  V30 25 1 6 23
M  V30 26 1 9 24
M  V30 27 1 12 25
M  V30 28 1 13 26
M  V30 29 1 14 27
M  V30 END BOND
M  V30 END CTAB
M  END
>  <Dataset>  (652) 
ChEMBL_Kinases

>  <Ligand_Instance>  (652) 
nan

>  <PDB_ID>  (652) 
nan

>  <Standardized_SMILES>  (652) 
Cc1n[nH]c(C)c1-c1cnc2[nH]ccc2n1

>  <Name>  (652) 
nan

>  <Pocket>  (652) 
nan

>  <ATP_Site>  (652) 
nan

>  <Peripheral>  (652) 
nan

>  <Num_H_Atoms_ProtBoundConf>  (652) 
nan

>  <Num_Resolved_Atoms>  (652) 
nan

>  <Num_Not_Resolved_Atoms>  (652) 
nan

$$$$
CHEMBL3628362
     RDKit          3D

  0  0  0  0  0  0  0  0  0  0999 V3000
M  V30 BEGIN CTAB
M  V30 COUNTS 24 26 0 0 0
M  V30 BEGIN ATOM
M  V30 1 C -0.466569 -2.671176 4.487707 0
M  V30 2 N 0.481467 -2.118221 3.526799 0
M  V30 3 C 0.062592 -1.340334 2.511616 0
M  V30 4 C 1.184687 -0.982117 1.791553 0
M  V30 5 C 1.176226 -0.135863 0.601230 0
M  V30 6 C 2.356576 0.165227 -0.049567 0
M  V30 7 N 2.289729 0.949264 -1.141057 0
M  V30 8 C 1.129203 1.439501 -1.608660 0
M  V30 9 N 0.758966 2.232793 -2.654905 0
M  V30 10 C -0.576276 2.406240 -2.642742 0
M  V30 11 C -1.146701 1.727269 -1.576840 0
M  V30 12 C -0.054016 1.144034 -0.965226 0
M  V30 13 N 0.010783 0.348709 0.142552 0
M  V30 14 C 2.267850 -1.562979 2.401648 0
M  V30 15 N 1.813412 -2.258140 3.468051 0
M  V30 16 H -0.884704 -1.832367 5.089190 0
M  V30 17 H 0.022469 -3.367335 5.181202 0
M  V30 18 H -1.312846 -3.114237 3.919865 0
M  V30 19 H -0.947310 -1.027829 2.265420 0
M  V30 20 H 3.307672 -0.227900 0.321476 0
M  V30 21 H 1.423159 2.633551 -3.346945 0
M  V30 22 H -1.141426 3.000869 -3.371723 0
M  V30 23 H -2.180999 1.648769 -1.267614 0
M  V30 24 H 3.278197 -1.465980 2.070984 0
M  V30 END ATOM
M  V30 BEGIN BOND
M  V30 1 1 1 2
M  V30 2 1 2 3
M  V30 3 2 3 4
M  V30 4 1 4 5
M  V30 5 2 5 6
M  V30 6 1 6 7
M  V30 7 2 7 8
M  V30 8 1 8 9
M  V30 9 1 9 10
M  V30 10 2 10 11
M  V30 11 1 11 12
M  V30 12 2 12 13
M  V30 13 1 4 14
M  V30 14 2 14 15
M  V30 15 1 15 2
M  V30 16 1 13 5
M  V30 17 1 12 8
M  V30 18 1 1 16
M  V30 19 1 1 17
M  V30 20 1 1 18
M  V30 21 1 3 19
M  V30 22 1 6 20
M  V30 23 1 9 21
M  V30 24 1 10 22
M  V30 25 1 11 23
M  V30 26 1 14 24
M  V30 END BOND
M  V30 END CTAB
M  END
>  <Dataset>  (653) 
ChEMBL_Kinases

>  <Ligand_Instance>  (653) 
nan

>  <PDB_ID>  (653) 
nan

>  <Standardized_SMILES>  (653) 
Cn1cc(-c2cnc3[nH]ccc3n2)cn1

>  <Name>  (653) 
nan

>  <Pocket>  (653) 
nan

>  <ATP_Site>  (653) 
nan

>  <Peripheral>  (653) 
nan

>  <Num_H_Atoms_ProtBoundConf>  (653) 
nan

>  <Num_Resolved_Atoms>  (653) 
nan

>  <Num_Not_Resolved_Atoms>  (653) 
nan

$$$$
CHEMBL3628361
     RDKit          3D

  0  0  0  0  0  0  0  0  0  0999 V3000
M  V30 BEGIN CTAB
M  V30 COUNTS 21 23 0 0 0
M  V30 BEGIN ATOM
M  V30 1 C 1.010153 2.189139 4.091945 0
M  V30 2 C 1.836279 1.388471 3.351378 0
M  V30 3 C 1.144758 0.887196 2.265992 0
M  V30 4 N 1.372574 0.078422 1.205880 0
M  V30 5 C 0.437970 -0.216123 0.296400 0
M  V30 6 C 0.736467 -1.094683 -0.828908 0
M  V30 7 C 1.929290 -1.720431 -1.126199 0
M  V30 8 N 1.805548 -2.440380 -2.237804 0
M  V30 9 N 0.558207 -2.304712 -2.681912 0
M  V30 10 C -0.103271 -1.486652 -1.831386 0
M  V30 11 C -0.832490 0.308030 0.405899 0
M  V30 12 N -1.088753 1.116424 1.450826 0
M  V30 13 C -0.147517 1.414959 2.369530 0
M  V30 14 N -0.196881 2.186874 3.467787 0
M  V30 15 H 1.348258 2.687510 4.991320 0
M  V30 16 H 2.883592 1.097949 3.467180 0
M  V30 17 H 2.851324 -1.644413 -0.541283 0
M  V30 18 H 0.279079 -2.798833 -3.544735 0
M  V30 19 H -1.140090 -1.219999 -1.976551 0
M  V30 20 H -1.644062 0.120523 -0.284493 0
M  V30 21 H -0.992594 2.735894 3.857690 0
M  V30 END ATOM
M  V30 BEGIN BOND
M  V30 1 2 1 2
M  V30 2 1 2 3
M  V30 3 2 3 4
M  V30 4 1 4 5
M  V30 5 1 5 6
M  V30 6 1 6 7
M  V30 7 2 7 8
M  V30 8 1 8 9
M  V30 9 1 9 10
M  V30 10 2 5 11
M  V30 11 1 11 12
M  V30 12 2 12 13
M  V30 13 1 13 14
M  V30 14 1 14 1
M  V30 15 1 13 3
M  V30 16 2 10 6
M  V30 17 1 1 15
M  V30 18 1 2 16
M  V30 19 1 7 17
M  V30 20 1 9 18
M  V30 21 1 10 19
M  V30 22 1 11 20
M  V30 23 1 14 21
M  V30 END BOND
M  V30 END CTAB
M  END
>  <Dataset>  (654) 
ChEMBL_Kinases

>  <Ligand_Instance>  (654) 
nan

>  <PDB_ID>  (654) 
nan

>  <Standardized_SMILES>  (654) 
c1cc2nc(-c3cn[nH]c3)cnc2[nH]1

>  <Name>  (654) 
nan

>  <Pocket>  (654) 
nan

>  <ATP_Site>  (654) 
nan

>  <Peripheral>  (654) 
nan

>  <Num_H_Atoms_ProtBoundConf>  (654) 
nan

>  <Num_Resolved_Atoms>  (654) 
nan

>  <Num_Not_Resolved_Atoms>  (654) 
nan

$$$$
CHEMBL3628360
     RDKit          3D

  0  0  0  0  0  0  0  0  0  0999 V3000
M  V30 BEGIN CTAB
M  V30 COUNTS 23 25 0 0 0
M  V30 BEGIN ATOM
M  V30 1 C -0.151807 -1.461703 4.141318 0
M  V30 2 C 0.841848 -2.415594 4.365255 0
M  V30 3 N 1.769149 -2.638102 3.398361 0
M  V30 4 C 1.745974 -1.960959 2.239784 0
M  V30 5 C 0.800003 -1.010333 1.951728 0
M  V30 6 C 0.730025 -0.248048 0.711748 0
M  V30 7 C 1.638193 -0.422840 -0.311242 0
M  V30 8 N 1.550921 0.294018 -1.445893 0
M  V30 9 C 0.587442 1.211260 -1.649470 0
M  V30 10 N 0.277186 2.047770 -2.668079 0
M  V30 11 C -0.808807 2.735297 -2.287537 0
M  V30 12 C -1.232523 2.370571 -1.024276 0
M  V30 13 C -0.324149 1.390251 -0.628871 0
M  V30 14 N -0.231969 0.669942 0.504673 0
M  V30 15 C -0.149311 -0.772899 2.924591 0
M  V30 16 H -0.905522 -1.264265 4.897994 0
M  V30 17 H 0.896048 -2.981992 5.283333 0
M  V30 18 H 2.496412 -2.172548 1.512811 0
M  V30 19 H 2.434539 -1.128835 -0.234782 0
M  V30 20 H 0.845241 2.062937 -3.527215 0
M  V30 21 H -1.274312 3.482238 -2.920888 0
M  V30 22 H -2.070809 2.740216 -0.446870 0
M  V30 23 H -0.949126 -0.049540 2.822638 0
M  V30 END ATOM
M  V30 BEGIN BOND
M  V30 1 2 1 2
M  V30 2 1 2 3
M  V30 3 2 3 4
M  V30 4 1 4 5
M  V30 5 1 5 6
M  V30 6 2 6 7
M  V30 7 1 7 8
M  V30 8 2 8 9
M  V30 9 1 9 10
M  V30 10 1 10 11
M  V30 11 2 11 12
M  V30 12 1 12 13
M  V30 13 2 13 14
M  V30 14 2 5 15
M  V30 15 1 15 1
M  V30 16 1 14 6
M  V30 17 1 13 9
M  V30 18 1 1 16
M  V30 19 1 2 17
M  V30 20 1 4 18
M  V30 21 1 7 19
M  V30 22 1 10 20
M  V30 23 1 11 21
M  V30 24 1 12 22
M  V30 25 1 15 23
M  V30 END BOND
M  V30 END CTAB
M  END
>  <Dataset>  (655) 
ChEMBL_Kinases

>  <Ligand_Instance>  (655) 
nan

>  <PDB_ID>  (655) 
nan

>  <Standardized_SMILES>  (655) 
c1cncc(-c2cnc3[nH]ccc3n2)c1

>  <Name>  (655) 
nan

>  <Pocket>  (655) 
nan

>  <ATP_Site>  (655) 
nan

>  <Peripheral>  (655) 
nan

>  <Num_H_Atoms_ProtBoundConf>  (655) 
nan

>  <Num_Resolved_Atoms>  (655) 
nan

>  <Num_Not_Resolved_Atoms>  (655) 
nan

$$$$
CHEMBL3628257
     RDKit          3D

  0  0  0  0  0  0  0  0  0  0999 V3000
M  V30 BEGIN CTAB
M  V30 COUNTS 23 25 0 0 0
M  V30 BEGIN ATOM
M  V30 1 F -0.056021 -1.430497 5.699314 0
M  V30 2 C -0.053527 -0.504569 4.708091 0
M  V30 3 C 0.164129 -0.933632 3.416034 0
M  V30 4 C 0.166241 0.006166 2.413310 0
M  V30 5 C 0.379617 -0.273250 0.998603 0
M  V30 6 C 0.606121 -1.545839 0.520559 0
M  V30 7 N 0.806121 -1.808904 -0.804238 0
M  V30 8 C 0.787430 -0.815976 -1.696123 0
M  V30 9 N 0.956841 -0.835369 -3.031747 0
M  V30 10 C 0.834807 0.450493 -3.403798 0
M  V30 11 C 0.592917 1.285942 -2.344051 0
M  V30 12 C 0.561911 0.464677 -1.234411 0
M  V30 13 N 0.366641 0.705649 0.075709 0
M  V30 14 C -0.052857 1.312997 2.796175 0
M  V30 15 C -0.268194 1.712645 4.100521 0
M  V30 16 N -0.264811 0.777664 5.054203 0
M  V30 17 H 0.331740 -1.957713 3.148731 0
M  V30 18 H 0.633844 -2.386542 1.180462 0
M  V30 19 H 1.139271 -1.691064 -3.594369 0
M  V30 20 H 0.926037 0.745190 -4.443111 0
M  V30 21 H 0.456374 2.347126 -2.364253 0
M  V30 22 H -0.064378 2.101566 2.061223 0
M  V30 23 H -0.435607 2.750082 4.352279 0
M  V30 END ATOM
M  V30 BEGIN BOND
M  V30 1 1 1 2
M  V30 2 2 2 3
M  V30 3 1 3 4
M  V30 4 1 4 5
M  V30 5 2 5 6
M  V30 6 1 6 7
M  V30 7 2 7 8
M  V30 8 1 8 9
M  V30 9 1 9 10
M  V30 10 2 10 11
M  V30 11 1 11 12
M  V30 12 2 12 13
M  V30 13 2 4 14
M  V30 14 1 14 15
M  V30 15 2 15 16
M  V30 16 1 16 2
M  V30 17 1 13 5
M  V30 18 1 12 8
M  V30 19 1 3 17
M  V30 20 1 6 18
M  V30 21 1 9 19
M  V30 22 1 10 20
M  V30 23 1 11 21
M  V30 24 1 14 22
M  V30 25 1 15 23
M  V30 END BOND
M  V30 END CTAB
M  END
>  <Dataset>  (656) 
ChEMBL_Kinases

>  <Ligand_Instance>  (656) 
nan

>  <PDB_ID>  (656) 
nan

>  <Standardized_SMILES>  (656) 
Fc1cc(-c2cnc3[nH]ccc3n2)ccn1

>  <Name>  (656) 
nan

>  <Pocket>  (656) 
nan

>  <ATP_Site>  (656) 
nan

>  <Peripheral>  (656) 
nan

>  <Num_H_Atoms_ProtBoundConf>  (656) 
nan

>  <Num_Resolved_Atoms>  (656) 
nan

>  <Num_Not_Resolved_Atoms>  (656) 
nan

$$$$
CHEMBL3628256
     RDKit          3D

  0  0  0  0  0  0  0  0  0  0999 V3000
M  V30 BEGIN CTAB
M  V30 COUNTS 23 25 0 0 0
M  V30 BEGIN ATOM
M  V30 1 C 0.874624 0.901300 4.677494 0
M  V30 2 C 0.933026 0.100865 3.547556 0
M  V30 3 C 0.502347 0.558924 2.329807 0
M  V30 4 C 0.518364 -0.195448 1.081754 0
M  V30 5 C 0.987859 -1.491345 1.012067 0
M  V30 6 N 0.998008 -2.181625 -0.151107 0
M  V30 7 C 0.547140 -1.629699 -1.298987 0
M  V30 8 N 0.417313 -2.013384 -2.581281 0
M  V30 9 C -0.112766 -1.016594 -3.320568 0
M  V30 10 C -0.345011 0.079450 -2.487996 0
M  V30 11 C 0.077006 -0.333508 -1.231779 0
M  V30 12 N 0.071177 0.345538 -0.068035 0
M  V30 13 C 0.016295 1.849982 2.313343 0
M  V30 14 C -0.053645 2.670637 3.424617 0
M  V30 15 N 0.387565 2.150435 4.582776 0
M  V30 16 H 1.212985 0.539766 5.631287 0
M  V30 17 H 1.320051 -0.905987 3.597788 0
M  V30 18 H 1.362415 -1.997782 1.881597 0
M  V30 19 H 0.688980 -2.941221 -2.933791 0
M  V30 20 H -0.339433 -1.015368 -4.382197 0
M  V30 21 H -0.758006 1.034908 -2.750284 0
M  V30 22 H -0.349238 2.291297 1.371976 0
M  V30 23 H -0.442411 3.675701 3.363076 0
M  V30 END ATOM
M  V30 BEGIN BOND
M  V30 1 2 1 2
M  V30 2 1 2 3
M  V30 3 1 3 4
M  V30 4 2 4 5
M  V30 5 1 5 6
M  V30 6 2 6 7
M  V30 7 1 7 8
M  V30 8 1 8 9
M  V30 9 2 9 10
M  V30 10 1 10 11
M  V30 11 2 11 12
M  V30 12 2 3 13
M  V30 13 1 13 14
M  V30 14 2 14 15
M  V30 15 1 15 1
M  V30 16 1 12 4
M  V30 17 1 11 7
M  V30 18 1 1 16
M  V30 19 1 2 17
M  V30 20 1 5 18
M  V30 21 1 8 19
M  V30 22 1 9 20
M  V30 23 1 10 21
M  V30 24 1 13 22
M  V30 25 1 14 23
M  V30 END BOND
M  V30 END CTAB
M  END
>  <Dataset>  (657) 
ChEMBL_Kinases

>  <Ligand_Instance>  (657) 
nan

>  <PDB_ID>  (657) 
nan

>  <Standardized_SMILES>  (657) 
c1cc(-c2cnc3[nH]ccc3n2)ccn1

>  <Name>  (657) 
nan

>  <Pocket>  (657) 
nan

>  <ATP_Site>  (657) 
nan

>  <Peripheral>  (657) 
nan

>  <Num_H_Atoms_ProtBoundConf>  (657) 
nan

>  <Num_Resolved_Atoms>  (657) 
nan

>  <Num_Not_Resolved_Atoms>  (657) 
nan

$$$$
CHEMBL3628255
     RDKit          3D

  0  0  0  0  0  0  0  0  0  0999 V3000
M  V30 BEGIN CTAB
M  V30 COUNTS 25 27 0 0 0
M  V30 BEGIN ATOM
M  V30 1 O -0.174037 -4.784119 3.577649 0
M  V30 2 C 0.018594 -3.584521 2.865703 0
M  V30 3 C -0.939058 -3.104841 1.991021 0
M  V30 4 C -0.656670 -1.903422 1.329023 0
M  V30 5 C 0.525517 -1.223694 1.537495 0
M  V30 6 C 0.731663 0.019509 0.803309 0
M  V30 7 C 1.861455 0.801498 0.911788 0
M  V30 8 N 1.998783 1.956029 0.199022 0
M  V30 9 C 0.999368 2.325556 -0.624113 0
M  V30 10 N 0.849159 3.379572 -1.431996 0
M  V30 11 C -0.341860 3.340969 -2.084770 0
M  V30 12 C -0.999517 2.191719 -1.672343 0
M  V30 13 C -0.145333 1.567455 -0.757461 0
M  V30 14 N -0.247671 0.417621 -0.027963 0
M  V30 15 C 1.438913 -1.757804 2.424229 0
M  V30 16 C 1.226781 -2.936835 3.110952 0
M  V30 17 H -0.539682 -4.767444 4.521317 0
M  V30 18 H -1.859051 -3.656979 1.844627 0
M  V30 19 H -1.440098 -1.552326 0.641791 0
M  V30 20 H 2.649857 0.495325 1.571197 0
M  V30 21 H 1.560568 4.151402 -1.555141 0
M  V30 22 H -0.761715 4.035683 -2.800232 0
M  V30 23 H -1.979790 1.775265 -1.946022 0
M  V30 24 H 2.364479 -1.239808 2.597153 0
M  V30 25 H 1.944792 -3.350445 3.803727 0
M  V30 END ATOM
M  V30 BEGIN BOND
M  V30 1 1 1 2
M  V30 2 2 2 3
M  V30 3 1 3 4
M  V30 4 2 4 5
M  V30 5 1 5 6
M  V30 6 2 6 7
M  V30 7 1 7 8
M  V30 8 2 8 9
M  V30 9 1 9 10
M  V30 10 1 10 11
M  V30 11 2 11 12
M  V30 12 1 12 13
M  V30 13 2 13 14
M  V30 14 1 5 15
M  V30 15 2 15 16
M  V30 16 1 16 2
M  V30 17 1 14 6
M  V30 18 1 13 9
M  V30 19 1 1 17
M  V30 20 1 3 18
M  V30 21 1 4 19
M  V30 22 1 7 20
M  V30 23 1 10 21
M  V30 24 1 11 22
M  V30 25 1 12 23
M  V30 26 1 15 24
M  V30 27 1 16 25
M  V30 END BOND
M  V30 END CTAB
M  END
>  <Dataset>  (658) 
ChEMBL_Kinases

>  <Ligand_Instance>  (658) 
nan

>  <PDB_ID>  (658) 
nan

>  <Standardized_SMILES>  (658) 
Oc1ccc(-c2cnc3[nH]ccc3n2)cc1

>  <Name>  (658) 
nan

>  <Pocket>  (658) 
nan

>  <ATP_Site>  (658) 
nan

>  <Peripheral>  (658) 
nan

>  <Num_H_Atoms_ProtBoundConf>  (658) 
nan

>  <Num_Resolved_Atoms>  (658) 
nan

>  <Num_Not_Resolved_Atoms>  (658) 
nan

$$$$
CHEMBL3628254
     RDKit          3D

  0  0  0  0  0  0  0  0  0  0999 V3000
M  V30 BEGIN CTAB
M  V30 COUNTS 24 26 0 0 0
M  V30 BEGIN ATOM
M  V30 1 F 1.943633 -3.509370 4.986138 0
M  V30 2 C 1.693997 -2.766448 3.881464 0
M  V30 3 C 0.749124 -1.748575 3.938907 0
M  V30 4 C 0.473757 -0.968220 2.812834 0
M  V30 5 C 1.136983 -1.196557 1.623996 0
M  V30 6 C 0.788676 -0.335490 0.497173 0
M  V30 7 C 1.347358 -0.419293 -0.760870 0
M  V30 8 N 0.981631 0.406910 -1.760022 0
M  V30 9 C 0.048639 1.357647 -1.575006 0
M  V30 10 N -0.495876 2.288131 -2.354603 0
M  V30 11 C -1.411262 3.020386 -1.699198 0
M  V30 12 C -1.435263 2.505204 -0.419260 0
M  V30 13 C -0.532942 1.463445 -0.309246 0
M  V30 14 N -0.145196 0.613762 0.688004 0
M  V30 15 C 2.075400 -2.200689 1.550906 0
M  V30 16 C 2.319129 -2.949182 2.684143 0
M  V30 17 H 0.240921 -1.590613 4.890044 0
M  V30 18 H -0.285511 -0.205126 2.988598 0
M  V30 19 H 2.094653 -1.169496 -0.935738 0
M  V30 20 H -0.289066 2.485487 -3.359938 0
M  V30 21 H -2.056305 3.836128 -1.945661 0
M  V30 22 H -2.046928 2.817766 0.436296 0
M  V30 23 H 2.596386 -2.381683 0.620830 0
M  V30 24 H 3.060200 -3.762377 2.674220 0
M  V30 END ATOM
M  V30 BEGIN BOND
M  V30 1 1 1 2
M  V30 2 2 2 3
M  V30 3 1 3 4
M  V30 4 2 4 5
M  V30 5 1 5 6
M  V30 6 2 6 7
M  V30 7 1 7 8
M  V30 8 2 8 9
M  V30 9 1 9 10
M  V30 10 1 10 11
M  V30 11 2 11 12
M  V30 12 1 12 13
M  V30 13 2 13 14
M  V30 14 1 5 15
M  V30 15 2 15 16
M  V30 16 1 16 2
M  V30 17 1 14 6
M  V30 18 1 13 9
M  V30 19 1 3 17
M  V30 20 1 4 18
M  V30 21 1 7 19
M  V30 22 1 10 20
M  V30 23 1 11 21
M  V30 24 1 12 22
M  V30 25 1 15 23
M  V30 26 1 16 24
M  V30 END BOND
M  V30 END CTAB
M  END
>  <Dataset>  (659) 
ChEMBL_Kinases

>  <Ligand_Instance>  (659) 
nan

>  <PDB_ID>  (659) 
nan

>  <Standardized_SMILES>  (659) 
Fc1ccc(-c2cnc3[nH]ccc3n2)cc1

>  <Name>  (659) 
nan

>  <Pocket>  (659) 
nan

>  <ATP_Site>  (659) 
nan

>  <Peripheral>  (659) 
nan

>  <Num_H_Atoms_ProtBoundConf>  (659) 
nan

>  <Num_Resolved_Atoms>  (659) 
nan

>  <Num_Not_Resolved_Atoms>  (659) 
nan

$$$$
CHEMBL3628253
     RDKit          3D

  0  0  0  0  0  0  0  0  0  0999 V3000
M  V30 BEGIN CTAB
M  V30 COUNTS 28 30 0 0 0
M  V30 BEGIN ATOM
M  V30 1 C -0.598788 -4.886645 3.992816 0
M  V30 2 O -0.083245 -3.596768 4.349252 0
M  V30 3 C 0.050275 -2.668378 3.324690 0
M  V30 4 C 0.548720 -1.437072 3.699124 0
M  V30 5 C 0.727076 -0.430862 2.770211 0
M  V30 6 C 0.415417 -0.617222 1.439522 0
M  V30 7 C 0.575181 0.394453 0.400194 0
M  V30 8 C 1.062320 1.660409 0.648925 0
M  V30 9 N 1.221972 2.615773 -0.284907 0
M  V30 10 C 0.885250 2.331512 -1.566733 0
M  V30 11 N 0.928352 3.048514 -2.681176 0
M  V30 12 C 0.472470 2.266073 -3.669633 0
M  V30 13 C 0.118194 1.009444 -3.219452 0
M  V30 14 C 0.394706 1.076401 -1.854187 0
M  V30 15 N 0.251255 0.150724 -0.888767 0
M  V30 16 C -0.082507 -1.848783 1.068348 0
M  V30 17 C -0.268944 -2.878264 1.997417 0
M  V30 18 H 0.089495 -5.278868 3.214251 0
M  V30 19 H -0.571817 -5.580326 4.838293 0
M  V30 20 H -1.602541 -4.776782 3.520203 0
M  V30 21 H 0.814424 -1.219407 4.723264 0
M  V30 22 H 1.115040 0.518986 3.077669 0
M  V30 23 H 1.346454 1.945520 1.645395 0
M  V30 24 H 1.260403 4.041552 -2.755998 0
M  V30 25 H 0.410817 2.627644 -4.681300 0
M  V30 26 H -0.277713 0.170542 -3.778431 0
M  V30 27 H -0.337516 -2.031084 0.035656 0
M  V30 28 H -0.659144 -3.860073 1.737964 0
M  V30 END ATOM
M  V30 BEGIN BOND
M  V30 1 1 1 2
M  V30 2 1 2 3
M  V30 3 2 3 4
M  V30 4 1 4 5
M  V30 5 2 5 6
M  V30 6 1 6 7
M  V30 7 2 7 8
M  V30 8 1 8 9
M  V30 9 2 9 10
M  V30 10 1 10 11
M  V30 11 1 11 12
M  V30 12 2 12 13
M  V30 13 1 13 14
M  V30 14 2 14 15
M  V30 15 1 6 16
M  V30 16 2 16 17
M  V30 17 1 17 3
M  V30 18 1 15 7
M  V30 19 1 14 10
M  V30 20 1 1 18
M  V30 21 1 1 19
M  V30 22 1 1 20
M  V30 23 1 4 21
M  V30 24 1 5 22
M  V30 25 1 8 23
M  V30 26 1 11 24
M  V30 27 1 12 25
M  V30 28 1 13 26
M  V30 29 1 16 27
M  V30 30 1 17 28
M  V30 END BOND
M  V30 END CTAB
M  END
>  <Dataset>  (660) 
ChEMBL_Kinases

>  <Ligand_Instance>  (660) 
nan

>  <PDB_ID>  (660) 
nan

>  <Standardized_SMILES>  (660) 
COc1ccc(-c2cnc3[nH]ccc3n2)cc1

>  <Name>  (660) 
nan

>  <Pocket>  (660) 
nan

>  <ATP_Site>  (660) 
nan

>  <Peripheral>  (660) 
nan

>  <Num_H_Atoms_ProtBoundConf>  (660) 
nan

>  <Num_Resolved_Atoms>  (660) 
nan

>  <Num_Not_Resolved_Atoms>  (660) 
nan

$$$$
CHEMBL3628252
     RDKit          3D

  0  0  0  0  0  0  0  0  0  0999 V3000
M  V30 BEGIN CTAB
M  V30 COUNTS 28 30 0 0 0
M  V30 BEGIN ATOM
M  V30 1 N 0.873841 -2.727065 5.799161 0
M  V30 2 C 1.833135 -2.481833 4.774444 0
M  V30 3 O 2.972360 -2.845991 5.187821 0
M  V30 4 C 1.495536 -1.902075 3.478218 0
M  V30 5 C 0.184322 -1.563260 3.202139 0
M  V30 6 C -0.078126 -1.011226 1.942473 0
M  V30 7 C 0.936495 -0.819339 1.026687 0
M  V30 8 C 0.562952 -0.237626 -0.258663 0
M  V30 9 C 1.440646 0.024085 -1.288962 0
M  V30 10 N 1.028960 0.565893 -2.458567 0
M  V30 11 C -0.268023 0.873667 -2.663436 0
M  V30 12 N -0.952888 1.411445 -3.704951 0
M  V30 13 C -2.260233 1.510610 -3.386523 0
M  V30 14 C -2.407072 1.019540 -2.101694 0
M  V30 15 C -1.168572 0.618222 -1.638872 0
M  V30 16 N -0.726080 0.070156 -0.467009 0
M  V30 17 C 2.225988 -1.174837 1.353656 0
M  V30 18 C 2.540649 -1.727962 2.593478 0
M  V30 19 H -0.158092 -2.845348 5.960579 0
M  V30 20 H -0.183745 -2.819218 5.776676 0
M  V30 21 H -0.607197 -1.720713 3.935841 0
M  V30 22 H -1.130358 -0.768908 1.794506 0
M  V30 23 H 2.483198 -0.215648 -1.143383 0
M  V30 24 H -0.558831 1.713077 -4.625462 0
M  V30 25 H -3.104340 1.884261 -3.950980 0
M  V30 26 H -3.334481 0.956097 -1.543050 0
M  V30 27 H 3.017057 -1.027849 0.646208 0
M  V30 28 H 3.548505 -2.011142 2.862274 0
M  V30 END ATOM
M  V30 BEGIN BOND
M  V30 1 1 1 2
M  V30 2 2 2 3
M  V30 3 1 2 4
M  V30 4 2 4 5
M  V30 5 1 5 6
M  V30 6 2 6 7
M  V30 7 1 7 8
M  V30 8 2 8 9
M  V30 9 1 9 10
M  V30 10 2 10 11
M  V30 11 1 11 12
M  V30 12 1 12 13
M  V30 13 2 13 14
M  V30 14 1 14 15
M  V30 15 2 15 16
M  V30 16 1 7 17
M  V30 17 2 17 18
M  V30 18 1 18 4
M  V30 19 1 16 8
M  V30 20 1 15 11
M  V30 21 1 1 19
M  V30 22 1 1 20
M  V30 23 1 5 21
M  V30 24 1 6 22
M  V30 25 1 9 23
M  V30 26 1 12 24
M  V30 27 1 13 25
M  V30 28 1 14 26
M  V30 29 1 17 27
M  V30 30 1 18 28
M  V30 END BOND
M  V30 END CTAB
M  END
>  <Dataset>  (661) 
ChEMBL_Kinases

>  <Ligand_Instance>  (661) 
nan

>  <PDB_ID>  (661) 
nan

>  <Standardized_SMILES>  (661) 
NC(=O)c1ccc(-c2cnc3[nH]ccc3n2)cc1

>  <Name>  (661) 
nan

>  <Pocket>  (661) 
nan

>  <ATP_Site>  (661) 
nan

>  <Peripheral>  (661) 
nan

>  <Num_H_Atoms_ProtBoundConf>  (661) 
nan

>  <Num_Resolved_Atoms>  (661) 
nan

>  <Num_Not_Resolved_Atoms>  (661) 
nan

$$$$
CHEMBL3628249
     RDKit          3D

  0  0  0  0  0  0  0  0  0  0999 V3000
M  V30 BEGIN CTAB
M  V30 COUNTS 24 26 0 0 0
M  V30 BEGIN ATOM
M  V30 1 C 3.230712 -0.764474 3.893713 0
M  V30 2 C 2.249696 -1.743372 3.862212 0
M  V30 3 C 1.293493 -1.650910 2.868479 0
M  V30 4 C 1.305857 -0.630435 1.941240 0
M  V30 5 C 0.327900 -0.475283 0.869141 0
M  V30 6 C -0.722747 -1.345979 0.671889 0
M  V30 7 N -1.640187 -1.236486 -0.300706 0
M  V30 8 C -1.546071 -0.202181 -1.162993 0
M  V30 9 N -2.240709 0.240740 -2.230662 0
M  V30 10 C -1.683762 1.360171 -2.731445 0
M  V30 11 C -0.577437 1.686226 -1.980126 0
M  V30 12 C -0.510722 0.694268 -1.003973 0
M  V30 13 N 0.391363 0.554610 -0.018215 0
M  V30 14 C 2.310800 0.310087 2.030791 0
M  V30 15 C 3.299023 0.284193 2.993698 0
M  V30 16 H 3.994703 -0.814149 4.665435 0
M  V30 17 H 2.222703 -2.543850 4.573128 0
M  V30 18 H 0.519596 -2.387892 2.811210 0
M  V30 19 H -0.853333 -2.186350 1.321060 0
M  V30 20 H -3.095309 -0.221626 -2.617339 0
M  V30 21 H -1.965566 1.982383 -3.571779 0
M  V30 22 H 0.111110 2.517208 -2.090438 0
M  V30 23 H 2.344963 1.128408 1.310276 0
M  V30 24 H 4.086062 1.036440 3.049418 0
M  V30 END ATOM
M  V30 BEGIN BOND
M  V30 1 2 1 2
M  V30 2 1 2 3
M  V30 3 2 3 4
M  V30 4 1 4 5
M  V30 5 2 5 6
M  V30 6 1 6 7
M  V30 7 2 7 8
M  V30 8 1 8 9
M  V30 9 1 9 10
M  V30 10 2 10 11
M  V30 11 1 11 12
M  V30 12 2 12 13
M  V30 13 1 4 14
M  V30 14 2 14 15
M  V30 15 1 15 1
M  V30 16 1 13 5
M  V30 17 1 12 8
M  V30 18 1 1 16
M  V30 19 1 2 17
M  V30 20 1 3 18
M  V30 21 1 6 19
M  V30 22 1 9 20
M  V30 23 1 10 21
M  V30 24 1 11 22
M  V30 25 1 14 23
M  V30 26 1 15 24
M  V30 END BOND
M  V30 END CTAB
M  END
>  <Dataset>  (662) 
ChEMBL_Kinases

>  <Ligand_Instance>  (662) 
nan

>  <PDB_ID>  (662) 
nan

>  <Standardized_SMILES>  (662) 
c1ccc(-c2cnc3[nH]ccc3n2)cc1

>  <Name>  (662) 
nan

>  <Pocket>  (662) 
nan

>  <ATP_Site>  (662) 
nan

>  <Peripheral>  (662) 
nan

>  <Num_H_Atoms_ProtBoundConf>  (662) 
nan

>  <Num_Resolved_Atoms>  (662) 
nan

>  <Num_Not_Resolved_Atoms>  (662) 
nan

$$$$
CHEMBL3628248
     RDKit          3D

  0  0  0  0  0  0  0  0  0  0999 V3000
M  V30 BEGIN CTAB
M  V30 COUNTS 14 15 0 0 0
M  V30 BEGIN ATOM
M  V30 1 Br -1.472521 -0.400454 2.861865 0
M  V30 2 C -0.180776 -0.668891 1.492052 0
M  V30 3 C -0.223473 -1.663259 0.529109 0
M  V30 4 N 0.880250 -1.508504 -0.255281 0
M  V30 5 C 1.597521 -0.445081 0.202604 0
M  V30 6 N 2.743065 0.126624 -0.198386 0
M  V30 7 C 3.212699 1.193829 0.474179 0
M  V30 8 C 2.568699 1.749048 1.580573 0
M  V30 9 N 1.427880 1.155090 1.955173 0
M  V30 10 C 0.936888 0.092453 1.305387 0
M  V30 11 H -0.989747 -2.412698 0.428500 0
M  V30 12 H 1.165650 -2.093719 -1.086448 0
M  V30 13 H 4.134920 1.658010 0.155316 0
M  V30 14 H 3.026802 2.616807 2.062549 0
M  V30 END ATOM
M  V30 BEGIN BOND
M  V30 1 1 1 2
M  V30 2 2 2 3
M  V30 3 1 3 4
M  V30 4 1 4 5
M  V30 5 2 5 6
M  V30 6 1 6 7
M  V30 7 2 7 8
M  V30 8 1 8 9
M  V30 9 2 9 10
M  V30 10 1 10 2
M  V30 11 1 10 5
M  V30 12 1 3 11
M  V30 13 1 4 12
M  V30 14 1 7 13
M  V30 15 1 8 14
M  V30 END BOND
M  V30 END CTAB
M  END
>  <Dataset>  (663) 
ChEMBL_Kinases

>  <Ligand_Instance>  (663) 
nan

>  <PDB_ID>  (663) 
nan

>  <Standardized_SMILES>  (663) 
Brc1c[nH]c2nccnc12

>  <Name>  (663) 
nan

>  <Pocket>  (663) 
nan

>  <ATP_Site>  (663) 
nan

>  <Peripheral>  (663) 
nan

>  <Num_H_Atoms_ProtBoundConf>  (663) 
nan

>  <Num_Resolved_Atoms>  (663) 
nan

>  <Num_Not_Resolved_Atoms>  (663) 
nan

$$$$
CHEMBL3628247
     RDKit          3D

  0  0  0  0  0  0  0  0  0  0999 V3000
M  V30 BEGIN CTAB
M  V30 COUNTS 14 15 0 0 0
M  V30 BEGIN ATOM
M  V30 1 Br 2.086917 -3.410473 3.058783 0
M  V30 2 C 1.646524 -1.918541 1.929331 0
M  V30 3 C 0.736985 -2.150133 0.891748 0
M  V30 4 N 0.358507 -1.178323 0.042419 0
M  V30 5 C 0.905890 0.055640 0.238975 0
M  V30 6 N 0.699790 1.186193 -0.458605 0
M  V30 7 C 1.462011 2.130006 0.117833 0
M  V30 8 C 2.170077 1.635253 1.189467 0
M  V30 9 C 1.803081 0.289616 1.260311 0
M  V30 10 N 2.178640 -0.703852 2.114482 0
M  V30 11 H 0.320934 -3.161391 0.771026 0
M  V30 12 H 0.064377 1.317404 -1.298014 0
M  V30 13 H 1.532431 3.178693 -0.204779 0
M  V30 14 H 2.861692 2.129165 1.854212 0
M  V30 END ATOM
M  V30 BEGIN BOND
M  V30 1 1 1 2
M  V30 2 2 2 3
M  V30 3 1 3 4
M  V30 4 2 4 5
M  V30 5 1 5 6
M  V30 6 1 6 7
M  V30 7 2 7 8
M  V30 8 1 8 9
M  V30 9 2 9 10
M  V30 10 1 10 2
M  V30 11 1 9 5
M  V30 12 1 3 11
M  V30 13 1 6 12
M  V30 14 1 7 13
M  V30 15 1 8 14
M  V30 END BOND
M  V30 END CTAB
M  END
>  <Dataset>  (664) 
ChEMBL_Kinases

>  <Ligand_Instance>  (664) 
nan

>  <PDB_ID>  (664) 
nan

>  <Standardized_SMILES>  (664) 
Brc1cnc2[nH]ccc2n1

>  <Name>  (664) 
nan

>  <Pocket>  (664) 
nan

>  <ATP_Site>  (664) 
nan

>  <Peripheral>  (664) 
nan

>  <Num_H_Atoms_ProtBoundConf>  (664) 
nan

>  <Num_Resolved_Atoms>  (664) 
nan

>  <Num_Not_Resolved_Atoms>  (664) 
nan

$$$$
CHEMBL3628246
     RDKit          3D

  0  0  0  0  0  0  0  0  0  0999 V3000
M  V30 BEGIN CTAB
M  V30 COUNTS 14 15 0 0 0
M  V30 BEGIN ATOM
M  V30 1 C 1.419894 -1.872937 -0.436510 0
M  V30 2 C 0.759960 -2.271196 0.708411 0
M  V30 3 N 0.581993 -1.321036 1.653430 0
M  V30 4 C 1.045815 -0.064863 1.436095 0
M  V30 5 N 0.985151 1.027311 2.220458 0
M  V30 6 C 1.575941 2.087081 1.618586 0
M  V30 7 C 2.035431 1.659686 0.397444 0
M  V30 8 C 1.706497 0.315726 0.278970 0
M  V30 9 N 1.890083 -0.633673 -0.677375 0
M  V30 10 H 1.596236 -2.593738 -1.240126 0
M  V30 11 H 0.436802 -3.294809 0.770568 0
M  V30 12 H 0.554939 1.095382 3.163988 0
M  V30 13 H 1.685258 3.097761 1.997304 0
M  V30 14 H 2.553855 2.168562 -0.384052 0
M  V30 END ATOM
M  V30 BEGIN BOND
M  V30 1 2 1 2
M  V30 2 1 2 3
M  V30 3 2 3 4
M  V30 4 1 4 5
M  V30 5 1 5 6
M  V30 6 2 6 7
M  V30 7 1 7 8
M  V30 8 2 8 9
M  V30 9 1 9 1
M  V30 10 1 8 4
M  V30 11 1 1 10
M  V30 12 1 2 11
M  V30 13 1 5 12
M  V30 14 1 6 13
M  V30 15 1 7 14
M  V30 END BOND
M  V30 END CTAB
M  END
>  <Dataset>  (665) 
ChEMBL_Kinases

>  <Ligand_Instance>  (665) 
nan

>  <PDB_ID>  (665) 
nan

>  <Standardized_SMILES>  (665) 
c1cnc2[nH]ccc2n1

>  <Name>  (665) 
nan

>  <Pocket>  (665) 
nan

>  <ATP_Site>  (665) 
nan

>  <Peripheral>  (665) 
nan

>  <Num_H_Atoms_ProtBoundConf>  (665) 
nan

>  <Num_Resolved_Atoms>  (665) 
nan

>  <Num_Not_Resolved_Atoms>  (665) 
nan

$$$$
CHEMBL3323332
     RDKit          3D

  0  0  0  0  0  0  0  0  0  0999 V3000
M  V30 BEGIN CTAB
M  V30 COUNTS 43 46 0 0 0
M  V30 BEGIN ATOM
M  V30 1 O 1.451863 -3.977923 2.127020 0
M  V30 2 C 1.573601 -4.270670 0.781252 0
M  V30 3 C 2.098674 -5.470608 0.345112 0
M  V30 4 C 2.171169 -5.650731 -1.020592 0
M  V30 5 C 1.770816 -4.749706 -1.984181 0
M  V30 6 C 1.247269 -3.552763 -1.504926 0
M  V30 7 C 1.159018 -3.337269 -0.139409 0
M  V30 8 C 0.591551 -2.034197 0.170328 0
M  V30 9 N 0.160771 -1.044339 0.750312 0
M  V30 10 N -0.307356 0.022729 0.118133 0
M  V30 11 C -0.640985 1.076136 -0.788774 0
M  V30 12 C -1.820455 1.769928 -0.574697 0
M  V30 13 C -2.195479 2.799607 -1.409019 0
M  V30 14 C -1.325578 3.061866 -2.430277 0
M  V30 15 C -0.139851 2.434734 -2.724078 0
M  V30 16 Cl 0.880786 2.865051 -4.061711 0
M  V30 17 C 0.162299 1.426304 -1.852215 0
M  V30 18 C -0.505609 -0.409178 1.441883 0
M  V30 19 C -0.056260 0.489072 2.536376 0
M  V30 20 C -0.048063 1.859980 2.629021 0
M  V30 21 C 0.367089 2.614075 3.696835 0
M  V30 22 F 0.308388 3.954639 3.623576 0
M  V30 23 C 0.826151 1.956214 4.797708 0
M  V30 24 O 1.248078 2.722990 5.882150 0
M  V30 25 C 0.864281 0.587168 4.819355 0
M  V30 26 F 1.334100 0.031106 5.952900 0
M  V30 27 C 0.431663 -0.110280 3.712530 0
M  V30 28 C 0.288136 -1.671907 1.564090 0
M  V30 29 H 0.911719 -4.616652 2.728246 0
M  V30 30 H 2.424633 -6.205572 1.053695 0
M  V30 31 H 2.583180 -6.592213 -1.348735 0
M  V30 32 H 1.869932 -4.985481 -3.043496 0
M  V30 33 H 0.937483 -2.854614 -2.279151 0
M  V30 34 H -2.459817 1.495537 0.267157 0
M  V30 35 H -3.102717 3.352010 -1.265036 0
M  V30 36 H -1.631878 3.879502 -3.085235 0
M  V30 37 H 1.087899 0.848085 -1.982558 0
M  V30 38 H -1.596856 -0.671536 1.654787 0
M  V30 39 H -0.403316 2.379832 1.767995 0
M  V30 40 H 1.957188 3.419199 5.854854 0
M  V30 41 H 0.515882 -1.187333 3.889916 0
M  V30 42 H 1.285471 -1.557078 2.102258 0
M  V30 43 H -0.299901 -2.475096 2.115390 0
M  V30 END ATOM
M  V30 BEGIN BOND
M  V30 1 1 1 2
M  V30 2 2 2 3
M  V30 3 1 3 4
M  V30 4 2 4 5
M  V30 5 1 5 6
M  V30 6 2 6 7
M  V30 7 1 7 8
M  V30 8 2 8 9
M  V30 9 1 9 10
M  V30 10 1 10 11
M  V30 11 2 11 12
M  V30 12 1 12 13
M  V30 13 2 13 14
M  V30 14 1 14 15
M  V30 15 1 15 16
M  V30 16 2 15 17
M  V30 17 1 10 18
M  V30 18 1 18 19
M  V30 19 2 19 20
M  V30 20 1 20 21
M  V30 21 1 21 22
M  V30 22 2 21 23
M  V30 23 1 23 24
M  V30 24 1 23 25
M  V30 25 1 25 26
M  V30 26 2 25 27
M  V30 27 1 18 28
M  V30 28 1 7 2
M  V30 29 1 28 8
M  V30 30 1 17 11
M  V30 31 1 27 19
M  V30 32 1 1 29
M  V30 33 1 3 30
M  V30 34 1 4 31
M  V30 35 1 5 32
M  V30 36 1 6 33
M  V30 37 1 12 34
M  V30 38 1 13 35
M  V30 39 1 14 36
M  V30 40 1 17 37
M  V30 41 1 18 38
M  V30 42 1 20 39
M  V30 43 1 24 40
M  V30 44 1 27 41
M  V30 45 1 28 42
M  V30 46 1 28 43
M  V30 END BOND
M  V30 END CTAB
M  END
>  <Dataset>  (666) 
ChEMBL_Kinases

>  <Ligand_Instance>  (666) 
nan

>  <PDB_ID>  (666) 
nan

>  <Standardized_SMILES>  (666) 
Oc1ccccc1C1=NN(c2cccc(Cl)c2)C(c2cc(F)c(O)c(F)c2)C1

>  <Name>  (666) 
nan

>  <Pocket>  (666) 
nan

>  <ATP_Site>  (666) 
nan

>  <Peripheral>  (666) 
nan

>  <Num_H_Atoms_ProtBoundConf>  (666) 
nan

>  <Num_Resolved_Atoms>  (666) 
nan

>  <Num_Not_Resolved_Atoms>  (666) 
nan

$$$$
CHEMBL3627726
     RDKit          3D

  0  0  0  0  0  0  0  0  0  0999 V3000
M  V30 BEGIN CTAB
M  V30 COUNTS 14 15 0 0 0
M  V30 BEGIN ATOM
M  V30 1 Br -2.208577 -1.945096 1.656661 0
M  V30 2 C -0.430271 -1.234634 1.501508 0
M  V30 3 C 0.617733 -1.624429 2.289188 0
M  V30 4 N 1.823817 -1.077134 2.112799 0
M  V30 5 C 2.075237 -0.134728 1.175355 0
M  V30 6 N 3.204021 0.534982 0.839013 0
M  V30 7 C 2.852405 1.351563 -0.170973 0
M  V30 8 C 1.519116 1.225785 -0.497077 0
M  V30 9 I 0.418457 2.236951 -1.978700 0
M  V30 10 C 1.016822 0.265497 0.372722 0
M  V30 11 N -0.209446 -0.298789 0.560580 0
M  V30 12 H 0.434668 -2.381468 3.048797 0
M  V30 13 H 4.154640 0.449668 1.261794 0
M  V30 14 H 3.559232 2.031088 -0.664476 0
M  V30 END ATOM
M  V30 BEGIN BOND
M  V30 1 1 1 2
M  V30 2 2 2 3
M  V30 3 1 3 4
M  V30 4 2 4 5
M  V30 5 1 5 6
M  V30 6 1 6 7
M  V30 7 2 7 8
M  V30 8 1 8 9
M  V30 9 1 8 10
M  V30 10 2 10 11
M  V30 11 1 11 2
M  V30 12 1 10 5
M  V30 13 1 3 12
M  V30 14 1 6 13
M  V30 15 1 7 14
M  V30 END BOND
M  V30 END CTAB
M  END
>  <Dataset>  (667) 
ChEMBL_Kinases

>  <Ligand_Instance>  (667) 
nan

>  <PDB_ID>  (667) 
nan

>  <Standardized_SMILES>  (667) 
Brc1cnc2[nH]cc(I)c2n1

>  <Name>  (667) 
nan

>  <Pocket>  (667) 
nan

>  <ATP_Site>  (667) 
nan

>  <Peripheral>  (667) 
nan

>  <Num_H_Atoms_ProtBoundConf>  (667) 
nan

>  <Num_Resolved_Atoms>  (667) 
nan

>  <Num_Not_Resolved_Atoms>  (667) 
nan

$$$$
CHEMBL362712
     RDKit          3D

  0  0  0  0  0  0  0  0  0  0999 V3000
M  V30 BEGIN CTAB
M  V30 COUNTS 32 34 0 0 0
M  V30 BEGIN ATOM
M  V30 1 C -0.718618 -3.634311 0.726692 0
M  V30 2 C -0.653738 -2.502777 -0.244196 0
M  V30 3 N 0.018247 -1.330859 0.199316 0
M  V30 4 C 1.317565 -1.046475 0.135784 0
M  V30 5 C 2.507312 -1.729423 -0.309622 0
M  V30 6 N 3.732710 -1.174687 -0.311283 0
M  V30 7 O 4.653634 -1.918340 -0.762830 0
M  V30 8 N 4.106262 -3.053763 -1.106037 0
M  V30 9 C 2.795531 -2.953300 -0.834383 0
M  V30 10 N 1.955469 -4.019584 -1.073146 0
M  V30 11 N 1.382269 0.197765 0.638164 0
M  V30 12 C 0.193978 0.676644 1.002331 0
M  V30 13 C -0.088848 1.904866 1.548470 0
M  V30 14 C -1.439943 2.135952 1.834063 0
M  V30 15 O -1.811437 3.346207 2.385282 0
M  V30 16 C -0.845440 4.327339 2.653637 0
M  V30 17 C -2.392003 1.157983 1.565051 0
M  V30 18 C -2.034858 -0.074207 1.006801 0
M  V30 19 C -0.713235 -0.309553 0.723592 0
M  V30 20 H 0.115449 -3.619537 1.457992 0
M  V30 21 H -1.723770 -3.658893 1.206690 0
M  V30 22 H -0.627624 -4.633892 0.217928 0
M  V30 23 H -1.741501 -2.236205 -0.543249 0
M  V30 24 H -0.256112 -2.835565 -1.208151 0
M  V30 25 H 1.766793 -4.702937 -0.317986 0
M  V30 26 H 1.328921 -4.575500 -1.687350 0
M  V30 27 H 0.690323 2.613564 1.730896 0
M  V30 28 H -1.306682 5.296083 2.928978 0
M  V30 29 H -0.171384 4.040906 3.509459 0
M  V30 30 H -0.175691 4.510223 1.775624 0
M  V30 31 H -3.440247 1.322444 1.780521 0
M  V30 32 H -2.725448 -0.864466 0.778336 0
M  V30 END ATOM
M  V30 BEGIN BOND
M  V30 1 1 1 2
M  V30 2 1 2 3
M  V30 3 1 3 4
M  V30 4 1 4 5
M  V30 5 2 5 6
M  V30 6 1 6 7
M  V30 7 1 7 8
M  V30 8 2 8 9
M  V30 9 1 9 10
M  V30 10 2 4 11
M  V30 11 1 11 12
M  V30 12 2 12 13
M  V30 13 1 13 14
M  V30 14 1 14 15
M  V30 15 1 15 16
M  V30 16 2 14 17
M  V30 17 1 17 18
M  V30 18 2 18 19
M  V30 19 1 19 3
M  V30 20 1 9 5
M  V30 21 1 19 12
M  V30 22 1 1 20
M  V30 23 1 1 21
M  V30 24 1 1 22
M  V30 25 1 2 23
M  V30 26 1 2 24
M  V30 27 1 10 25
M  V30 28 1 10 26
M  V30 29 1 13 27
M  V30 30 1 16 28
M  V30 31 1 16 29
M  V30 32 1 16 30
M  V30 33 1 17 31
M  V30 34 1 18 32
M  V30 END BOND
M  V30 END CTAB
M  END
>  <Dataset>  (668) 
ChEMBL_Kinases

>  <Ligand_Instance>  (668) 
nan

>  <PDB_ID>  (668) 
nan

>  <Standardized_SMILES>  (668) 
CCn1c(-c2nonc2N)nc2cc(OC)ccc21

>  <Name>  (668) 
nan

>  <Pocket>  (668) 
nan

>  <ATP_Site>  (668) 
nan

>  <Peripheral>  (668) 
nan

>  <Num_H_Atoms_ProtBoundConf>  (668) 
nan

>  <Num_Resolved_Atoms>  (668) 
nan

>  <Num_Not_Resolved_Atoms>  (668) 
nan

$$$$
CHEMBL362710
     RDKit          3D

  0  0  0  0  0  0  0  0  0  0999 V3000
M  V30 BEGIN CTAB
M  V30 COUNTS 31 34 0 0 0
M  V30 BEGIN ATOM
M  V30 1 N 0.987019 -1.091276 5.769857 0
M  V30 2 C 1.105874 -0.960365 4.303612 0
M  V30 3 N 1.710870 -1.134431 3.322040 0
M  V30 4 C 1.326129 -0.787235 2.070578 0
M  V30 5 C 2.628976 -1.357590 1.370994 0
M  V30 6 N 3.506578 -1.741331 0.894412 0
M  V30 7 C 4.190839 -2.010010 -0.132939 0
M  V30 8 C 3.505541 -1.644685 -1.203133 0
M  V30 9 S 1.997591 -0.986337 -0.406562 0
M  V30 10 C 0.181724 -0.203911 1.939724 0
M  V30 11 C -0.322222 0.240276 0.651999 0
M  V30 12 C 0.313383 1.333594 0.044966 0
M  V30 13 C -0.036327 1.892705 -1.163822 0
M  V30 14 N -1.060621 1.325309 -1.774345 0
M  V30 15 C -1.751151 0.277844 -1.304262 0
M  V30 16 C -2.810206 -0.318703 -1.928966 0
M  V30 17 C -3.549273 -1.403233 -1.480136 0
M  V30 18 C -3.075084 -1.858999 -0.238912 0
M  V30 19 C -2.009512 -1.336759 0.493780 0
M  V30 20 C -1.398740 -0.276939 -0.096974 0
M  V30 21 S -0.454880 -0.105844 3.640783 0
M  V30 22 H 0.156549 -1.029025 6.365004 0
M  V30 23 H 1.911051 -1.280923 6.247999 0
M  V30 24 H 5.174463 -2.481524 0.082770 0
M  V30 25 H 4.140059 -1.890284 -2.200949 0
M  V30 26 H 1.169097 1.784505 0.577642 0
M  V30 27 H 0.472559 2.734680 -1.601807 0
M  V30 28 H -3.101359 0.124386 -2.893972 0
M  V30 29 H -4.374175 -1.854171 -1.993210 0
M  V30 30 H -3.650918 -2.716900 0.122176 0
M  V30 31 H -1.729196 -1.767134 1.437115 0
M  V30 END ATOM
M  V30 BEGIN BOND
M  V30 1 1 1 2
M  V30 2 2 2 3
M  V30 3 1 3 4
M  V30 4 1 4 5
M  V30 5 2 5 6
M  V30 6 1 6 7
M  V30 7 2 7 8
M  V30 8 1 8 9
M  V30 9 2 4 10
M  V30 10 1 10 11
M  V30 11 2 11 12
M  V30 12 1 12 13
M  V30 13 2 13 14
M  V30 14 1 14 15
M  V30 15 2 15 16
M  V30 16 1 16 17
M  V30 17 2 17 18
M  V30 18 1 18 19
M  V30 19 2 19 20
M  V30 20 1 10 21
M  V30 21 1 21 2
M  V30 22 1 9 5
M  V30 23 1 20 11
M  V30 24 1 20 15
M  V30 25 1 1 22
M  V30 26 1 1 23
M  V30 27 1 7 24
M  V30 28 1 8 25
M  V30 29 1 12 26
M  V30 30 1 13 27
M  V30 31 1 16 28
M  V30 32 1 17 29
M  V30 33 1 18 30
M  V30 34 1 19 31
M  V30 END BOND
M  V30 END CTAB
M  END
>  <Dataset>  (669) 
ChEMBL_Kinases

>  <Ligand_Instance>  (669) 
nan

>  <PDB_ID>  (669) 
nan

>  <Standardized_SMILES>  (669) 
Nc1nc(-c2nccs2)c(-c2ccnc3ccccc23)s1

>  <Name>  (669) 
nan

>  <Pocket>  (669) 
nan

>  <ATP_Site>  (669) 
nan

>  <Peripheral>  (669) 
nan

>  <Num_H_Atoms_ProtBoundConf>  (669) 
nan

>  <Num_Resolved_Atoms>  (669) 
nan

>  <Num_Not_Resolved_Atoms>  (669) 
nan

$$$$
CHEMBL362677
     RDKit          3D

  0  0  0  0  0  0  0  0  0  0999 V3000
M  V30 BEGIN CTAB
M  V30 COUNTS 44 47 0 0 0
M  V30 BEGIN ATOM
M  V30 1 N 3.936319 -7.735485 -1.438800 0
M  V30 2 C 4.573109 -6.669828 -0.778138 0
M  V30 3 O 5.475162 -7.028381 0.020859 0
M  V30 4 C 4.221566 -5.274167 -0.997524 0
M  V30 5 C 4.897494 -4.289770 -0.307617 0
M  V30 6 C 4.595592 -2.960165 -0.486335 0
M  V30 7 C 3.582363 -2.615616 -1.387362 0
M  V30 8 O 3.203101 -1.301330 -1.637903 0
M  V30 9 C 2.205318 -0.691484 -0.889110 0
M  V30 10 C 1.476922 -1.244874 0.150510 0
M  V30 11 C 0.511022 -0.494325 0.796294 0
M  V30 12 C 0.290004 0.809756 0.385030 0
M  V30 13 C -0.724607 1.629156 1.047487 0
M  V30 14 N -1.518429 1.245003 2.071280 0
M  V30 15 C -2.336594 2.259473 2.430759 0
M  V30 16 C -3.318863 2.403628 3.391936 0
M  V30 17 C -3.961161 3.622936 3.465570 0
M  V30 18 C -5.021080 3.853332 4.465674 0
M  V30 19 N -5.387421 2.795447 5.371805 0
M  V30 20 O -5.682002 4.909306 4.639807 0
M  V30 21 C -3.689353 4.705682 2.645897 0
M  V30 22 C -2.708612 4.561288 1.686406 0
M  V30 23 C -2.051220 3.332843 1.601405 0
M  V30 24 N -1.067132 2.911765 0.774829 0
M  V30 25 C 1.007616 1.376347 -0.649738 0
M  V30 26 C 1.974262 0.626810 -1.296805 0
M  V30 27 C 2.940177 -3.648694 -2.049981 0
M  V30 28 C 3.215615 -4.987158 -1.896097 0
M  V30 29 H 3.036656 -7.926739 -1.929769 0
M  V30 30 H 3.092828 -8.056750 -1.946899 0
M  V30 31 H 5.674657 -4.596782 0.380393 0
M  V30 32 H 5.105267 -2.166087 0.037664 0
M  V30 33 H 1.732294 -2.261677 0.383869 0
M  V30 34 H -0.039643 -0.948932 1.600168 0
M  V30 35 H -3.572747 1.586141 4.061895 0
M  V30 36 H -5.536944 1.768421 5.233459 0
M  V30 37 H -5.571478 2.923131 6.389988 0
M  V30 38 H -4.196370 5.640908 2.717425 0
M  V30 39 H -2.459349 5.382213 1.019471 0
M  V30 40 H -0.641161 3.487346 0.043139 0
M  V30 41 H 0.811749 2.403361 -0.950687 0
M  V30 42 H 2.497936 1.125377 -2.093878 0
M  V30 43 H 2.148732 -3.385147 -2.754182 0
M  V30 44 H 2.676293 -5.747097 -2.444607 0
M  V30 END ATOM
M  V30 BEGIN BOND
M  V30 1 1 1 2
M  V30 2 2 2 3
M  V30 3 1 2 4
M  V30 4 2 4 5
M  V30 5 1 5 6
M  V30 6 2 6 7
M  V30 7 1 7 8
M  V30 8 1 8 9
M  V30 9 2 9 10
M  V30 10 1 10 11
M  V30 11 2 11 12
M  V30 12 1 12 13
M  V30 13 2 13 14
M  V30 14 1 14 15
M  V30 15 2 15 16
M  V30 16 1 16 17
M  V30 17 1 17 18
M  V30 18 1 18 19
M  V30 19 2 18 20
M  V30 20 2 17 21
M  V30 21 1 21 22
M  V30 22 2 22 23
M  V30 23 1 23 24
M  V30 24 1 12 25
M  V30 25 2 25 26
M  V30 26 1 7 27
M  V30 27 2 27 28
M  V30 28 1 28 4
M  V30 29 1 26 9
M  V30 30 1 24 13
M  V30 31 1 23 15
M  V30 32 1 1 29
M  V30 33 1 1 30
M  V30 34 1 5 31
M  V30 35 1 6 32
M  V30 36 1 10 33
M  V30 37 1 11 34
M  V30 38 1 16 35
M  V30 39 1 19 36
M  V30 40 1 19 37
M  V30 41 1 21 38
M  V30 42 1 22 39
M  V30 43 1 24 40
M  V30 44 1 25 41
M  V30 45 1 26 42
M  V30 46 1 27 43
M  V30 47 1 28 44
M  V30 END BOND
M  V30 END CTAB
M  END
>  <Dataset>  (670) 
ChEMBL_Kinases

>  <Ligand_Instance>  (670) 
nan

>  <PDB_ID>  (670) 
nan

>  <Standardized_SMILES>  (670) 
NC(=O)c1ccc(Oc2ccc(-c3nc4cc(C(N)=O)ccc4[nH]3)cc2)cc1

>  <Name>  (670) 
nan

>  <Pocket>  (670) 
nan

>  <ATP_Site>  (670) 
nan

>  <Peripheral>  (670) 
nan

>  <Num_H_Atoms_ProtBoundConf>  (670) 
nan

>  <Num_Resolved_Atoms>  (670) 
nan

>  <Num_Not_Resolved_Atoms>  (670) 
nan

$$$$
CHEMBL362562
     RDKit          3D

  0  0  0  0  0  0  0  0  0  0999 V3000
M  V30 BEGIN CTAB
M  V30 COUNTS 29 31 0 0 0
M  V30 BEGIN ATOM
M  V30 1 O -2.260004 -0.516506 3.583452 0
M  V30 2 C -0.969841 -0.955996 3.330062 0
M  V30 3 N -0.044041 -1.591837 4.077568 0
M  V30 4 N 1.059604 -1.802080 3.379810 0
M  V30 5 C 0.875504 -1.305240 2.157308 0
M  V30 6 C 1.892050 -1.356387 1.091622 0
M  V30 7 C 2.359158 -0.166566 0.584153 0
M  V30 8 C 3.325061 -0.246791 -0.425703 0
M  V30 9 N 3.755873 -1.436842 -0.858211 0
M  V30 10 C 3.290209 -2.592617 -0.352851 0
M  V30 11 C 2.326034 -2.602434 0.656671 0
M  V30 12 C -0.408962 -0.756727 2.087811 0
M  V30 13 C -0.886649 -0.128110 0.843342 0
M  V30 14 C -1.263468 1.200725 0.885330 0
M  V30 15 C -1.711986 1.772643 -0.312474 0
M  V30 16 C -1.749685 0.985729 -1.446149 0
M  V30 17 F -2.178824 1.503484 -2.628946 0
M  V30 18 C -1.364743 -0.339433 -1.449564 0
M  V30 19 C -0.912656 -0.940561 -0.272233 0
M  V30 20 H -3.058013 -0.982604 3.191217 0
M  V30 21 H -0.352959 -1.804703 5.061206 0
M  V30 22 H 1.962574 0.759321 0.984638 0
M  V30 23 H 3.657276 0.716361 -0.789581 0
M  V30 24 H 3.647574 -3.567751 -0.712396 0
M  V30 25 H 1.952540 -3.531325 1.061770 0
M  V30 26 H -1.215281 1.777879 1.804604 0
M  V30 27 H -2.013799 2.804548 -0.318922 0
M  V30 28 H -1.389035 -0.975000 -2.338879 0
M  V30 29 H -0.600616 -1.973578 -0.225958 0
M  V30 END ATOM
M  V30 BEGIN BOND
M  V30 1 1 1 2
M  V30 2 1 2 3
M  V30 3 1 3 4
M  V30 4 2 4 5
M  V30 5 1 5 6
M  V30 6 2 6 7
M  V30 7 1 7 8
M  V30 8 2 8 9
M  V30 9 1 9 10
M  V30 10 2 10 11
M  V30 11 1 5 12
M  V30 12 1 12 13
M  V30 13 2 13 14
M  V30 14 1 14 15
M  V30 15 2 15 16
M  V30 16 1 16 17
M  V30 17 1 16 18
M  V30 18 2 18 19
M  V30 19 2 12 2
M  V30 20 1 19 13
M  V30 21 1 11 6
M  V30 22 1 1 20
M  V30 23 1 3 21
M  V30 24 1 7 22
M  V30 25 1 8 23
M  V30 26 1 10 24
M  V30 27 1 11 25
M  V30 28 1 14 26
M  V30 29 1 15 27
M  V30 30 1 18 28
M  V30 31 1 19 29
M  V30 END BOND
M  V30 END CTAB
M  END
>  <Dataset>  (671) 
ChEMBL_Kinases

>  <Ligand_Instance>  (671) 
nan

>  <PDB_ID>  (671) 
nan

>  <Standardized_SMILES>  (671) 
Oc1[nH]nc(-c2ccncc2)c1-c1ccc(F)cc1

>  <Name>  (671) 
nan

>  <Pocket>  (671) 
nan

>  <ATP_Site>  (671) 
nan

>  <Peripheral>  (671) 
nan

>  <Num_H_Atoms_ProtBoundConf>  (671) 
nan

>  <Num_Resolved_Atoms>  (671) 
nan

>  <Num_Not_Resolved_Atoms>  (671) 
nan

$$$$
CHEMBL362494
     RDKit          3D

  0  0  0  0  0  0  0  0  0  0999 V3000
M  V30 BEGIN CTAB
M  V30 COUNTS 32 34 0 0 0
M  V30 BEGIN ATOM
M  V30 1 C 1.441317 -0.324864 3.802663 0
M  V30 2 C 0.391244 -1.324410 3.343453 0
M  V30 3 N -0.178316 -0.932908 2.085924 0
M  V30 4 C 0.190753 -1.222252 0.828322 0
M  V30 5 C 1.324595 -2.050958 0.464582 0
M  V30 6 N 2.210729 -2.680058 1.259255 0
M  V30 7 O 3.073566 -3.318728 0.516312 0
M  V30 8 N 2.844734 -3.174368 -0.740070 0
M  V30 9 C 1.742451 -2.376141 -0.818076 0
M  V30 10 N 1.069172 -1.907839 -1.983582 0
M  V30 11 C 1.497069 -0.662036 -2.548790 0
M  V30 12 C 0.938191 0.011148 -3.756930 0
M  V30 13 O 2.452802 -0.047351 -1.976921 0
M  V30 14 N -0.637185 -0.636616 -0.038415 0
M  V30 15 C -1.576764 0.057079 0.668699 0
M  V30 16 C -2.661234 0.837880 0.330333 0
M  V30 17 N -3.428767 1.411178 1.293277 0
M  V30 18 C -3.178348 1.252061 2.602481 0
M  V30 19 C -2.095035 0.472477 2.962720 0
M  V30 20 C -1.279227 -0.135725 2.006431 0
M  V30 21 H 2.321053 -0.414314 3.166591 0
M  V30 22 H 1.647734 -0.413584 4.883418 0
M  V30 23 H 0.975544 0.682591 3.636634 0
M  V30 24 H -0.379634 -1.403213 4.146794 0
M  V30 25 H 0.904397 -2.301849 3.261948 0
M  V30 26 H 0.282370 -2.329959 -2.525380 0
M  V30 27 H 0.240926 -0.677862 -4.280782 0
M  V30 28 H 0.353178 0.871641 -3.426128 0
M  V30 29 H 1.739903 0.387385 -4.437005 0
M  V30 30 H -2.900456 0.993174 -0.729233 0
M  V30 31 H -3.779362 1.701549 3.389449 0
M  V30 32 H -1.849517 0.312575 4.019397 0
M  V30 END ATOM
M  V30 BEGIN BOND
M  V30 1 1 1 2
M  V30 2 1 2 3
M  V30 3 1 3 4
M  V30 4 1 4 5
M  V30 5 2 5 6
M  V30 6 1 6 7
M  V30 7 1 7 8
M  V30 8 2 8 9
M  V30 9 1 9 10
M  V30 10 1 10 11
M  V30 11 1 11 12
M  V30 12 2 11 13
M  V30 13 2 4 14
M  V30 14 1 14 15
M  V30 15 2 15 16
M  V30 16 1 16 17
M  V30 17 2 17 18
M  V30 18 1 18 19
M  V30 19 2 19 20
M  V30 20 1 20 3
M  V30 21 1 9 5
M  V30 22 1 20 15
M  V30 23 1 1 21
M  V30 24 1 1 22
M  V30 25 1 1 23
M  V30 26 1 2 24
M  V30 27 1 2 25
M  V30 28 1 10 26
M  V30 29 1 12 27
M  V30 30 1 12 28
M  V30 31 1 12 29
M  V30 32 1 16 30
M  V30 33 1 18 31
M  V30 34 1 19 32
M  V30 END BOND
M  V30 END CTAB
M  END
>  <Dataset>  (672) 
ChEMBL_Kinases

>  <Ligand_Instance>  (672) 
nan

>  <PDB_ID>  (672) 
nan

>  <Standardized_SMILES>  (672) 
CCn1c(-c2nonc2NC(C)=O)nc2cnccc21

>  <Name>  (672) 
nan

>  <Pocket>  (672) 
nan

>  <ATP_Site>  (672) 
nan

>  <Peripheral>  (672) 
nan

>  <Num_H_Atoms_ProtBoundConf>  (672) 
nan

>  <Num_Resolved_Atoms>  (672) 
nan

>  <Num_Not_Resolved_Atoms>  (672) 
nan

$$$$
CHEMBL362455
     RDKit          3D

  0  0  0  0  0  0  0  0  0  0999 V3000
M  V30 BEGIN CTAB
M  V30 COUNTS 47 50 0 0 0
M  V30 BEGIN ATOM
M  V30 1 C -0.192615 -4.166681 4.360475 0
M  V30 2 C -0.466523 -4.264812 2.872893 0
M  V30 3 C 0.276364 -5.438443 2.328911 0
M  V30 4 N -1.894486 -4.501671 2.747930 0
M  V30 5 C -0.076481 -2.967632 2.246295 0
M  V30 6 C 0.439688 -1.880883 2.958053 0
M  V30 7 C 0.771415 -0.720677 2.272122 0
M  V30 8 C 0.608891 -0.600916 0.904118 0
M  V30 9 C 1.014745 0.691607 0.368389 0
M  V30 10 N 2.289288 1.100967 0.510687 0
M  V30 11 C 2.735023 2.283274 0.041209 0
M  V30 12 C 4.032275 2.732661 0.169905 0
M  V30 13 C 4.382136 3.958744 -0.347277 0
M  V30 14 C 3.501723 4.793905 -1.004210 0
M  V30 15 C 2.199412 4.357684 -1.140883 0
M  V30 16 C 1.838752 3.109966 -0.615803 0
M  V30 17 N 0.547135 2.720951 -0.772888 0
M  V30 18 C 0.130879 1.521416 -0.286730 0
M  V30 19 C -1.264481 1.139872 -0.475573 0
M  V30 20 C -2.246894 0.904281 0.458632 0
M  V30 21 C -3.511246 0.551347 0.033674 0
M  V30 22 C -3.824317 0.426464 -1.302327 0
M  V30 23 C -2.845933 0.660348 -2.255912 0
M  V30 24 C -1.567946 1.016835 -1.832475 0
M  V30 25 C 0.093024 -1.689148 0.198721 0
M  V30 26 C -0.236638 -2.842497 0.881373 0
M  V30 27 H 0.890420 -3.943175 4.502044 0
M  V30 28 H -0.839388 -3.436497 4.869948 0
M  V30 29 H -0.374311 -5.178799 4.793941 0
M  V30 30 H -0.086213 -5.766194 1.330266 0
M  V30 31 H 1.362608 -5.208219 2.332173 0
M  V30 32 H 0.112466 -6.287036 3.026471 0
M  V30 33 H -2.282357 -4.168747 1.835918 0
M  V30 34 H -2.426302 -4.064782 3.545985 0
M  V30 35 H 0.558722 -1.991143 4.019246 0
M  V30 36 H 1.165370 0.065442 2.921032 0
M  V30 37 H 4.711267 2.068739 0.686404 0
M  V30 38 H 5.418411 4.269676 -0.219706 0
M  V30 39 H 3.823429 5.751241 -1.395402 0
M  V30 40 H 1.461002 4.948158 -1.636825 0
M  V30 41 H -1.896437 1.029484 1.471349 0
M  V30 42 H -4.243902 0.378928 0.828144 0
M  V30 43 H -4.841115 0.145192 -1.579306 0
M  V30 44 H -3.126821 0.553736 -3.295696 0
M  V30 45 H -0.892726 1.172539 -2.664852 0
M  V30 46 H -0.004873 -1.521381 -0.862127 0
M  V30 47 H -0.632357 -3.658395 0.293278 0
M  V30 END ATOM
M  V30 BEGIN BOND
M  V30 1 1 1 2
M  V30 2 1 2 3
M  V30 3 1 2 4
M  V30 4 1 2 5
M  V30 5 2 5 6
M  V30 6 1 6 7
M  V30 7 2 7 8
M  V30 8 1 8 9
M  V30 9 2 9 10
M  V30 10 1 10 11
M  V30 11 2 11 12
M  V30 12 1 12 13
M  V30 13 2 13 14
M  V30 14 1 14 15
M  V30 15 2 15 16
M  V30 16 1 16 17
M  V30 17 2 17 18
M  V30 18 1 18 19
M  V30 19 2 19 20
M  V30 20 1 20 21
M  V30 21 2 21 22
M  V30 22 1 22 23
M  V30 23 2 23 24
M  V30 24 1 8 25
M  V30 25 2 25 26
M  V30 26 1 26 5
M  V30 27 1 18 9
M  V30 28 1 24 19
M  V30 29 1 16 11
M  V30 30 1 1 27
M  V30 31 1 1 28
M  V30 32 1 1 29
M  V30 33 1 3 30
M  V30 34 1 3 31
M  V30 35 1 3 32
M  V30 36 1 4 33
M  V30 37 1 4 34
M  V30 38 1 6 35
M  V30 39 1 7 36
M  V30 40 1 12 37
M  V30 41 1 13 38
M  V30 42 1 14 39
M  V30 43 1 15 40
M  V30 44 1 20 41
M  V30 45 1 21 42
M  V30 46 1 22 43
M  V30 47 1 23 44
M  V30 48 1 24 45
M  V30 49 1 25 46
M  V30 50 1 26 47
M  V30 END BOND
M  V30 END CTAB
M  END
>  <Dataset>  (673) 
ChEMBL_Kinases

>  <Ligand_Instance>  (673) 
nan

>  <PDB_ID>  (673) 
nan

>  <Standardized_SMILES>  (673) 
CC(C)(N)c1ccc(-c2nc3ccccc3nc2-c2ccccc2)cc1

>  <Name>  (673) 
nan

>  <Pocket>  (673) 
nan

>  <ATP_Site>  (673) 
nan

>  <Peripheral>  (673) 
nan

>  <Num_H_Atoms_ProtBoundConf>  (673) 
nan

>  <Num_Resolved_Atoms>  (673) 
nan

>  <Num_Not_Resolved_Atoms>  (673) 
nan

$$$$
CHEMBL3623375
     RDKit          3D

  0  0  0  0  0  0  0  0  0  0999 V3000
M  V30 BEGIN CTAB
M  V30 COUNTS 67 70 0 0 0
M  V30 BEGIN ATOM
M  V30 1 C 4.572521 -2.518277 7.270647 0
M  V30 2 N 4.321089 -1.475289 6.323291 0
M  V30 3 C 3.563322 -0.415071 6.967474 0
M  V30 4 C 5.511684 -0.896750 5.772863 0
M  V30 5 C 6.214778 -1.889682 4.902105 0
M  V30 6 C 5.402019 -2.381104 3.737959 0
M  V30 7 N 4.972526 -1.378760 2.821270 0
M  V30 8 C 5.831803 -0.537609 2.082471 0
M  V30 9 O 7.004981 -0.857087 2.399381 0
M  V30 10 C 5.527302 0.509636 1.129467 0
M  V30 11 C 6.721053 1.044351 0.703015 0
M  V30 12 S 6.182309 2.335110 -0.480631 0
M  V30 13 C 4.402193 1.975774 -0.238342 0
M  V30 14 N 3.158629 2.350525 -0.632391 0
M  V30 15 C 2.292341 1.565114 0.033025 0
M  V30 16 C 0.854505 1.686436 -0.142374 0
M  V30 17 C 0.039765 0.829517 0.588424 0
M  V30 18 C -1.332436 0.903308 0.459130 0
M  V30 19 C -1.916056 1.823285 -0.392399 0
M  V30 20 N -3.337517 1.902073 -0.530095 0
M  V30 21 C -3.885385 1.068907 -1.567303 0
M  V30 22 O -3.003166 0.392537 -2.198632 0
M  V30 23 N -5.251248 0.965731 -1.902173 0
M  V30 24 C -5.718249 0.125625 -2.937568 0
M  V30 25 C -6.107106 -1.195466 -2.859227 0
M  V30 26 C -6.493400 -1.615028 -4.123333 0
M  V30 27 C -6.993288 -2.972344 -4.536273 0
M  V30 28 C -7.303322 -2.941400 -6.011976 0
M  V30 29 C -8.284083 -3.230261 -3.793437 0
M  V30 30 C -5.970925 -4.045200 -4.227687 0
M  V30 31 O -6.333183 -0.574815 -4.900862 0
M  V30 32 N -5.884897 0.448515 -4.240476 0
M  V30 33 C -1.092202 2.671555 -1.114983 0
M  V30 34 C 0.279861 2.602686 -0.990264 0
M  V30 35 C 3.084875 0.748589 0.802989 0
M  V30 36 N 4.391685 0.997023 0.640330 0
M  V30 37 H 5.653794 -2.743634 7.437226 0
M  V30 38 H 4.043234 -3.474261 7.006220 0
M  V30 39 H 4.156845 -2.242131 8.260414 0
M  V30 40 H 2.482239 -0.652062 6.841380 0
M  V30 41 H 3.791683 0.526843 6.428469 0
M  V30 42 H 3.866095 -0.348541 8.031916 0
M  V30 43 H 6.233741 -0.567254 6.553212 0
M  V30 44 H 5.211212 -0.028318 5.135506 0
M  V30 45 H 7.208769 -1.499640 4.611140 0
M  V30 46 H 6.458288 -2.767480 5.569013 0
M  V30 47 H 4.510223 -2.923081 4.113625 0
M  V30 48 H 6.025005 -3.179281 3.251689 0
M  V30 49 H 3.932126 -1.232087 2.663481 0
M  V30 50 H 7.765868 1.039068 0.754895 0
M  V30 51 H 0.456783 0.096772 1.264672 0
M  V30 52 H -1.972131 0.229213 1.034099 0
M  V30 53 H -4.018380 2.476331 0.016374 0
M  V30 54 H -5.822042 1.593446 -1.276076 0
M  V30 55 H -6.120997 -1.822781 -1.983576 0
M  V30 56 H -6.800237 -3.776575 -6.565648 0
M  V30 57 H -7.030504 -1.954294 -6.458527 0
M  V30 58 H -8.384151 -3.095814 -6.203317 0
M  V30 59 H -8.900669 -4.005808 -4.312112 0
M  V30 60 H -8.909167 -2.324920 -3.719568 0
M  V30 61 H -8.069739 -3.656822 -2.777940 0
M  V30 62 H -6.420378 -4.939412 -3.721853 0
M  V30 63 H -5.219855 -3.595967 -3.562812 0
M  V30 64 H -5.420889 -4.375426 -5.154516 0
M  V30 65 H -1.519258 3.391431 -1.780146 0
M  V30 66 H 0.893293 3.274958 -1.564384 0
M  V30 67 H 2.507185 0.055157 1.398504 0
M  V30 END ATOM
M  V30 BEGIN BOND
M  V30 1 1 1 2
M  V30 2 1 2 3
M  V30 3 1 2 4
M  V30 4 1 4 5
M  V30 5 1 5 6
M  V30 6 1 6 7
M  V30 7 1 7 8
M  V30 8 2 8 9
M  V30 9 1 8 10
M  V30 10 2 10 11
M  V30 11 1 11 12
M  V30 12 1 12 13
M  V30 13 2 13 14
M  V30 14 1 14 15
M  V30 15 1 15 16
M  V30 16 2 16 17
M  V30 17 1 17 18
M  V30 18 2 18 19
M  V30 19 1 19 20
M  V30 20 1 20 21
M  V30 21 2 21 22
M  V30 22 1 21 23
M  V30 23 1 23 24
M  V30 24 1 24 25
M  V30 25 2 25 26
M  V30 26 1 26 27
M  V30 27 1 27 28
M  V30 28 1 27 29
M  V30 29 1 27 30
M  V30 30 1 26 31
M  V30 31 1 31 32
M  V30 32 1 19 33
M  V30 33 2 33 34
M  V30 34 2 15 35
M  V30 35 1 35 36
M  V30 36 1 36 10
M  V30 37 1 36 13
M  V30 38 1 34 16
M  V30 39 2 32 24
M  V30 40 1 1 37
M  V30 41 1 1 38
M  V30 42 1 1 39
M  V30 43 1 3 40
M  V30 44 1 3 41
M  V30 45 1 3 42
M  V30 46 1 4 43
M  V30 47 1 4 44
M  V30 48 1 5 45
M  V30 49 1 5 46
M  V30 50 1 6 47
M  V30 51 1 6 48
M  V30 52 1 7 49
M  V30 53 1 11 50
M  V30 54 1 17 51
M  V30 55 1 18 52
M  V30 56 1 20 53
M  V30 57 1 23 54
M  V30 58 1 25 55
M  V30 59 1 28 56
M  V30 60 1 28 57
M  V30 61 1 28 58
M  V30 62 1 29 59
M  V30 63 1 29 60
M  V30 64 1 29 61
M  V30 65 1 30 62
M  V30 66 1 30 63
M  V30 67 1 30 64
M  V30 68 1 33 65
M  V30 69 1 34 66
M  V30 70 1 35 67
M  V30 END BOND
M  V30 END CTAB
M  END
>  <Dataset>  (674) 
ChEMBL_Kinases

>  <Ligand_Instance>  (674) 
nan

>  <PDB_ID>  (674) 
nan

>  <Standardized_SMILES>  (674) 
CN(C)CCCNC(=O)c1csc2nc(-c3ccc(NC(=O)Nc4cc(C(C)(C)C)on4)cc3)cn12

>  <Name>  (674) 
nan

>  <Pocket>  (674) 
nan

>  <ATP_Site>  (674) 
nan

>  <Peripheral>  (674) 
nan

>  <Num_H_Atoms_ProtBoundConf>  (674) 
nan

>  <Num_Resolved_Atoms>  (674) 
nan

>  <Num_Not_Resolved_Atoms>  (674) 
nan

$$$$
CHEMBL3623162
     RDKit          3D

  0  0  0  0  0  0  0  0  0  0999 V3000
M  V30 BEGIN CTAB
M  V30 COUNTS 57 60 0 0 0
M  V30 BEGIN ATOM
M  V30 1 C -0.539803 -4.831131 3.154641 0
M  V30 2 N -0.239456 -3.400820 3.276584 0
M  V30 3 N 0.243891 -2.875438 4.399588 0
M  V30 4 C 0.420728 -1.533938 4.210753 0
M  V30 5 C 0.004466 -1.319375 2.894788 0
M  V30 6 N 0.066151 -0.014149 2.348730 0
M  V30 7 C -0.675022 1.200667 2.238235 0
M  V30 8 O -1.794448 1.228090 2.797259 0
M  V30 9 C -0.135927 2.338433 1.507104 0
M  V30 10 N 1.000866 2.391033 0.809699 0
M  V30 11 C 1.416834 3.259328 0.218397 0
M  V30 12 C 2.641448 3.540755 -0.640179 0
M  V30 13 C 2.773694 4.773842 -1.249541 0
M  V30 14 F 1.871267 5.754733 -1.122224 0
M  V30 15 C 3.926729 4.924122 -2.017101 0
M  V30 16 C 4.855398 3.894786 -2.142136 0
M  V30 17 C 4.624269 2.705586 -1.491694 0
M  V30 18 C 3.489916 2.488011 -0.706446 0
M  V30 19 F 3.291120 1.319349 -0.079132 0
M  V30 20 S 0.160784 4.631268 0.425547 0
M  V30 21 C -0.900433 3.486115 1.510566 0
M  V30 22 N -2.125237 3.841290 2.104577 0
M  V30 23 C -0.410627 -2.495938 2.308748 0
M  V30 24 N -0.878830 -2.665846 0.979687 0
M  V30 25 C -2.296571 -2.967242 0.995424 0
M  V30 26 C -2.933108 -3.043816 -0.356018 0
M  V30 27 C -2.193155 -3.814214 -1.387534 0 CFG=1
M  V30 28 C -1.812545 -5.164863 -0.826041 0
M  V30 29 N -3.182472 -4.107058 -2.441219 0
M  V30 30 C -1.081140 -3.108059 -2.091004 0
M  V30 31 C -0.481041 -1.971951 -1.308928 0
M  V30 32 F -1.356545 -0.929410 -1.077705 0
M  V30 33 F 0.555245 -1.456492 -2.060684 0
M  V30 34 C 0.155960 -2.490299 -0.017627 0
M  V30 35 H -1.570360 -5.071296 3.495696 0
M  V30 36 H -0.449140 -5.185945 2.121206 0
M  V30 37 H 0.187772 -5.388550 3.776632 0
M  V30 38 H 0.801387 -0.925613 5.000705 0
M  V30 39 H 1.014831 0.044940 1.865162 0
M  V30 40 H 4.078254 5.890003 -2.522703 0
M  V30 41 H 5.752704 4.047725 -2.758553 0
M  V30 42 H 5.337565 1.872100 -1.567979 0
M  V30 43 H -2.099857 4.658193 2.786859 0
M  V30 44 H -2.977031 3.288633 1.845329 0
M  V30 45 H -2.495907 -3.913163 1.552498 0
M  V30 46 H -2.793481 -2.153306 1.565249 0
M  V30 47 H -3.894562 -3.621777 -0.187342 0
M  V30 48 H -3.316306 -2.055277 -0.710867 0
M  V30 49 H -0.923534 -5.178440 -0.202411 0
M  V30 50 H -2.692822 -5.591364 -0.312751 0
M  V30 51 H -1.648326 -5.845065 -1.713055 0
M  V30 52 H -3.986924 -4.630159 -2.028436 0
M  V30 53 H -2.669301 -4.652434 -3.157770 0
M  V30 54 H -1.376130 -2.691595 -3.073968 0
M  V30 55 H -0.261081 -3.830381 -2.275498 0
M  V30 56 H 0.689153 -3.415386 -0.274881 0
M  V30 57 H 0.892701 -1.752962 0.302853 0
M  V30 END ATOM
M  V30 BEGIN BOND
M  V30 1 1 1 2
M  V30 2 1 2 3
M  V30 3 2 3 4
M  V30 4 1 4 5
M  V30 5 1 5 6
M  V30 6 1 6 7
M  V30 7 2 7 8
M  V30 8 1 7 9
M  V30 9 1 9 10
M  V30 10 2 10 11
M  V30 11 1 11 12
M  V30 12 2 12 13
M  V30 13 1 13 14
M  V30 14 1 13 15
M  V30 15 2 15 16
M  V30 16 1 16 17
M  V30 17 2 17 18
M  V30 18 1 18 19
M  V30 19 1 11 20
M  V30 20 1 20 21
M  V30 21 1 21 22
M  V30 22 2 5 23
M  V30 23 1 23 24
M  V30 24 1 24 25
M  V30 25 1 25 26
M  V30 26 1 26 27
M  V30 27 1 27 28
M  V30 28 1 27 29 CFG=3
M  V30 29 1 27 30
M  V30 30 1 30 31
M  V30 31 1 31 32
M  V30 32 1 31 33
M  V30 33 1 31 34
M  V30 34 1 23 2
M  V30 35 1 34 24
M  V30 36 2 21 9
M  V30 37 1 18 12
M  V30 38 1 1 35
M  V30 39 1 1 36
M  V30 40 1 1 37
M  V30 41 1 4 38
M  V30 42 1 6 39
M  V30 43 1 15 40
M  V30 44 1 16 41
M  V30 45 1 17 42
M  V30 46 1 22 43
M  V30 47 1 22 44
M  V30 48 1 25 45
M  V30 49 1 25 46
M  V30 50 1 26 47
M  V30 51 1 26 48
M  V30 52 1 28 49
M  V30 53 1 28 50
M  V30 54 1 28 51
M  V30 55 1 29 52
M  V30 56 1 29 53
M  V30 57 1 30 54
M  V30 58 1 30 55
M  V30 59 1 34 56
M  V30 60 1 34 57
M  V30 END BOND
M  V30 END CTAB
M  END
>  <Dataset>  (675) 
ChEMBL_Kinases

>  <Ligand_Instance>  (675) 
nan

>  <PDB_ID>  (675) 
nan

>  <Standardized_SMILES>  (675) 
Cn1ncc(NC(=O)c2nc(-c3c(F)cccc3F)sc2N)c1N1CC[C@@](C)(N)CC(F)(F)C1

>  <Name>  (675) 
nan

>  <Pocket>  (675) 
nan

>  <ATP_Site>  (675) 
nan

>  <Peripheral>  (675) 
nan

>  <Num_H_Atoms_ProtBoundConf>  (675) 
nan

>  <Num_Resolved_Atoms>  (675) 
nan

>  <Num_Not_Resolved_Atoms>  (675) 
nan

$$$$
CHEMBL3623150
     RDKit          3D

  0  0  0  0  0  0  0  0  0  0999 V3000
M  V30 BEGIN CTAB
M  V30 COUNTS 54 57 0 0 0
M  V30 BEGIN ATOM
M  V30 1 C 0.513754 -5.450130 1.724419 0
M  V30 2 N 0.616970 -4.086567 2.153726 0
M  V30 3 N 1.158648 -3.660106 3.279952 0
M  V30 4 C 1.044017 -2.295494 3.303056 0
M  V30 5 C 0.396730 -1.918958 2.116774 0
M  V30 6 N 0.242764 -0.515552 2.056075 0
M  V30 7 C -0.765838 0.360000 2.494461 0
M  V30 8 O -1.791434 -0.150846 3.077034 0
M  V30 9 C -0.815328 1.801900 2.379895 0
M  V30 10 N 0.177257 2.444635 1.772758 0
M  V30 11 C 0.238319 3.625534 1.631218 0
M  V30 12 C 1.272124 4.538746 0.990355 0
M  V30 13 C 1.059113 5.897369 1.052800 0
M  V30 14 F -0.011736 6.437592 1.654006 0
M  V30 15 C 2.058866 6.662079 0.435326 0
M  V30 16 C 3.136121 6.040999 -0.164394 0
M  V30 17 C 3.288034 4.667939 -0.190652 0
M  V30 18 C 2.311839 3.884761 0.414147 0
M  V30 19 F 2.434851 2.529716 0.401194 0
M  V30 20 S -1.252549 4.302046 2.393779 0
M  V30 21 C -1.861734 2.576317 2.887488 0
M  V30 22 N -3.048033 2.209702 3.576743 0
M  V30 23 C 0.143271 -3.072871 1.417683 0
M  V30 24 N -0.498976 -2.934049 0.159577 0
M  V30 25 C -1.884393 -3.304561 0.161196 0
M  V30 26 C -2.422436 -3.835487 -1.120261 0
M  V30 27 C -1.545562 -4.753454 -1.886824 0 CFG=1
M  V30 28 N -2.257148 -5.046543 -3.143598 0
M  V30 29 C -0.187445 -4.288185 -2.223728 0
M  V30 30 C 0.021666 -2.801745 -2.175484 0
M  V30 31 F -1.011601 -2.049650 -2.633450 0
M  V30 32 F 1.099994 -2.543662 -3.035189 0
M  V30 33 C 0.485706 -2.427034 -0.791391 0
M  V30 34 H 1.420527 -6.071790 1.996765 0
M  V30 35 H -0.327037 -5.994893 2.208928 0
M  V30 36 H 0.401245 -5.570188 0.644346 0
M  V30 37 H 1.469567 -1.839388 4.211627 0
M  V30 38 H 1.025254 -0.022982 1.599393 0
M  V30 39 H 1.978132 7.739886 0.436429 0
M  V30 40 H 3.927650 6.628321 -0.652081 0
M  V30 41 H 4.114573 4.135794 -0.648233 0
M  V30 42 H -3.845157 1.980452 2.928360 0
M  V30 43 H -3.033926 2.197966 4.620057 0
M  V30 44 H -2.504108 -2.428247 0.446505 0
M  V30 45 H -2.046749 -4.059650 0.982048 0
M  V30 46 H -2.881053 -3.060085 -1.789945 0
M  V30 47 H -3.323842 -4.458867 -0.830430 0
M  V30 48 H -1.458220 -5.764233 -1.397531 0
M  V30 49 H -1.940123 -5.968041 -3.518097 0
M  V30 50 H -2.151553 -4.247388 -3.792892 0
M  V30 51 H 0.592234 -4.760264 -1.578344 0
M  V30 52 H 0.078017 -4.669033 -3.253723 0
M  V30 53 H 1.495612 -2.819329 -0.611308 0
M  V30 54 H 0.554088 -1.315936 -0.761868 0
M  V30 END ATOM
M  V30 BEGIN BOND
M  V30 1 1 1 2
M  V30 2 1 2 3
M  V30 3 2 3 4
M  V30 4 1 4 5
M  V30 5 1 5 6
M  V30 6 1 6 7
M  V30 7 2 7 8
M  V30 8 1 7 9
M  V30 9 1 9 10
M  V30 10 2 10 11
M  V30 11 1 11 12
M  V30 12 2 12 13
M  V30 13 1 13 14
M  V30 14 1 13 15
M  V30 15 2 15 16
M  V30 16 1 16 17
M  V30 17 2 17 18
M  V30 18 1 18 19
M  V30 19 1 11 20
M  V30 20 1 20 21
M  V30 21 1 21 22
M  V30 22 2 5 23
M  V30 23 1 23 24
M  V30 24 1 24 25
M  V30 25 1 25 26
M  V30 26 1 26 27
M  V30 27 1 27 28
M  V30 28 1 27 29
M  V30 29 1 29 30
M  V30 30 1 30 31
M  V30 31 1 30 32
M  V30 32 1 30 33
M  V30 33 1 23 2
M  V30 34 1 33 24
M  V30 35 2 21 9
M  V30 36 1 18 12
M  V30 37 1 1 34
M  V30 38 1 1 35
M  V30 39 1 1 36
M  V30 40 1 4 37
M  V30 41 1 6 38
M  V30 42 1 15 39
M  V30 43 1 16 40
M  V30 44 1 17 41
M  V30 45 1 22 42
M  V30 46 1 22 43
M  V30 47 1 25 44
M  V30 48 1 25 45
M  V30 49 1 26 46
M  V30 50 1 26 47
M  V30 51 1 27 48 CFG=1
M  V30 52 1 28 49
M  V30 53 1 28 50
M  V30 54 1 29 51
M  V30 55 1 29 52
M  V30 56 1 33 53
M  V30 57 1 33 54
M  V30 END BOND
M  V30 END CTAB
M  END
>  <Dataset>  (676) 
ChEMBL_Kinases

>  <Ligand_Instance>  (676) 
nan

>  <PDB_ID>  (676) 
nan

>  <Standardized_SMILES>  (676) 
Cn1ncc(NC(=O)c2nc(-c3c(F)cccc3F)sc2N)c1N1CC[C@@H](N)CC(F)(F)C1

>  <Name>  (676) 
nan

>  <Pocket>  (676) 
nan

>  <ATP_Site>  (676) 
nan

>  <Peripheral>  (676) 
nan

>  <Num_H_Atoms_ProtBoundConf>  (676) 
nan

>  <Num_Resolved_Atoms>  (676) 
nan

>  <Num_Not_Resolved_Atoms>  (676) 
nan

$$$$
CHEMBL3623139
     RDKit          3D

  0  0  0  0  0  0  0  0  0  0999 V3000
M  V30 BEGIN CTAB
M  V30 COUNTS 48 51 0 0 0
M  V30 BEGIN ATOM
M  V30 1 C 6.562318 -4.683204 4.057273 0
M  V30 2 N 5.294076 -4.027321 3.794562 0
M  V30 3 C 5.504867 -2.723105 3.280812 0
M  V30 4 O 6.611265 -2.144255 3.056319 0
M  V30 5 N 4.441180 -1.846168 2.931639 0
M  V30 6 C 4.321143 -0.495411 2.396164 0
M  V30 7 C 3.130219 -1.048235 1.643242 0
M  V30 8 N 2.111911 -0.137258 1.248419 0
M  V30 9 C 1.727252 -0.153171 -0.120679 0
M  V30 10 O 2.246214 -0.926623 -0.962643 0
M  V30 11 C 0.729441 0.646206 -0.826172 0
M  V30 12 C 1.243161 1.603258 -1.711655 0
M  V30 13 N 0.374040 2.370083 -2.393249 0
M  V30 14 C -0.974079 2.226051 -2.232074 0
M  V30 15 N -1.848196 3.082327 -2.995504 0
M  V30 16 C -1.523186 1.296671 -1.370856 0
M  V30 17 N -2.869410 1.173244 -1.229333 0
M  V30 18 C -3.344113 0.238389 -0.364698 0
M  V30 19 C -4.798128 0.140139 -0.243772 0
M  V30 20 C -5.577495 0.989559 -1.001843 0
M  V30 21 C -6.958928 0.936424 -0.927109 0
M  V30 22 C -7.603692 0.054358 -0.111620 0
M  V30 23 C -6.829620 -0.802456 0.653625 0
M  V30 24 F -7.378421 -1.724051 1.501530 0
M  V30 25 C -5.435696 -0.755895 0.583969 0
M  V30 26 C -2.463643 -0.553131 0.339360 0
M  V30 27 C -1.097245 -0.458451 0.223413 0
M  V30 28 C -0.636453 0.498088 -0.660471 0
M  V30 29 C 2.964847 -1.816049 2.916227 0
M  V30 30 H 7.136865 -4.218149 4.871568 0
M  V30 31 H 7.191468 -4.808185 3.163298 0
M  V30 32 H 6.303010 -5.711723 4.410092 0
M  V30 33 H 4.293455 -4.303306 3.899845 0
M  V30 34 H 4.047649 0.244914 3.170728 0
M  V30 35 H 5.114871 -0.183714 1.699629 0
M  V30 36 H 3.490484 -1.692111 0.811085 0
M  V30 37 H 1.581478 0.561816 1.803677 0
M  V30 38 H 2.295427 1.765418 -1.882833 0
M  V30 39 H -1.857010 4.058916 -2.580595 0
M  V30 40 H -2.327118 2.635336 -3.812639 0
M  V30 41 H -5.157718 1.726762 -1.680646 0
M  V30 42 H -7.579994 1.589281 -1.508404 0
M  V30 43 H -8.669499 -0.064952 0.019288 0
M  V30 44 H -4.859536 -1.435544 1.192078 0
M  V30 45 H -2.842379 -1.294090 1.023906 0
M  V30 46 H -0.409916 -1.077931 0.775803 0
M  V30 47 H 2.604202 -1.142611 3.742791 0
M  V30 48 H 2.464661 -2.777351 2.901178 0
M  V30 END ATOM
M  V30 BEGIN BOND
M  V30 1 1 1 2
M  V30 2 1 2 3
M  V30 3 2 3 4
M  V30 4 1 3 5
M  V30 5 1 5 6
M  V30 6 1 6 7
M  V30 7 1 7 8
M  V30 8 1 8 9
M  V30 9 2 9 10
M  V30 10 1 9 11
M  V30 11 2 11 12
M  V30 12 1 12 13
M  V30 13 2 13 14
M  V30 14 1 14 15
M  V30 15 1 14 16
M  V30 16 2 16 17
M  V30 17 1 17 18
M  V30 18 1 18 19
M  V30 19 2 19 20
M  V30 20 1 20 21
M  V30 21 2 21 22
M  V30 22 1 22 23
M  V30 23 1 23 24
M  V30 24 2 23 25
M  V30 25 2 18 26
M  V30 26 1 26 27
M  V30 27 2 27 28
M  V30 28 1 7 29
M  V30 29 1 29 5
M  V30 30 1 28 11
M  V30 31 1 28 16
M  V30 32 1 25 19
M  V30 33 1 1 30
M  V30 34 1 1 31
M  V30 35 1 1 32
M  V30 36 1 2 33
M  V30 37 1 6 34
M  V30 38 1 6 35
M  V30 39 1 7 36
M  V30 40 1 8 37
M  V30 41 1 12 38
M  V30 42 1 15 39
M  V30 43 1 15 40
M  V30 44 1 20 41
M  V30 45 1 21 42
M  V30 46 1 22 43
M  V30 47 1 25 44
M  V30 48 1 26 45
M  V30 49 1 27 46
M  V30 50 1 29 47
M  V30 51 1 29 48
M  V30 END BOND
M  V30 END CTAB
M  END
>  <Dataset>  (677) 
ChEMBL_Kinases

>  <Ligand_Instance>  (677) 
nan

>  <PDB_ID>  (677) 
nan

>  <Standardized_SMILES>  (677) 
CNC(=O)N1CC(NC(=O)c2cnc(N)c3nc(-c4cccc(F)c4)ccc23)C1

>  <Name>  (677) 
nan

>  <Pocket>  (677) 
nan

>  <ATP_Site>  (677) 
nan

>  <Peripheral>  (677) 
nan

>  <Num_H_Atoms_ProtBoundConf>  (677) 
nan

>  <Num_Resolved_Atoms>  (677) 
nan

>  <Num_Not_Resolved_Atoms>  (677) 
nan

$$$$
CHEMBL3623138
     RDKit          3D

  0  0  0  0  0  0  0  0  0  0999 V3000
M  V30 BEGIN CTAB
M  V30 COUNTS 50 54 0 0 0
M  V30 BEGIN ATOM
M  V30 1 N -2.379224 -4.560140 3.590411 0
M  V30 2 C -1.279343 -3.735364 3.221318 0
M  V30 3 N -0.345211 -3.347248 4.114393 0
M  V30 4 C 0.683781 -2.565984 3.731727 0
M  V30 5 C 0.819647 -2.135879 2.418532 0
M  V30 6 C 1.967216 -1.279459 2.050108 0
M  V30 7 O 3.211672 -1.527030 2.123434 0
M  V30 8 N 1.654224 0.010836 1.537973 0
M  V30 9 C 2.404941 1.119650 1.076344 0
M  V30 10 C 2.052635 1.776356 -0.205695 0
M  V30 11 N 2.567402 3.003322 0.387650 0
M  V30 12 C 3.226500 4.071491 -0.260250 0
M  V30 13 O 3.358138 3.882728 -1.512679 0
M  V30 14 C 3.741149 5.297373 0.327656 0
M  V30 15 C 3.233957 5.898335 1.562128 0
M  V30 16 C 4.537649 5.111318 1.641154 0
M  V30 17 C 2.071300 2.477062 1.648762 0
M  V30 18 C -0.144353 -2.533309 1.484784 0
M  V30 19 C -0.004520 -2.107978 0.199737 0
M  V30 20 C -0.980446 -2.518532 -0.713940 0
M  V30 21 C -2.028933 -3.318059 -0.310595 0
M  V30 22 C -3.064012 -3.765875 -1.232980 0
M  V30 23 C -4.074640 -4.564848 -0.735886 0
M  V30 24 C -5.086945 -5.022056 -1.564944 0
M  V30 25 C -5.128292 -4.702595 -2.906559 0
M  V30 26 C -4.112805 -3.898738 -3.410163 0
M  V30 27 F -4.144237 -3.583042 -4.710752 0
M  V30 28 C -3.115861 -3.457023 -2.560689 0
M  V30 29 N -2.116949 -3.708287 0.971528 0
M  V30 30 C -1.197882 -3.337254 1.892105 0
M  V30 31 H -3.199989 -3.893266 3.627119 0
M  V30 32 H -2.482075 -5.581602 3.800892 0
M  V30 33 H 1.385123 -2.302323 4.510139 0
M  V30 34 H 0.640026 0.316471 1.436107 0
M  V30 35 H 3.508750 0.969634 1.113529 0
M  V30 36 H 2.546333 1.420903 -1.118441 0
M  V30 37 H 0.985730 1.958904 -0.419502 0
M  V30 38 H 4.219841 5.980818 -0.409712 0
M  V30 39 H 2.439890 5.454436 2.180395 0
M  V30 40 H 3.331388 6.997876 1.695147 0
M  V30 41 H 5.460322 5.715035 1.766601 0
M  V30 42 H 4.553235 4.120518 2.092601 0
M  V30 43 H 2.621042 2.779841 2.557863 0
M  V30 44 H 0.958885 2.557843 1.765688 0
M  V30 45 H 0.791947 -1.491925 -0.140053 0
M  V30 46 H -0.885485 -2.195210 -1.720211 0
M  V30 47 H -4.112744 -4.858757 0.303207 0
M  V30 48 H -5.901830 -5.654985 -1.208452 0
M  V30 49 H -5.931393 -5.071990 -3.539266 0
M  V30 50 H -2.354033 -2.843430 -2.978998 0
M  V30 END ATOM
M  V30 BEGIN BOND
M  V30 1 1 1 2
M  V30 2 2 2 3
M  V30 3 1 3 4
M  V30 4 2 4 5
M  V30 5 1 5 6
M  V30 6 2 6 7
M  V30 7 1 6 8
M  V30 8 1 8 9
M  V30 9 1 9 10
M  V30 10 1 10 11
M  V30 11 1 11 12
M  V30 12 2 12 13
M  V30 13 1 12 14
M  V30 14 1 14 15
M  V30 15 1 15 16
M  V30 16 1 11 17
M  V30 17 1 5 18
M  V30 18 2 18 19
M  V30 19 1 19 20
M  V30 20 2 20 21
M  V30 21 1 21 22
M  V30 22 2 22 23
M  V30 23 1 23 24
M  V30 24 2 24 25
M  V30 25 1 25 26
M  V30 26 1 26 27
M  V30 27 2 26 28
M  V30 28 1 21 29
M  V30 29 2 29 30
M  V30 30 1 30 2
M  V30 31 1 17 9
M  V30 32 1 30 18
M  V30 33 1 16 14
M  V30 34 1 28 22
M  V30 35 1 1 31
M  V30 36 1 1 32
M  V30 37 1 4 33
M  V30 38 1 8 34
M  V30 39 1 9 35
M  V30 40 1 10 36
M  V30 41 1 10 37
M  V30 42 1 14 38
M  V30 43 1 15 39
M  V30 44 1 15 40
M  V30 45 1 16 41
M  V30 46 1 16 42
M  V30 47 1 17 43
M  V30 48 1 17 44
M  V30 49 1 19 45
M  V30 50 1 20 46
M  V30 51 1 23 47
M  V30 52 1 24 48
M  V30 53 1 25 49
M  V30 54 1 28 50
M  V30 END BOND
M  V30 END CTAB
M  END
>  <Dataset>  (678) 
ChEMBL_Kinases

>  <Ligand_Instance>  (678) 
nan

>  <PDB_ID>  (678) 
nan

>  <Standardized_SMILES>  (678) 
Nc1ncc(C(=O)NC2CN(C(=O)C3CC3)C2)c2ccc(-c3cccc(F)c3)nc12

>  <Name>  (678) 
nan

>  <Pocket>  (678) 
nan

>  <ATP_Site>  (678) 
nan

>  <Peripheral>  (678) 
nan

>  <Num_H_Atoms_ProtBoundConf>  (678) 
nan

>  <Num_Resolved_Atoms>  (678) 
nan

>  <Num_Not_Resolved_Atoms>  (678) 
nan

$$$$
CHEMBL3623137
     RDKit          3D

  0  0  0  0  0  0  0  0  0  0999 V3000
M  V30 BEGIN CTAB
M  V30 COUNTS 49 52 0 0 0
M  V30 BEGIN ATOM
M  V30 1 C 1.543966 -6.200941 -1.243085 0
M  V30 2 C 3.021822 -6.512216 -1.292869 0
M  V30 3 C 3.867355 -5.396434 -0.790902 0
M  V30 4 O 5.111690 -5.264445 -0.654894 0
M  V30 5 N 3.311316 -4.147854 -0.329611 0
M  V30 6 C 4.037970 -2.998292 0.182436 0
M  V30 7 C 2.951788 -2.134694 -0.352210 0
M  V30 8 N 2.483999 -1.045293 0.454442 0
M  V30 9 C 2.149947 0.179579 -0.190425 0
M  V30 10 O 2.224176 0.405791 -1.409653 0
M  V30 11 C 1.678657 1.253811 0.687867 0
M  V30 12 C 2.513444 2.165829 1.325643 0
M  V30 13 N 1.936170 3.108852 2.109232 0
M  V30 14 C 0.598805 3.171124 2.273017 0
M  V30 15 N 0.099995 4.206904 3.121651 0
M  V30 16 C -0.269776 2.270396 1.647197 0
M  V30 17 N -1.580406 2.445305 1.897103 0
M  V30 18 C -2.450380 1.595314 1.311509 0
M  V30 19 C -3.872553 1.722849 1.533796 0
M  V30 20 C -4.852332 0.924656 0.998344 0
M  V30 21 C -6.199397 1.059188 1.218337 0
M  V30 22 C -6.632403 2.080586 2.048212 0
M  V30 23 C -5.685917 2.925288 2.622569 0
M  V30 24 F -6.095257 3.938128 3.444156 0
M  V30 25 C -4.341544 2.740188 2.363509 0
M  V30 26 C -1.941727 0.605414 0.497328 0
M  V30 27 C -0.577937 0.438841 0.249355 0
M  V30 28 C 0.309688 1.308423 0.848631 0
M  V30 29 C 2.101530 -3.378441 -0.107332 0
M  V30 30 H 1.260677 -5.819119 -0.225710 0
M  V30 31 H 1.188656 -5.589751 -2.072890 0
M  V30 32 H 1.004616 -7.187187 -1.305988 0
M  V30 33 H 3.261830 -6.802810 -2.335700 0
M  V30 34 H 3.193635 -7.389573 -0.627492 0
M  V30 35 H 3.999668 -3.068825 1.306941 0
M  V30 36 H 5.047718 -2.846681 -0.209906 0
M  V30 37 H 3.031068 -1.974810 -1.423399 0
M  V30 38 H 2.408896 -1.201212 1.484539 0
M  V30 39 H 3.577850 2.061727 1.152558 0
M  V30 40 H 0.186386 4.486380 4.123663 0
M  V30 41 H -0.528885 5.035481 2.995651 0
M  V30 42 H -4.550645 0.125283 0.351941 0
M  V30 43 H -6.928422 0.388706 0.760004 0
M  V30 44 H -7.672841 2.259861 2.277116 0
M  V30 45 H -3.637443 3.427845 2.836541 0
M  V30 46 H -2.565458 -0.118091 -0.011123 0
M  V30 47 H -0.187424 -0.342701 -0.392720 0
M  V30 48 H 1.291241 -3.504393 -0.849396 0
M  V30 49 H 1.769088 -3.515438 0.947615 0
M  V30 END ATOM
M  V30 BEGIN BOND
M  V30 1 1 1 2
M  V30 2 1 2 3
M  V30 3 2 3 4
M  V30 4 1 3 5
M  V30 5 1 5 6
M  V30 6 1 6 7
M  V30 7 1 7 8
M  V30 8 1 8 9
M  V30 9 2 9 10
M  V30 10 1 9 11
M  V30 11 2 11 12
M  V30 12 1 12 13
M  V30 13 2 13 14
M  V30 14 1 14 15
M  V30 15 1 14 16
M  V30 16 2 16 17
M  V30 17 1 17 18
M  V30 18 1 18 19
M  V30 19 2 19 20
M  V30 20 1 20 21
M  V30 21 2 21 22
M  V30 22 1 22 23
M  V30 23 1 23 24
M  V30 24 2 23 25
M  V30 25 2 18 26
M  V30 26 1 26 27
M  V30 27 2 27 28
M  V30 28 1 7 29
M  V30 29 1 29 5
M  V30 30 1 28 11
M  V30 31 1 28 16
M  V30 32 1 25 19
M  V30 33 1 1 30
M  V30 34 1 1 31
M  V30 35 1 1 32
M  V30 36 1 2 33
M  V30 37 1 2 34
M  V30 38 1 6 35
M  V30 39 1 6 36
M  V30 40 1 7 37
M  V30 41 1 8 38
M  V30 42 1 12 39
M  V30 43 1 15 40
M  V30 44 1 15 41
M  V30 45 1 20 42
M  V30 46 1 21 43
M  V30 47 1 22 44
M  V30 48 1 25 45
M  V30 49 1 26 46
M  V30 50 1 27 47
M  V30 51 1 29 48
M  V30 52 1 29 49
M  V30 END BOND
M  V30 END CTAB
M  END
>  <Dataset>  (679) 
ChEMBL_Kinases

>  <Ligand_Instance>  (679) 
nan

>  <PDB_ID>  (679) 
nan

>  <Standardized_SMILES>  (679) 
CCC(=O)N1CC(NC(=O)c2cnc(N)c3nc(-c4cccc(F)c4)ccc23)C1

>  <Name>  (679) 
nan

>  <Pocket>  (679) 
nan

>  <ATP_Site>  (679) 
nan

>  <Peripheral>  (679) 
nan

>  <Num_H_Atoms_ProtBoundConf>  (679) 
nan

>  <Num_Resolved_Atoms>  (679) 
nan

>  <Num_Not_Resolved_Atoms>  (679) 
nan

$$$$
CHEMBL3623136
     RDKit          3D

  0  0  0  0  0  0  0  0  0  0999 V3000
M  V30 BEGIN CTAB
M  V30 COUNTS 43 46 0 0 0
M  V30 BEGIN ATOM
M  V30 1 N 1.231758 -4.284304 3.244028 0
M  V30 2 C 1.652072 -3.108536 2.545676 0
M  V30 3 N 2.945739 -2.959649 2.208995 0
M  V30 4 C 3.454115 -1.908490 1.558387 0
M  V30 5 C 2.559678 -0.894646 1.207972 0
M  V30 6 C 3.100496 0.259867 0.498034 0
M  V30 7 O 3.974694 0.859980 1.162451 0
M  V30 8 N 2.723773 0.706265 -0.797115 0
M  V30 9 C 3.377201 1.864311 -1.316480 0 CFG=1
M  V30 10 C 4.043463 1.504311 -2.642208 0
M  V30 11 C 2.770484 1.976417 -3.327230 0 CFG=1
M  V30 12 O 1.783723 1.014061 -3.448694 0
M  V30 13 C 2.535564 2.848996 -2.090343 0
M  V30 14 C 1.229173 -1.026655 1.543178 0
M  V30 15 C 0.346340 -0.025141 1.196798 0
M  V30 16 C -0.992494 -0.201844 1.556846 0
M  V30 17 C -1.469445 -1.308681 2.230127 0
M  V30 18 C -2.865265 -1.461566 2.589891 0
M  V30 19 C -3.852128 -0.541621 2.306726 0
M  V30 20 C -5.168573 -0.730148 2.669537 0
M  V30 21 C -5.565852 -1.874496 3.347811 0
M  V30 22 C -4.571020 -2.806884 3.635894 0
M  V30 23 F -4.965943 -3.916871 4.295454 0
M  V30 24 C -3.259803 -2.593766 3.261284 0
M  V30 25 N -0.560978 -2.252161 2.541159 0
M  V30 26 C 0.740098 -2.127918 2.216062 0
M  V30 27 H 1.666059 -5.190467 2.977820 0
M  V30 28 H 0.536822 -4.395848 4.005713 0
M  V30 29 H 4.523336 -1.903449 1.341782 0
M  V30 30 H 1.988939 0.153070 -1.285700 0
M  V30 31 H 4.122825 2.304818 -0.642451 0
M  V30 32 H 4.281557 0.429231 -2.765594 0
M  V30 33 H 4.924340 2.121033 -2.876650 0
M  V30 34 H 2.913258 2.562001 -4.235142 0
M  V30 35 H 0.922014 1.423184 -3.180602 0
M  V30 36 H 3.044797 3.824530 -2.140976 0
M  V30 37 H 1.467367 2.896787 -1.839000 0
M  V30 38 H 0.689320 0.852383 0.669852 0
M  V30 39 H -1.643348 0.599765 1.268387 0
M  V30 40 H -3.594620 0.357573 1.784942 0
M  V30 41 H -5.946523 -0.009931 2.449221 0
M  V30 42 H -6.590514 -2.049551 3.644860 0
M  V30 43 H -2.527534 -3.365343 3.518087 0
M  V30 END ATOM
M  V30 BEGIN BOND
M  V30 1 1 1 2
M  V30 2 2 2 3
M  V30 3 1 3 4
M  V30 4 2 4 5
M  V30 5 1 5 6
M  V30 6 2 6 7
M  V30 7 1 6 8
M  V30 8 1 8 9
M  V30 9 1 9 10
M  V30 10 1 10 11
M  V30 11 1 11 12
M  V30 12 1 11 13
M  V30 13 1 5 14
M  V30 14 2 14 15
M  V30 15 1 15 16
M  V30 16 2 16 17
M  V30 17 1 17 18
M  V30 18 2 18 19
M  V30 19 1 19 20
M  V30 20 2 20 21
M  V30 21 1 21 22
M  V30 22 1 22 23
M  V30 23 2 22 24
M  V30 24 1 17 25
M  V30 25 2 25 26
M  V30 26 1 26 2
M  V30 27 1 13 9
M  V30 28 1 26 14
M  V30 29 1 24 18
M  V30 30 1 1 27
M  V30 31 1 1 28
M  V30 32 1 4 29
M  V30 33 1 8 30
M  V30 34 1 9 31 CFG=1
M  V30 35 1 10 32
M  V30 36 1 10 33
M  V30 37 1 11 34 CFG=3
M  V30 38 1 12 35
M  V30 39 1 13 36
M  V30 40 1 13 37
M  V30 41 1 15 38
M  V30 42 1 16 39
M  V30 43 1 19 40
M  V30 44 1 20 41
M  V30 45 1 21 42
M  V30 46 1 24 43
M  V30 END BOND
M  V30 END CTAB
M  END
>  <Dataset>  (680) 
ChEMBL_Kinases

>  <Ligand_Instance>  (680) 
nan

>  <PDB_ID>  (680) 
nan

>  <Standardized_SMILES>  (680) 
Nc1ncc(C(=O)N[C@H]2C[C@@H](O)C2)c2ccc(-c3cccc(F)c3)nc12

>  <Name>  (680) 
nan

>  <Pocket>  (680) 
nan

>  <ATP_Site>  (680) 
nan

>  <Peripheral>  (680) 
nan

>  <Num_H_Atoms_ProtBoundConf>  (680) 
nan

>  <Num_Resolved_Atoms>  (680) 
nan

>  <Num_Not_Resolved_Atoms>  (680) 
nan

$$$$
CHEMBL3623135
     RDKit          3D

  0  0  0  0  0  0  0  0  0  0999 V3000
M  V30 BEGIN CTAB
M  V30 COUNTS 39 42 0 0 0
M  V30 BEGIN ATOM
M  V30 1 N 1.202242 -3.037051 3.503462 0
M  V30 2 C 1.446285 -2.295675 2.284019 0
M  V30 3 N 2.442777 -2.713694 1.486685 0
M  V30 4 C 2.778856 -2.094705 0.316306 0
M  V30 5 C 2.031951 -0.988885 -0.026411 0
M  V30 6 C 2.237189 -0.212685 -1.273125 0
M  V30 7 O 2.414027 1.006943 -1.522734 0
M  V30 8 N 2.242747 -0.983201 -2.493542 0
M  V30 9 C 2.386704 -0.662845 -3.896296 0
M  V30 10 C 2.044965 -1.589517 -4.953124 0
M  V30 11 C 3.528306 -1.194796 -4.711526 0
M  V30 12 C 0.984989 -0.520069 0.777812 0
M  V30 13 C 0.214574 0.579596 0.492888 0
M  V30 14 C -0.785364 0.950412 1.368455 0
M  V30 15 C -1.049668 0.257792 2.528393 0
M  V30 16 C -2.141563 0.635882 3.457735 0
M  V30 17 C -2.353756 -0.146369 4.549075 0
M  V30 18 C -3.337895 0.137590 5.487795 0
M  V30 19 C -4.142018 1.261188 5.311777 0
M  V30 20 C -3.883990 2.006939 4.200246 0
M  V30 21 F -4.626801 3.136455 3.942566 0
M  V30 22 C -2.930992 1.754388 3.270704 0
M  V30 23 N -0.305786 -0.825870 2.829272 0
M  V30 24 C 0.688312 -1.189705 1.956058 0
M  V30 25 H 1.620071 -3.204274 4.438648 0
M  V30 26 H 0.365227 -3.654640 3.642318 0
M  V30 27 H 3.569971 -2.405667 -0.347352 0
M  V30 28 H 2.107259 -2.038509 -2.386714 0
M  V30 29 H 2.250227 0.419750 -4.079187 0
M  V30 30 H 1.636950 -1.242056 -5.928386 0
M  V30 31 H 1.808966 -2.661112 -4.801388 0
M  V30 32 H 4.192035 -1.987032 -4.396343 0
M  V30 33 H 3.968000 -0.543651 -5.529829 0
M  V30 34 H 0.398614 1.133364 -0.413199 0
M  V30 35 H -1.342315 1.810180 1.087205 0
M  V30 36 H -1.808135 -1.062106 4.825642 0
M  V30 37 H -3.553423 -0.456270 6.376451 0
M  V30 38 H -4.951933 1.585516 5.985760 0
M  V30 39 H -2.760640 2.393584 2.385995 0
M  V30 END ATOM
M  V30 BEGIN BOND
M  V30 1 1 1 2
M  V30 2 2 2 3
M  V30 3 1 3 4
M  V30 4 2 4 5
M  V30 5 1 5 6
M  V30 6 2 6 7
M  V30 7 1 6 8
M  V30 8 1 8 9
M  V30 9 1 9 10
M  V30 10 1 10 11
M  V30 11 1 5 12
M  V30 12 2 12 13
M  V30 13 1 13 14
M  V30 14 2 14 15
M  V30 15 1 15 16
M  V30 16 2 16 17
M  V30 17 1 17 18
M  V30 18 2 18 19
M  V30 19 1 19 20
M  V30 20 1 20 21
M  V30 21 2 20 22
M  V30 22 1 15 23
M  V30 23 2 23 24
M  V30 24 1 24 2
M  V30 25 1 11 9
M  V30 26 1 24 12
M  V30 27 1 22 16
M  V30 28 1 1 25
M  V30 29 1 1 26
M  V30 30 1 4 27
M  V30 31 1 8 28
M  V30 32 1 9 29
M  V30 33 1 10 30
M  V30 34 1 10 31
M  V30 35 1 11 32
M  V30 36 1 11 33
M  V30 37 1 13 34
M  V30 38 1 14 35
M  V30 39 1 17 36
M  V30 40 1 18 37
M  V30 41 1 19 38
M  V30 42 1 22 39
M  V30 END BOND
M  V30 END CTAB
M  END
>  <Dataset>  (681) 
ChEMBL_Kinases

>  <Ligand_Instance>  (681) 
nan

>  <PDB_ID>  (681) 
nan

>  <Standardized_SMILES>  (681) 
Nc1ncc(C(=O)NC2CC2)c2ccc(-c3cccc(F)c3)nc12

>  <Name>  (681) 
nan

>  <Pocket>  (681) 
nan

>  <ATP_Site>  (681) 
nan

>  <Peripheral>  (681) 
nan

>  <Num_H_Atoms_ProtBoundConf>  (681) 
nan

>  <Num_Resolved_Atoms>  (681) 
nan

>  <Num_Not_Resolved_Atoms>  (681) 
nan

$$$$
CHEMBL362785
     RDKit          3D

  0  0  0  0  0  0  0  0  0  0999 V3000
M  V30 BEGIN CTAB
M  V30 COUNTS 27 29 0 0 0
M  V30 BEGIN ATOM
M  V30 1 C -2.586729 -1.700379 3.038377 0
M  V30 2 O -1.625374 -2.742336 2.900586 0
M  V30 3 C -0.500403 -2.500828 2.107618 0
M  V30 4 C 0.448838 -3.489384 1.954152 0
M  V30 5 C 1.590404 -3.320452 1.182416 0
M  V30 6 C 1.800516 -2.102460 0.527095 0
M  V30 7 C 0.842458 -1.122823 0.689812 0
M  V30 8 C -0.290873 -1.292341 1.456762 0
M  V30 9 C 1.278944 0.035947 -0.078396 0
M  V30 10 C 0.687231 1.188774 -0.219402 0
M  V30 11 S -0.886446 1.724213 0.503036 0
M  V30 12 C -1.273979 2.835402 -0.880876 0
M  V30 13 S -2.695359 3.298039 -1.497131 0
M  V30 14 N 0.036779 3.234615 -1.333870 0
M  V30 15 C 1.121945 2.349504 -0.983110 0
M  V30 16 O 2.292206 2.635871 -1.344734 0
M  V30 17 C 2.533955 -0.297253 -0.702557 0
M  V30 18 O 3.323758 0.298125 -1.443902 0
M  V30 19 N 2.844910 -1.630474 -0.316261 0
M  V30 20 H -3.046238 -1.491395 2.043536 0
M  V30 21 H -2.054479 -0.782697 3.421247 0
M  V30 22 H -3.372069 -2.017365 3.751486 0
M  V30 23 H 0.334341 -4.466026 2.446595 0
M  V30 24 H 2.316155 -4.118613 1.083389 0
M  V30 25 H -1.058270 -0.560814 1.610077 0
M  V30 26 H 0.121268 4.139575 -1.888653 0
M  V30 27 H 3.662170 -2.248788 -0.549058 0
M  V30 END ATOM
M  V30 BEGIN BOND
M  V30 1 1 1 2
M  V30 2 1 2 3
M  V30 3 2 3 4
M  V30 4 1 4 5
M  V30 5 2 5 6
M  V30 6 1 6 7
M  V30 7 2 7 8
M  V30 8 1 7 9
M  V30 9 2 9 10
M  V30 10 1 10 11
M  V30 11 1 11 12
M  V30 12 2 12 13
M  V30 13 1 12 14
M  V30 14 1 14 15
M  V30 15 2 15 16
M  V30 16 1 9 17
M  V30 17 2 17 18
M  V30 18 1 17 19
M  V30 19 1 8 3
M  V30 20 1 15 10
M  V30 21 1 19 6
M  V30 22 1 1 20
M  V30 23 1 1 21
M  V30 24 1 1 22
M  V30 25 1 4 23
M  V30 26 1 5 24
M  V30 27 1 8 25
M  V30 28 1 14 26
M  V30 29 1 19 27
M  V30 END BOND
M  V30 END CTAB
M  END
>  <Dataset>  (682) 
ChEMBL_Kinases

>  <Ligand_Instance>  (682) 
nan

>  <PDB_ID>  (682) 
nan

>  <Standardized_SMILES>  (682) 
COc1ccc2c(c1)/C(=C1\SC(=S)NC1=O)C(=O)N2

>  <Name>  (682) 
nan

>  <Pocket>  (682) 
nan

>  <ATP_Site>  (682) 
nan

>  <Peripheral>  (682) 
nan

>  <Num_H_Atoms_ProtBoundConf>  (682) 
nan

>  <Num_Resolved_Atoms>  (682) 
nan

>  <Num_Not_Resolved_Atoms>  (682) 
nan

$$$$
CHEMBL3629154
     RDKit          3D

  0  0  0  0  0  0  0  0  0  0999 V3000
M  V30 BEGIN CTAB
M  V30 COUNTS 58 62 0 0 0
M  V30 BEGIN ATOM
M  V30 1 C 3.222733 -2.653316 5.596981 0
M  V30 2 O 4.097872 -2.122009 4.619307 0
M  V30 3 C 3.607291 -1.491479 3.515696 0
M  V30 4 C 4.434180 -0.970449 2.551251 0
M  V30 5 C 3.913151 -0.323817 1.415139 0
M  V30 6 C 2.523911 -0.182005 1.217657 0
M  V30 7 C 2.374204 0.503144 -0.052296 0
M  V30 8 O 2.879694 1.608262 0.197842 0
M  V30 9 N 1.750215 -0.561634 -0.713210 0
M  V30 10 C 0.980597 -0.409077 -1.689568 0
M  V30 11 N 0.825453 0.951649 -2.020696 0
M  V30 12 C 0.591496 2.167884 -1.327446 0
M  V30 13 C -0.660553 2.223387 -0.520909 0
M  V30 14 N -1.831648 2.299288 -1.197295 0
M  V30 15 C -3.050163 2.231250 -0.644612 0
M  V30 16 C -4.221841 2.325842 -1.555703 0
M  V30 17 C -5.562478 2.633731 -0.954841 0
M  V30 18 C -5.271233 1.273642 -1.506020 0
M  V30 19 C -3.220032 2.073837 0.707552 0
M  V30 20 N -2.085165 1.996305 1.425104 0
M  V30 21 C -0.895244 2.072065 0.812519 0
M  V30 22 N 0.181534 2.084501 1.700418 0
M  V30 23 N 0.360452 -1.441080 -2.392714 0
M  V30 24 C 0.073786 -2.621427 -1.659026 0
M  V30 25 C -0.216279 -3.671457 -2.542686 0
M  V30 26 C -0.531392 -4.913739 -1.968853 0
M  V30 27 C -0.571134 -5.150384 -0.623335 0
M  V30 28 N -0.822109 -6.161362 0.220985 0
M  V30 29 C -0.694613 -5.754255 1.506648 0
M  V30 30 O -0.884984 -6.542023 2.491297 0
M  V30 31 O -0.357246 -4.463561 1.485942 0
M  V30 32 C -0.281139 -4.091808 0.204670 0
M  V30 33 C 0.027609 -2.878736 -0.322216 0
M  V30 34 C 1.783138 -0.731104 2.233280 0
M  V30 35 C 2.252045 -1.350477 3.322454 0
M  V30 36 H 2.711676 -3.551309 5.184076 0
M  V30 37 H 3.756456 -2.959839 6.519957 0
M  V30 38 H 2.420201 -1.899602 5.803252 0
M  V30 39 H 5.488537 -1.098217 2.741259 0
M  V30 40 H 4.754832 0.011938 0.782947 0
M  V30 41 H 0.887340 1.003397 -3.129848 0
M  V30 42 H 1.378191 2.812251 -0.978262 0
M  V30 43 H 0.280041 2.854527 -2.194885 0
M  V30 44 H -3.958320 2.691716 -2.574628 0
M  V30 45 H -6.221715 3.320556 -1.551941 0
M  V30 46 H -5.733161 2.680422 0.122354 0
M  V30 47 H -5.216161 0.422494 -0.828669 0
M  V30 48 H -5.766449 1.026391 -2.468203 0
M  V30 49 H -4.174710 2.012560 1.189491 0
M  V30 50 H 0.924838 2.803495 1.797338 0
M  V30 51 H 0.915546 1.949272 2.410930 0
M  V30 52 H 0.154307 -1.262684 -3.386311 0
M  V30 53 H -0.224689 -3.627196 -3.620308 0
M  V30 54 H -0.758541 -5.745154 -2.611526 0
M  V30 55 H -1.080839 -7.131548 -0.105056 0
M  V30 56 H 0.239884 -2.032352 0.263350 0
M  V30 57 H 0.741467 -0.568530 1.994984 0
M  V30 58 H 1.503769 -1.710027 3.993649 0
M  V30 END ATOM
M  V30 BEGIN BOND
M  V30 1 1 1 2
M  V30 2 1 2 3
M  V30 3 2 3 4
M  V30 4 1 4 5
M  V30 5 2 5 6
M  V30 6 1 6 7
M  V30 7 2 7 8
M  V30 8 1 7 9
M  V30 9 2 9 10
M  V30 10 1 10 11
M  V30 11 1 11 12
M  V30 12 1 12 13
M  V30 13 2 13 14
M  V30 14 1 14 15
M  V30 15 1 15 16
M  V30 16 1 16 17
M  V30 17 1 17 18
M  V30 18 2 15 19
M  V30 19 1 19 20
M  V30 20 2 20 21
M  V30 21 1 21 22
M  V30 22 1 10 23
M  V30 23 1 23 24
M  V30 24 2 24 25
M  V30 25 1 25 26
M  V30 26 2 26 27
M  V30 27 1 27 28
M  V30 28 1 28 29
M  V30 29 2 29 30
M  V30 30 1 29 31
M  V30 31 1 31 32
M  V30 32 2 32 33
M  V30 33 1 6 34
M  V30 34 2 34 35
M  V30 35 1 35 3
M  V30 36 1 21 13
M  V30 37 1 33 24
M  V30 38 1 18 16
M  V30 39 1 32 27
M  V30 40 1 1 36
M  V30 41 1 1 37
M  V30 42 1 1 38
M  V30 43 1 4 39
M  V30 44 1 5 40
M  V30 45 1 11 41
M  V30 46 1 12 42
M  V30 47 1 12 43
M  V30 48 1 16 44
M  V30 49 1 17 45
M  V30 50 1 17 46
M  V30 51 1 18 47
M  V30 52 1 18 48
M  V30 53 1 19 49
M  V30 54 1 22 50
M  V30 55 1 22 51
M  V30 56 1 23 52
M  V30 57 1 25 53
M  V30 58 1 26 54
M  V30 59 1 28 55
M  V30 60 1 33 56
M  V30 61 1 34 57
M  V30 62 1 35 58
M  V30 END BOND
M  V30 END CTAB
M  END
>  <Dataset>  (683) 
ChEMBL_Kinases

>  <Ligand_Instance>  (683) 
nan

>  <PDB_ID>  (683) 
nan

>  <Standardized_SMILES>  (683) 
COc1ccc(C(=O)/N=C(\NCc2nc(C3CC3)cnc2N)Nc2ccc3[nH]c(=O)oc3c2)cc1

>  <Name>  (683) 
nan

>  <Pocket>  (683) 
nan

>  <ATP_Site>  (683) 
nan

>  <Peripheral>  (683) 
nan

>  <Num_H_Atoms_ProtBoundConf>  (683) 
nan

>  <Num_Resolved_Atoms>  (683) 
nan

>  <Num_Not_Resolved_Atoms>  (683) 
nan

$$$$
CHEMBL3629153
     RDKit          3D

  0  0  0  0  0  0  0  0  0  0999 V3000
M  V30 BEGIN CTAB
M  V30 COUNTS 54 58 0 0 0
M  V30 BEGIN ATOM
M  V30 1 N -0.465847 -3.931594 -2.641839 0
M  V30 2 C -0.827150 -3.515472 -1.306538 0
M  V30 3 N -1.968144 -3.999988 -0.743243 0
M  V30 4 C -2.297350 -3.606379 0.499789 0
M  V30 5 C -1.419401 -2.727345 1.091634 0
M  V30 6 C -1.763733 -2.271066 2.486045 0
M  V30 7 C -3.230775 -2.114049 2.845784 0
M  V30 8 C -2.483200 -3.286369 3.319059 0
M  V30 9 N -0.298546 -2.248316 0.544384 0
M  V30 10 C 0.050845 -2.614405 -0.670305 0
M  V30 11 C 1.273669 -2.140265 -1.363403 0
M  V30 12 N 1.011781 -1.158509 -2.394693 0
M  V30 13 C 0.412735 0.066531 -2.008344 0
M  V30 14 N 0.791846 0.667731 -0.967594 0
M  V30 15 C 1.808718 0.187097 -0.133362 0
M  V30 16 O 2.163773 -0.441863 0.897050 0
M  V30 17 C 3.063801 0.649415 -0.773763 0
M  V30 18 C 3.991392 0.188429 -1.648020 0
M  V30 19 C 5.058396 0.945810 -2.006928 0
M  V30 20 C 5.300981 2.219065 -1.535542 0
M  V30 21 Cl 6.716973 3.041339 -2.103480 0
M  V30 22 C 4.366072 2.732108 -0.630254 0
M  V30 23 C 3.264498 1.946045 -0.261859 0
M  V30 24 N -0.626924 0.734921 -2.720715 0
M  V30 25 C -1.614910 1.592897 -2.170422 0
M  V30 26 C -1.852601 1.832771 -0.840110 0
M  V30 27 C -2.820609 2.688015 -0.360532 0
M  V30 28 C -3.618112 3.360617 -1.263572 0
M  V30 29 N -4.628595 4.246468 -1.061735 0
M  V30 30 C -5.013904 4.551261 -2.313369 0
M  V30 31 O -5.956822 5.366164 -2.599949 0
M  V30 32 O -4.312395 3.917306 -3.223490 0
M  V30 33 C -3.419165 3.153620 -2.628042 0
M  V30 34 C -2.432036 2.283407 -3.033475 0
M  V30 35 H -0.232653 -3.450617 -3.527174 0
M  V30 36 H -0.430748 -4.971082 -2.741472 0
M  V30 37 H -3.203696 -3.999890 0.927418 0
M  V30 38 H -1.102560 -1.531414 2.955730 0
M  V30 39 H -3.931583 -2.221191 1.968069 0
M  V30 40 H -3.526326 -1.338584 3.562108 0
M  V30 41 H -2.712626 -4.258323 2.881652 0
M  V30 42 H -2.304090 -3.329293 4.413449 0
M  V30 43 H 1.472983 -3.053124 -2.047074 0
M  V30 44 H 2.211600 -2.194558 -0.869118 0
M  V30 45 H 1.196836 -1.208334 -3.452143 0
M  V30 46 H 3.738624 -0.786793 -1.963279 0
M  V30 47 H 5.708154 0.418563 -2.721827 0
M  V30 48 H 4.597185 3.721406 -0.293874 0
M  V30 49 H 2.667809 2.527084 0.443029 0
M  V30 50 H -0.635604 0.543471 -3.765323 0
M  V30 51 H -1.251962 1.318551 -0.108463 0
M  V30 52 H -2.957521 2.832994 0.701809 0
M  V30 53 H -5.036038 4.623742 -0.191722 0
M  V30 54 H -2.321559 2.160744 -4.110547 0
M  V30 END ATOM
M  V30 BEGIN BOND
M  V30 1 1 1 2
M  V30 2 2 2 3
M  V30 3 1 3 4
M  V30 4 2 4 5
M  V30 5 1 5 6
M  V30 6 1 6 7
M  V30 7 1 7 8
M  V30 8 1 5 9
M  V30 9 2 9 10
M  V30 10 1 10 11
M  V30 11 1 11 12
M  V30 12 1 12 13
M  V30 13 2 13 14
M  V30 14 1 14 15
M  V30 15 2 15 16
M  V30 16 1 15 17
M  V30 17 2 17 18
M  V30 18 1 18 19
M  V30 19 2 19 20
M  V30 20 1 20 21
M  V30 21 1 20 22
M  V30 22 2 22 23
M  V30 23 1 13 24
M  V30 24 1 24 25
M  V30 25 2 25 26
M  V30 26 1 26 27
M  V30 27 2 27 28
M  V30 28 1 28 29
M  V30 29 1 29 30
M  V30 30 2 30 31
M  V30 31 1 30 32
M  V30 32 1 32 33
M  V30 33 2 33 34
M  V30 34 1 10 2
M  V30 35 1 23 17
M  V30 36 1 34 25
M  V30 37 1 8 6
M  V30 38 1 33 28
M  V30 39 1 1 35
M  V30 40 1 1 36
M  V30 41 1 4 37
M  V30 42 1 6 38
M  V30 43 1 7 39
M  V30 44 1 7 40
M  V30 45 1 8 41
M  V30 46 1 8 42
M  V30 47 1 11 43
M  V30 48 1 11 44
M  V30 49 1 12 45
M  V30 50 1 18 46
M  V30 51 1 19 47
M  V30 52 1 22 48
M  V30 53 1 23 49
M  V30 54 1 24 50
M  V30 55 1 26 51
M  V30 56 1 27 52
M  V30 57 1 29 53
M  V30 58 1 34 54
M  V30 END BOND
M  V30 END CTAB
M  END
>  <Dataset>  (684) 
ChEMBL_Kinases

>  <Ligand_Instance>  (684) 
nan

>  <PDB_ID>  (684) 
nan

>  <Standardized_SMILES>  (684) 
Nc1ncc(C2CC2)nc1CN/C(=N\C(=O)c1ccc(Cl)cc1)Nc1ccc2[nH]c(=O)oc2c1

>  <Name>  (684) 
nan

>  <Pocket>  (684) 
nan

>  <ATP_Site>  (684) 
nan

>  <Peripheral>  (684) 
nan

>  <Num_H_Atoms_ProtBoundConf>  (684) 
nan

>  <Num_Resolved_Atoms>  (684) 
nan

>  <Num_Not_Resolved_Atoms>  (684) 
nan

$$$$
CHEMBL3629152
     RDKit          3D

  0  0  0  0  0  0  0  0  0  0999 V3000
M  V30 BEGIN CTAB
M  V30 COUNTS 57 61 0 0 0
M  V30 BEGIN ATOM
M  V30 1 C 1.300736 -1.661748 5.626425 0
M  V30 2 C 0.767593 -1.328195 4.281952 0
M  V30 3 C 0.276851 -0.050617 4.164430 0
M  V30 4 C -0.195307 0.237048 2.911758 0
M  V30 5 C -0.176116 -0.688384 1.853154 0
M  V30 6 C -0.715829 -0.268151 0.575481 0
M  V30 7 O -0.741590 -1.286633 -0.239482 0
M  V30 8 N -1.242051 0.375907 -0.498424 0
M  V30 9 C -0.913408 1.405481 -1.145728 0
M  V30 10 N 0.235679 2.143064 -0.783777 0
M  V30 11 C 1.269322 1.446863 -0.078639 0
M  V30 12 C 1.914142 0.330527 -0.781849 0
M  V30 13 N 1.741891 0.018709 -2.072211 0
M  V30 14 C 2.434276 -1.037503 -2.562574 0
M  V30 15 C 2.353564 -1.437511 -3.978951 0
M  V30 16 C 3.362277 -0.691710 -4.881895 0
M  V30 17 C 1.875930 -0.532982 -5.048301 0
M  V30 18 C 3.304187 -1.802342 -1.785454 0
M  V30 19 N 3.442053 -1.441692 -0.482492 0
M  V30 20 C 2.755989 -0.392973 -0.000031 0
M  V30 21 N 3.065558 -0.164511 1.381721 0
M  V30 22 N -1.800454 1.750951 -2.233981 0
M  V30 23 C -3.233512 1.472941 -2.115266 0
M  V30 24 C -3.778909 1.410558 -0.842181 0
M  V30 25 C -5.119566 1.125135 -0.716738 0
M  V30 26 C -5.857003 0.914589 -1.854393 0
M  V30 27 N -7.162699 0.626683 -2.021831 0
M  V30 28 C -7.458119 0.503640 -3.326492 0
M  V30 29 O -8.548257 0.242009 -3.889861 0
M  V30 30 O -6.327614 0.718230 -3.985440 0
M  V30 31 C -5.344994 0.968214 -3.127874 0
M  V30 32 C -3.978957 1.258967 -3.261195 0
M  V30 33 C 0.341504 -1.951747 2.072412 0
M  V30 34 C 0.823829 -2.290498 3.301685 0
M  V30 35 H 0.611149 -1.441055 6.441121 0
M  V30 36 H 1.524869 -2.742291 5.677515 0
M  V30 37 H 2.258969 -1.092928 5.813125 0
M  V30 38 H 0.266058 0.650671 4.986336 0
M  V30 39 H -0.608470 1.232342 2.713965 0
M  V30 40 H 0.177587 3.149171 -1.099677 0
M  V30 41 H 1.292226 1.474272 0.996410 0
M  V30 42 H 2.127339 2.221910 -0.221013 0
M  V30 43 H 2.360573 -2.558522 -4.147918 0
M  V30 44 H 3.855179 0.184176 -4.422207 0
M  V30 45 H 3.935528 -1.329805 -5.603564 0
M  V30 46 H 1.402453 0.446692 -4.798044 0
M  V30 47 H 1.468684 -0.989096 -5.977504 0
M  V30 48 H 3.861257 -2.654009 -2.178297 0
M  V30 49 H 2.851414 -0.539230 2.326824 0
M  V30 50 H 3.730635 0.637569 1.512921 0
M  V30 51 H -1.309080 2.212484 -3.053054 0
M  V30 52 H -3.137846 1.588812 0.003131 0
M  V30 53 H -5.525091 1.081352 0.301288 0
M  V30 54 H -7.843149 0.508935 -1.217833 0
M  V30 55 H -3.535546 1.313773 -4.240535 0
M  V30 56 H 0.376145 -2.684863 1.283856 0
M  V30 57 H 1.227845 -3.261714 3.482757 0
M  V30 END ATOM
M  V30 BEGIN BOND
M  V30 1 1 1 2
M  V30 2 2 2 3
M  V30 3 1 3 4
M  V30 4 2 4 5
M  V30 5 1 5 6
M  V30 6 2 6 7
M  V30 7 1 6 8
M  V30 8 2 8 9
M  V30 9 1 9 10
M  V30 10 1 10 11
M  V30 11 1 11 12
M  V30 12 2 12 13
M  V30 13 1 13 14
M  V30 14 1 14 15
M  V30 15 1 15 16
M  V30 16 1 16 17
M  V30 17 2 14 18
M  V30 18 1 18 19
M  V30 19 2 19 20
M  V30 20 1 20 21
M  V30 21 1 9 22
M  V30 22 1 22 23
M  V30 23 2 23 24
M  V30 24 1 24 25
M  V30 25 2 25 26
M  V30 26 1 26 27
M  V30 27 1 27 28
M  V30 28 2 28 29
M  V30 29 1 28 30
M  V30 30 1 30 31
M  V30 31 2 31 32
M  V30 32 1 5 33
M  V30 33 2 33 34
M  V30 34 1 34 2
M  V30 35 1 20 12
M  V30 36 1 32 23
M  V30 37 1 17 15
M  V30 38 1 31 26
M  V30 39 1 1 35
M  V30 40 1 1 36
M  V30 41 1 1 37
M  V30 42 1 3 38
M  V30 43 1 4 39
M  V30 44 1 10 40
M  V30 45 1 11 41
M  V30 46 1 11 42
M  V30 47 1 15 43
M  V30 48 1 16 44
M  V30 49 1 16 45
M  V30 50 1 17 46
M  V30 51 1 17 47
M  V30 52 1 18 48
M  V30 53 1 21 49
M  V30 54 1 21 50
M  V30 55 1 22 51
M  V30 56 1 24 52
M  V30 57 1 25 53
M  V30 58 1 27 54
M  V30 59 1 32 55
M  V30 60 1 33 56
M  V30 61 1 34 57
M  V30 END BOND
M  V30 END CTAB
M  END
>  <Dataset>  (685) 
ChEMBL_Kinases

>  <Ligand_Instance>  (685) 
nan

>  <PDB_ID>  (685) 
nan

>  <Standardized_SMILES>  (685) 
Cc1ccc(C(=O)/N=C(\NCc2nc(C3CC3)cnc2N)Nc2ccc3[nH]c(=O)oc3c2)cc1

>  <Name>  (685) 
nan

>  <Pocket>  (685) 
nan

>  <ATP_Site>  (685) 
nan

>  <Peripheral>  (685) 
nan

>  <Num_H_Atoms_ProtBoundConf>  (685) 
nan

>  <Num_Resolved_Atoms>  (685) 
nan

>  <Num_Not_Resolved_Atoms>  (685) 
nan

$$$$
CHEMBL3629151
     RDKit          3D

  0  0  0  0  0  0  0  0  0  0999 V3000
M  V30 BEGIN CTAB
M  V30 COUNTS 51 54 0 0 0
M  V30 BEGIN ATOM
M  V30 1 C -0.078363 -0.281043 5.565028 0
M  V30 2 C 0.839893 -0.773663 4.452402 0
M  V30 3 O 0.052070 -1.211249 3.360756 0
M  V30 4 C 0.694876 -1.700184 2.202301 0
M  V30 5 O 1.801667 -1.486759 2.755394 0
M  V30 6 N -0.315805 -2.062211 1.297986 0
M  V30 7 C -0.662794 -1.392681 0.309830 0
M  V30 8 N -0.126331 -0.158939 -0.097443 0
M  V30 9 C 1.051576 0.302413 0.628353 0
M  V30 10 C 1.403366 1.589300 -0.103189 0
M  V30 11 N 1.132292 2.820033 0.416500 0
M  V30 12 C 1.446173 3.945753 -0.240851 0
M  V30 13 C 1.126775 5.259720 0.373650 0
M  V30 14 C 1.179148 5.325765 1.860600 0
M  V30 15 C -0.155803 5.399100 1.191698 0
M  V30 16 C 2.050623 3.768870 -1.455659 0
M  V30 17 N 2.342174 2.585564 -2.017923 0
M  V30 18 C 2.023747 1.464877 -1.351334 0
M  V30 19 N 2.330145 0.207667 -1.941523 0
M  V30 20 N -1.707158 -2.032496 -0.415511 0
M  V30 21 C -1.793296 -3.442311 -0.574258 0
M  V30 22 C -2.941982 -3.982229 -1.158296 0
M  V30 23 C -3.138400 -5.328496 -1.373867 0
M  V30 24 C -2.160778 -6.225950 -1.001986 0
M  V30 25 N -2.088233 -7.561730 -1.091518 0
M  V30 26 C -0.888420 -7.859159 -0.561121 0
M  V30 27 O -0.409892 -9.008616 -0.444636 0
M  V30 28 O -0.267499 -6.765470 -0.171510 0
M  V30 29 C -1.007639 -5.722245 -0.419418 0
M  V30 30 C -0.878955 -4.381025 -0.235995 0
M  V30 31 H -0.328170 0.793231 5.389836 0
M  V30 32 H -0.959201 -0.904698 5.720207 0
M  V30 33 H 0.550501 -0.298039 6.495818 0
M  V30 34 H 1.512593 0.070121 4.206333 0
M  V30 35 H 1.512331 -1.591452 4.851474 0
M  V30 36 H -0.607575 0.330157 -0.877339 0
M  V30 37 H 1.936033 -0.289251 0.440133 0
M  V30 38 H 0.830299 0.676071 1.618355 0
M  V30 39 H 1.387098 6.164974 -0.191015 0
M  V30 40 H 1.491519 6.249049 2.387173 0
M  V30 41 H 1.442193 4.398915 2.406579 0
M  V30 42 H -0.733441 6.326174 1.165431 0
M  V30 43 H -0.758876 4.445550 1.239826 0
M  V30 44 H 2.322367 4.646466 -2.022452 0
M  V30 45 H 3.233419 -0.336056 -1.882489 0
M  V30 46 H 1.593783 -0.287090 -2.523190 0
M  V30 47 H -2.459519 -1.428124 -0.870680 0
M  V30 48 H -3.780760 -3.355041 -1.490586 0
M  V30 49 H -4.025510 -5.719903 -1.822705 0
M  V30 50 H -2.797049 -8.238754 -1.483663 0
M  V30 51 H 0.032494 -4.071609 0.209155 0
M  V30 END ATOM
M  V30 BEGIN BOND
M  V30 1 1 1 2
M  V30 2 1 2 3
M  V30 3 1 3 4
M  V30 4 2 4 5
M  V30 5 1 4 6
M  V30 6 2 6 7
M  V30 7 1 7 8
M  V30 8 1 8 9
M  V30 9 1 9 10
M  V30 10 2 10 11
M  V30 11 1 11 12
M  V30 12 1 12 13
M  V30 13 1 13 14
M  V30 14 1 14 15
M  V30 15 2 12 16
M  V30 16 1 16 17
M  V30 17 2 17 18
M  V30 18 1 18 19
M  V30 19 1 7 20
M  V30 20 1 20 21
M  V30 21 2 21 22
M  V30 22 1 22 23
M  V30 23 2 23 24
M  V30 24 1 24 25
M  V30 25 1 25 26
M  V30 26 2 26 27
M  V30 27 1 26 28
M  V30 28 1 28 29
M  V30 29 2 29 30
M  V30 30 1 18 10
M  V30 31 1 30 21
M  V30 32 1 15 13
M  V30 33 1 29 24
M  V30 34 1 1 31
M  V30 35 1 1 32
M  V30 36 1 1 33
M  V30 37 1 2 34
M  V30 38 1 2 35
M  V30 39 1 8 36
M  V30 40 1 9 37
M  V30 41 1 9 38
M  V30 42 1 13 39
M  V30 43 1 14 40
M  V30 44 1 14 41
M  V30 45 1 15 42
M  V30 46 1 15 43
M  V30 47 1 16 44
M  V30 48 1 19 45
M  V30 49 1 19 46
M  V30 50 1 20 47
M  V30 51 1 22 48
M  V30 52 1 23 49
M  V30 53 1 25 50
M  V30 54 1 30 51
M  V30 END BOND
M  V30 END CTAB
M  END
>  <Dataset>  (686) 
ChEMBL_Kinases

>  <Ligand_Instance>  (686) 
nan

>  <PDB_ID>  (686) 
nan

>  <Standardized_SMILES>  (686) 
CCOC(=O)/N=C(\NCc1nc(C2CC2)cnc1N)Nc1ccc2[nH]c(=O)oc2c1

>  <Name>  (686) 
nan

>  <Pocket>  (686) 
nan

>  <ATP_Site>  (686) 
nan

>  <Peripheral>  (686) 
nan

>  <Num_H_Atoms_ProtBoundConf>  (686) 
nan

>  <Num_Resolved_Atoms>  (686) 
nan

>  <Num_Not_Resolved_Atoms>  (686) 
nan

$$$$
CHEMBL3629148
     RDKit          3D

  0  0  0  0  0  0  0  0  0  0999 V3000
M  V30 BEGIN CTAB
M  V30 COUNTS 66 69 0 0 0
M  V30 BEGIN ATOM
M  V30 1 C 2.002287 0.845289 5.642724 0
M  V30 2 C 0.940691 0.908989 4.599911 0
M  V30 3 C 1.271236 1.774137 3.439916 0
M  V30 4 C 2.456691 1.340024 2.675562 0
M  V30 5 C 3.194654 0.226547 2.990561 0
M  V30 6 N 4.261753 -0.098396 2.220026 0
M  V30 7 C 4.553229 0.700436 1.158726 0
M  V30 8 N 5.669645 0.360118 0.348124 0
M  V30 9 C 3.823052 1.844771 0.803967 0
M  V30 10 C 4.192220 2.623046 -0.409950 0
M  V30 11 N 3.777428 1.967650 -1.633522 0
M  V30 12 C 2.367996 1.667703 -1.760436 0
M  V30 13 N 1.525512 2.563985 -1.465958 0
M  V30 14 C 1.863748 3.831299 -1.025125 0
M  V30 15 N 2.134190 4.922835 -0.654035 0
M  V30 16 N 1.864162 0.371629 -2.194340 0
M  V30 17 C 0.580133 -0.132685 -1.888281 0
M  V30 18 C -0.561275 0.560719 -1.591280 0
M  V30 19 C -1.750660 -0.020764 -1.237109 0
M  V30 20 C -1.829506 -1.401846 -1.168040 0
M  V30 21 N -3.065560 -2.004573 -0.793717 0
M  V30 22 C -3.340062 -3.375520 -0.538306 0
M  V30 23 O -4.471939 -3.825534 -0.221843 0
M  V30 24 C -2.659947 -4.652371 -0.506703 0
M  V30 25 C -2.597954 -5.690271 -1.384836 0
M  V30 26 C -1.845496 -6.807234 -1.067641 0
M  V30 27 C -1.146461 -6.913448 0.116701 0
M  V30 28 C -1.195359 -5.884909 1.010525 0
M  V30 29 C -1.953987 -4.746845 0.702493 0
M  V30 30 C -4.211319 -1.143628 -0.636555 0
M  V30 31 C -5.154839 -0.796009 -1.559912 0
M  V30 32 C -6.156073 0.077103 -1.135714 0
M  V30 33 C -6.211606 0.577360 0.147264 0
M  V30 34 C -5.240822 0.215208 1.086665 0
M  V30 35 C -4.243184 -0.657704 0.655237 0
M  V30 36 C -0.719193 -2.186552 -1.455791 0
M  V30 37 C 0.452358 -1.506009 -1.808050 0
M  V30 38 N 2.778653 2.117597 1.606060 0
M  V30 39 H 1.651366 1.388499 6.575924 0
M  V30 40 H 2.953200 1.341724 5.392559 0
M  V30 41 H 2.182715 -0.207031 6.016936 0
M  V30 42 H 0.781419 -0.147238 4.221409 0
M  V30 43 H -0.036932 1.201089 5.066645 0
M  V30 44 H 0.407311 1.705219 2.711872 0
M  V30 45 H 1.348789 2.854778 3.704519 0
M  V30 46 H 2.988407 -0.431514 3.813626 0
M  V30 47 H 5.561776 -0.376152 -0.406726 0
M  V30 48 H 6.455731 0.968893 0.700580 0
M  V30 49 H 5.320212 2.388728 -0.455982 0
M  V30 50 H 4.265338 3.674493 -0.348614 0
M  V30 51 H 4.319809 1.629702 -2.500639 0
M  V30 52 H 2.528213 -0.186503 -2.764675 0
M  V30 53 H -0.563599 1.620021 -1.631902 0
M  V30 54 H -2.628809 0.573808 -1.011201 0
M  V30 55 H -3.175656 -5.498247 -2.264725 0
M  V30 56 H -1.845141 -7.594061 -1.821162 0
M  V30 57 H -0.562738 -7.826090 0.316366 0
M  V30 58 H -0.631008 -6.010383 1.927891 0
M  V30 59 H -1.889630 -4.017622 1.518341 0
M  V30 60 H -5.012943 -1.241192 -2.514596 0
M  V30 61 H -6.890999 0.328443 -1.916698 0
M  V30 62 H -7.016115 1.253679 0.415492 0
M  V30 63 H -5.324945 0.631710 2.077853 0
M  V30 64 H -3.549281 -0.864476 1.473656 0
M  V30 65 H -0.732626 -3.244001 -1.420196 0
M  V30 66 H 1.298520 -2.142724 -2.026638 0
M  V30 END ATOM
M  V30 BEGIN BOND
M  V30 1 1 1 2
M  V30 2 1 2 3
M  V30 3 1 3 4
M  V30 4 2 4 5
M  V30 5 1 5 6
M  V30 6 2 6 7
M  V30 7 1 7 8
M  V30 8 1 7 9
M  V30 9 1 9 10
M  V30 10 1 10 11
M  V30 11 1 11 12
M  V30 12 2 12 13
M  V30 13 1 13 14
M  V30 14 3 14 15
M  V30 15 1 12 16
M  V30 16 1 16 17
M  V30 17 2 17 18
M  V30 18 1 18 19
M  V30 19 2 19 20
M  V30 20 1 20 21
M  V30 21 1 21 22
M  V30 22 2 22 23
M  V30 23 1 22 24
M  V30 24 2 24 25
M  V30 25 1 25 26
M  V30 26 2 26 27
M  V30 27 1 27 28
M  V30 28 2 28 29
M  V30 29 1 21 30
M  V30 30 2 30 31
M  V30 31 1 31 32
M  V30 32 2 32 33
M  V30 33 1 33 34
M  V30 34 2 34 35
M  V30 35 1 20 36
M  V30 36 2 36 37
M  V30 37 2 9 38
M  V30 38 1 38 4
M  V30 39 1 37 17
M  V30 40 1 29 24
M  V30 41 1 35 30
M  V30 42 1 1 39
M  V30 43 1 1 40
M  V30 44 1 1 41
M  V30 45 1 2 42
M  V30 46 1 2 43
M  V30 47 1 3 44
M  V30 48 1 3 45
M  V30 49 1 5 46
M  V30 50 1 8 47
M  V30 51 1 8 48
M  V30 52 1 10 49
M  V30 53 1 10 50
M  V30 54 1 11 51
M  V30 55 1 16 52
M  V30 56 1 18 53
M  V30 57 1 19 54
M  V30 58 1 25 55
M  V30 59 1 26 56
M  V30 60 1 27 57
M  V30 61 1 28 58
M  V30 62 1 29 59
M  V30 63 1 31 60
M  V30 64 1 32 61
M  V30 65 1 33 62
M  V30 66 1 34 63
M  V30 67 1 35 64
M  V30 68 1 36 65
M  V30 69 1 37 66
M  V30 END BOND
M  V30 END CTAB
M  END
>  <Dataset>  (687) 
ChEMBL_Kinases

>  <Ligand_Instance>  (687) 
nan

>  <PDB_ID>  (687) 
nan

>  <Standardized_SMILES>  (687) 
CCCc1cnc(N)c(CN/C(=N\C#N)Nc2ccc(N(C(=O)c3ccccc3)c3ccccc3)cc2)n1

>  <Name>  (687) 
nan

>  <Pocket>  (687) 
nan

>  <ATP_Site>  (687) 
nan

>  <Peripheral>  (687) 
nan

>  <Num_H_Atoms_ProtBoundConf>  (687) 
nan

>  <Num_Resolved_Atoms>  (687) 
nan

>  <Num_Not_Resolved_Atoms>  (687) 
nan

$$$$
CHEMBL3629147
     RDKit          3D

  0  0  0  0  0  0  0  0  0  0999 V3000
M  V30 BEGIN CTAB
M  V30 COUNTS 45 47 0 0 0
M  V30 BEGIN ATOM
M  V30 1 C 3.365738 -4.701235 3.248313 0
M  V30 2 C 3.873964 -5.379927 1.988505 0
M  V30 3 C 3.162594 -4.851202 0.760680 0
M  V30 4 C 3.368458 -3.391773 0.597770 0
M  V30 5 C 4.399027 -2.826178 -0.114915 0
M  V30 6 N 4.578419 -1.494656 -0.261280 0
M  V30 7 C 3.694997 -0.635894 0.325617 0
M  V30 8 N 3.899055 0.756740 0.160686 0
M  V30 9 C 2.644717 -1.187221 1.051911 0
M  V30 10 C 1.659118 -0.228167 1.709049 0
M  V30 11 N 0.839810 0.239146 0.630335 0
M  V30 12 C -0.243959 1.132991 0.811668 0
M  V30 13 N -0.523124 1.601803 1.937208 0
M  V30 14 C 0.172703 1.310128 3.099358 0
M  V30 15 N 0.751685 1.072802 4.100761 0
M  V30 16 N -1.090127 1.563158 -0.257253 0
M  V30 17 C -2.484189 1.821743 -0.163981 0
M  V30 18 C -3.264209 1.614505 0.945668 0
M  V30 19 C -4.616063 1.877126 1.016205 0
M  V30 20 C -5.191244 2.384200 -0.132608 0
M  V30 21 N -6.468362 2.731184 -0.361220 0
M  V30 22 C -6.538475 3.171395 -1.629325 0
M  V30 23 O -7.609520 3.575983 -2.159509 0
M  V30 24 O -5.327351 3.099598 -2.179695 0
M  V30 25 C -4.488446 2.619597 -1.278168 0
M  V30 26 C -3.145775 2.327473 -1.254599 0
M  V30 27 N 2.522778 -2.524816 1.158901 0
M  V30 28 H 3.958973 -4.993208 4.134015 0
M  V30 29 H 3.263059 -3.607391 3.140182 0
M  V30 30 H 2.331651 -5.071527 3.419863 0
M  V30 31 H 3.659158 -6.455678 2.124284 0
M  V30 32 H 4.958980 -5.163028 1.916458 0
M  V30 33 H 3.508293 -5.390430 -0.122151 0
M  V30 34 H 2.070724 -5.012565 0.843841 0
M  V30 35 H 5.117706 -3.469520 -0.593170 0
M  V30 36 H 4.011317 1.412382 0.973158 0
M  V30 37 H 3.967528 1.323483 -0.710824 0
M  V30 38 H 2.354668 0.527283 2.103505 0
M  V30 39 H 1.162132 -0.894092 2.408434 0
M  V30 40 H 0.994318 -0.050777 -0.361136 0
M  V30 41 H -0.616622 1.691336 -1.202790 0
M  V30 42 H -2.816613 1.216995 1.835959 0
M  V30 43 H -5.169136 1.685404 1.936513 0
M  V30 44 H -7.281706 2.680292 0.303840 0
M  V30 45 H -2.587813 2.519534 -2.179918 0
M  V30 END ATOM
M  V30 BEGIN BOND
M  V30 1 1 1 2
M  V30 2 1 2 3
M  V30 3 1 3 4
M  V30 4 2 4 5
M  V30 5 1 5 6
M  V30 6 2 6 7
M  V30 7 1 7 8
M  V30 8 1 7 9
M  V30 9 1 9 10
M  V30 10 1 10 11
M  V30 11 1 11 12
M  V30 12 2 12 13
M  V30 13 1 13 14
M  V30 14 3 14 15
M  V30 15 1 12 16
M  V30 16 1 16 17
M  V30 17 2 17 18
M  V30 18 1 18 19
M  V30 19 2 19 20
M  V30 20 1 20 21
M  V30 21 1 21 22
M  V30 22 2 22 23
M  V30 23 1 22 24
M  V30 24 1 24 25
M  V30 25 2 25 26
M  V30 26 2 9 27
M  V30 27 1 27 4
M  V30 28 1 26 17
M  V30 29 1 25 20
M  V30 30 1 1 28
M  V30 31 1 1 29
M  V30 32 1 1 30
M  V30 33 1 2 31
M  V30 34 1 2 32
M  V30 35 1 3 33
M  V30 36 1 3 34
M  V30 37 1 5 35
M  V30 38 1 8 36
M  V30 39 1 8 37
M  V30 40 1 10 38
M  V30 41 1 10 39
M  V30 42 1 11 40
M  V30 43 1 16 41
M  V30 44 1 18 42
M  V30 45 1 19 43
M  V30 46 1 21 44
M  V30 47 1 26 45
M  V30 END BOND
M  V30 END CTAB
M  END
>  <Dataset>  (688) 
ChEMBL_Kinases

>  <Ligand_Instance>  (688) 
nan

>  <PDB_ID>  (688) 
nan

>  <Standardized_SMILES>  (688) 
CCCc1cnc(N)c(CN/C(=N\C#N)Nc2ccc3[nH]c(=O)oc3c2)n1

>  <Name>  (688) 
nan

>  <Pocket>  (688) 
nan

>  <ATP_Site>  (688) 
nan

>  <Peripheral>  (688) 
nan

>  <Num_H_Atoms_ProtBoundConf>  (688) 
nan

>  <Num_Resolved_Atoms>  (688) 
nan

>  <Num_Not_Resolved_Atoms>  (688) 
nan

$$$$
CHEMBL3629146
     RDKit          3D

  0  0  0  0  0  0  0  0  0  0999 V3000
M  V30 BEGIN CTAB
M  V30 COUNTS 57 59 0 0 0
M  V30 BEGIN ATOM
M  V30 1 C 5.204397 0.427248 5.106420 0
M  V30 2 C 6.074637 -0.043635 3.960957 0
M  V30 3 C 7.193899 -0.876716 4.576004 0
M  V30 4 C 6.773631 1.132580 3.291079 0
M  V30 5 O 5.347243 -0.828359 3.068773 0
M  V30 6 C 4.242235 -0.390926 2.390935 0
M  V30 7 O 3.857062 0.789915 2.583745 0
M  V30 8 N 3.526019 -1.221276 1.486673 0
M  V30 9 C 2.397979 -0.621439 0.861662 0
M  V30 10 C 2.431287 0.069617 -0.328082 0
M  V30 11 C 1.299259 0.626471 -0.878694 0
M  V30 12 C 0.055849 0.516006 -0.252548 0
M  V30 13 N -1.077022 1.104998 -0.871581 0
M  V30 14 C -2.395077 1.190410 -0.344065 0
M  V30 15 N -2.509161 1.204045 0.913017 0
M  V30 16 C -3.723102 1.285555 1.573040 0
M  V30 17 N -4.751133 1.362514 2.154841 0
M  V30 18 N -3.582362 1.263367 -1.105909 0
M  V30 19 C -4.714105 0.433476 -0.891328 0
M  V30 20 C -4.534521 -0.995335 -1.309123 0
M  V30 21 N -5.018941 -1.434196 -2.470192 0
M  V30 22 C -4.904669 -2.678461 -2.948053 0
M  V30 23 C -5.529829 -2.937147 -4.269469 0
M  V30 24 C -4.827763 -3.930818 -5.156105 0
M  V30 25 C -6.130911 -4.265012 -4.542698 0
M  V30 26 C -4.246414 -3.642836 -2.241206 0
M  V30 27 N -3.738086 -3.239628 -1.054072 0
M  V30 28 C -3.894518 -1.975273 -0.643869 0
M  V30 29 N -3.307217 -1.785983 0.617872 0
M  V30 30 C 0.075171 -0.182090 0.930049 0
M  V30 31 C 1.175673 -0.754440 1.518602 0
M  V30 32 H 4.399033 -0.323427 5.251527 0
M  V30 33 H 5.813283 0.534170 6.025906 0
M  V30 34 H 4.730296 1.406208 4.888951 0
M  V30 35 H 7.401351 -0.464874 5.584057 0
M  V30 36 H 6.867447 -1.923905 4.731010 0
M  V30 37 H 8.145449 -0.798028 4.012687 0
M  V30 38 H 7.615515 0.707585 2.679645 0
M  V30 39 H 7.269729 1.722189 4.090111 0
M  V30 40 H 6.112726 1.734603 2.663559 0
M  V30 41 H 3.903655 -2.190749 1.373181 0
M  V30 42 H 3.392719 0.168917 -0.833827 0
M  V30 43 H 1.359911 1.171919 -1.829964 0
M  V30 44 H -0.959764 1.529445 -1.823088 0
M  V30 45 H -3.479747 2.019706 -1.881857 0
M  V30 46 H -5.426672 0.805690 -1.713660 0
M  V30 47 H -5.380202 0.560549 -0.064362 0
M  V30 48 H -6.039317 -2.076870 -4.746895 0
M  V30 49 H -4.771114 -3.653680 -6.231144 0
M  V30 50 H -3.890372 -4.388974 -4.783091 0
M  V30 51 H -6.163426 -4.987472 -3.697220 0
M  V30 52 H -7.026621 -4.331086 -5.184804 0
M  V30 53 H -4.217818 -4.596422 -2.719917 0
M  V30 54 H -3.309611 -1.570209 1.635667 0
M  V30 55 H -3.320712 -1.571709 1.621717 0
M  V30 56 H -0.847198 -0.312585 1.466766 0
M  V30 57 H 1.113962 -1.287372 2.449460 0
M  V30 END ATOM
M  V30 BEGIN BOND
M  V30 1 1 1 2
M  V30 2 1 2 3
M  V30 3 1 2 4
M  V30 4 1 2 5
M  V30 5 1 5 6
M  V30 6 2 6 7
M  V30 7 1 6 8
M  V30 8 1 8 9
M  V30 9 2 9 10
M  V30 10 1 10 11
M  V30 11 2 11 12
M  V30 12 1 12 13
M  V30 13 1 13 14
M  V30 14 2 14 15
M  V30 15 1 15 16
M  V30 16 3 16 17
M  V30 17 1 14 18
M  V30 18 1 18 19
M  V30 19 1 19 20
M  V30 20 2 20 21
M  V30 21 1 21 22
M  V30 22 1 22 23
M  V30 23 1 23 24
M  V30 24 1 24 25
M  V30 25 2 22 26
M  V30 26 1 26 27
M  V30 27 2 27 28
M  V30 28 1 28 29
M  V30 29 1 12 30
M  V30 30 2 30 31
M  V30 31 1 31 9
M  V30 32 1 28 20
M  V30 33 1 25 23
M  V30 34 1 1 32
M  V30 35 1 1 33
M  V30 36 1 1 34
M  V30 37 1 3 35
M  V30 38 1 3 36
M  V30 39 1 3 37
M  V30 40 1 4 38
M  V30 41 1 4 39
M  V30 42 1 4 40
M  V30 43 1 8 41
M  V30 44 1 10 42
M  V30 45 1 11 43
M  V30 46 1 13 44
M  V30 47 1 18 45
M  V30 48 1 19 46
M  V30 49 1 19 47
M  V30 50 1 23 48
M  V30 51 1 24 49
M  V30 52 1 24 50
M  V30 53 1 25 51
M  V30 54 1 25 52
M  V30 55 1 26 53
M  V30 56 1 29 54
M  V30 57 1 29 55
M  V30 58 1 30 56
M  V30 59 1 31 57
M  V30 END BOND
M  V30 END CTAB
M  END
>  <Dataset>  (689) 
ChEMBL_Kinases

>  <Ligand_Instance>  (689) 
nan

>  <PDB_ID>  (689) 
nan

>  <Standardized_SMILES>  (689) 
CC(C)(C)OC(=O)Nc1ccc(N/C(=N/C#N)NCc2nc(C3CC3)cnc2N)cc1

>  <Name>  (689) 
nan

>  <Pocket>  (689) 
nan

>  <ATP_Site>  (689) 
nan

>  <Peripheral>  (689) 
nan

>  <Num_H_Atoms_ProtBoundConf>  (689) 
nan

>  <Num_Resolved_Atoms>  (689) 
nan

>  <Num_Not_Resolved_Atoms>  (689) 
nan

$$$$
CHEMBL362902
     RDKit          3D

  0  0  0  0  0  0  0  0  0  0999 V3000
M  V30 BEGIN CTAB
M  V30 COUNTS 75 78 0 0 0
M  V30 BEGIN ATOM
M  V30 1 C 3.456541 -1.659694 2.812839 0
M  V30 2 C 2.848787 -0.467826 2.172479 0
M  V30 3 C 3.641234 0.210919 1.293189 0
M  V30 4 C 3.175151 1.338632 0.650009 0
M  V30 5 C 1.903257 1.821219 0.865699 0
M  V30 6 N 1.462149 2.969626 0.197590 0
M  V30 7 C 0.253494 3.689911 0.158084 0
M  V30 8 O -0.657415 3.186097 0.893859 0
M  V30 9 C -0.018755 4.889446 -0.608871 0
M  V30 10 C 0.904174 5.603126 -1.378862 0
M  V30 11 C 0.525184 6.734394 -2.072813 0
M  V30 12 N -0.752058 7.161251 -2.011734 0
M  V30 13 C -1.676784 6.512634 -1.289309 0
M  V30 14 N -3.004992 7.002383 -1.260310 0
M  V30 15 C -4.168695 6.425068 -0.621266 0
M  V30 16 C -5.205640 6.024775 -1.686186 0
M  V30 17 O -4.970770 6.725056 -2.866984 0
M  V30 18 C -4.691049 8.072592 -2.661897 0
M  V30 19 C -3.374877 8.234823 -1.923239 0
M  V30 20 C -1.295629 5.392571 -0.603625 0
M  V30 21 C 1.156128 1.091938 1.762120 0
M  V30 22 C 1.560501 -0.045636 2.441062 0
M  V30 23 N 0.783581 -0.763530 3.356071 0
M  V30 24 C 0.303427 -2.123317 3.363348 0
M  V30 25 C -0.397550 -2.539565 4.471145 0
M  V30 26 C -0.873479 -3.829885 4.486994 0
M  V30 27 N -0.666126 -4.667704 3.458669 0
M  V30 28 C 0.029026 -4.243062 2.368816 0
M  V30 29 O 0.388529 -4.865195 1.187820 0
M  V30 30 C 0.070608 -6.203499 0.853940 0
M  V30 31 C 0.587541 -6.562516 -0.523439 0
M  V30 32 C -0.136506 -5.559503 -1.467742 0
M  V30 33 C 2.060402 -6.321850 -0.699668 0
M  V30 34 C 0.220276 -7.945947 -0.951143 0
M  V30 35 N 0.680705 -8.986097 -0.104037 0
M  V30 36 C 0.119224 -10.240801 -0.649863 0
M  V30 37 C 2.082375 -9.181480 0.027064 0
M  V30 38 N 0.498149 -2.960964 2.360261 0
M  V30 39 H 3.768753 -2.434125 2.103386 0
M  V30 40 H 4.385717 -1.274702 3.321318 0
M  V30 41 H 2.813076 -2.055457 3.626979 0
M  V30 42 H 4.664606 -0.108449 1.064458 0
M  V30 43 H 3.838608 1.852584 -0.041026 0
M  V30 44 H 2.167835 3.452969 -0.442271 0
M  V30 45 H 1.907250 5.219797 -1.393283 0
M  V30 46 H 1.270950 7.246462 -2.650303 0
M  V30 47 H -3.980266 5.528412 -0.031472 0
M  V30 48 H -4.617083 7.191137 0.024189 0
M  V30 49 H -5.041564 4.945639 -1.926337 0
M  V30 50 H -6.231083 6.152894 -1.283669 0
M  V30 51 H -5.522821 8.606535 -2.153228 0
M  V30 52 H -4.593945 8.541045 -3.664373 0
M  V30 53 H -3.559756 8.995524 -1.117869 0
M  V30 54 H -2.569374 8.644168 -2.567546 0
M  V30 55 H -2.059225 4.878720 -0.021599 0
M  V30 56 H 0.144995 1.383456 2.001253 0
M  V30 57 H 0.570508 -0.107427 4.129167 0
M  V30 58 H -0.613289 -1.934308 5.346526 0
M  V30 59 H -1.423666 -4.196820 5.322643 0
M  V30 60 H -1.023039 -6.352053 0.917021 0
M  V30 61 H 0.547841 -6.910121 1.554275 0
M  V30 62 H 0.416189 -4.589787 -1.467805 0
M  V30 63 H -0.218904 -6.003222 -2.471665 0
M  V30 64 H -1.147307 -5.349317 -1.065536 0
M  V30 65 H 2.421363 -6.702279 -1.684397 0
M  V30 66 H 2.591566 -6.693621 0.175489 0
M  V30 67 H 2.167493 -5.205224 -0.809064 0
M  V30 68 H -0.881880 -8.037243 -1.169998 0
M  V30 69 H 0.679091 -8.068753 -1.985108 0
M  V30 70 H -0.089829 -10.116612 -1.727543 0
M  V30 71 H -0.796780 -10.438704 -0.041875 0
M  V30 72 H 0.846322 -11.044398 -0.448555 0
M  V30 73 H 2.292669 -10.309394 0.060313 0
M  V30 74 H 2.711353 -8.846469 -0.811010 0
M  V30 75 H 2.499625 -8.860361 1.029291 0
M  V30 END ATOM
M  V30 BEGIN BOND
M  V30 1 1 1 2
M  V30 2 2 2 3
M  V30 3 1 3 4
M  V30 4 2 4 5
M  V30 5 1 5 6
M  V30 6 1 6 7
M  V30 7 2 7 8
M  V30 8 1 7 9
M  V30 9 2 9 10
M  V30 10 1 10 11
M  V30 11 2 11 12
M  V30 12 1 12 13
M  V30 13 1 13 14
M  V30 14 1 14 15
M  V30 15 1 15 16
M  V30 16 1 16 17
M  V30 17 1 17 18
M  V30 18 1 18 19
M  V30 19 2 13 20
M  V30 20 1 5 21
M  V30 21 2 21 22
M  V30 22 1 22 23
M  V30 23 1 23 24
M  V30 24 2 24 25
M  V30 25 1 25 26
M  V30 26 2 26 27
M  V30 27 1 27 28
M  V30 28 1 28 29
M  V30 29 1 29 30
M  V30 30 1 30 31
M  V30 31 1 31 32
M  V30 32 1 31 33
M  V30 33 1 31 34
M  V30 34 1 34 35
M  V30 35 1 35 36
M  V30 36 1 35 37
M  V30 37 2 28 38
M  V30 38 1 22 2
M  V30 39 1 38 24
M  V30 40 1 20 9
M  V30 41 1 19 14
M  V30 42 1 1 39
M  V30 43 1 1 40
M  V30 44 1 1 41
M  V30 45 1 3 42
M  V30 46 1 4 43
M  V30 47 1 6 44
M  V30 48 1 10 45
M  V30 49 1 11 46
M  V30 50 1 15 47
M  V30 51 1 15 48
M  V30 52 1 16 49
M  V30 53 1 16 50
M  V30 54 1 18 51
M  V30 55 1 18 52
M  V30 56 1 19 53
M  V30 57 1 19 54
M  V30 58 1 20 55
M  V30 59 1 21 56
M  V30 60 1 23 57
M  V30 61 1 25 58
M  V30 62 1 26 59
M  V30 63 1 30 60
M  V30 64 1 30 61
M  V30 65 1 32 62
M  V30 66 1 32 63
M  V30 67 1 32 64
M  V30 68 1 33 65
M  V30 69 1 33 66
M  V30 70 1 33 67
M  V30 71 1 34 68
M  V30 72 1 34 69
M  V30 73 1 36 70
M  V30 74 1 36 71
M  V30 75 1 36 72
M  V30 76 1 37 73
M  V30 77 1 37 74
M  V30 78 1 37 75
M  V30 END BOND
M  V30 END CTAB
M  END
>  <Dataset>  (690) 
ChEMBL_Kinases

>  <Ligand_Instance>  (690) 
nan

>  <PDB_ID>  (690) 
nan

>  <Standardized_SMILES>  (690) 
Cc1ccc(NC(=O)c2ccnc(N3CCOCC3)c2)cc1Nc1ccnc(OCC(C)(C)CN(C)C)n1

>  <Name>  (690) 
nan

>  <Pocket>  (690) 
nan

>  <ATP_Site>  (690) 
nan

>  <Peripheral>  (690) 
nan

>  <Num_H_Atoms_ProtBoundConf>  (690) 
nan

>  <Num_Resolved_Atoms>  (690) 
nan

>  <Num_Not_Resolved_Atoms>  (690) 
nan

$$$$
CHEMBL3628992
     RDKit          3D

  0  0  0  0  0  0  0  0  0  0999 V3000
M  V30 BEGIN CTAB
M  V30 COUNTS 33 34 0 0 0
M  V30 BEGIN ATOM
M  V30 1 N 1.352095 -3.955913 1.175632 0
M  V30 2 C 0.555245 -3.101783 1.354580 0
M  V30 3 N -0.387866 -2.118589 1.579554 0
M  V30 4 C -0.277911 -0.946679 1.118928 0
M  V30 5 N 0.822820 -0.540446 0.331936 0
M  V30 6 C 1.889459 -1.434283 -0.040704 0
M  V30 7 C 2.789500 -0.560960 -0.907211 0
M  V30 8 N 2.798326 -0.677496 -2.271319 0
M  V30 9 C 3.586425 0.088302 -3.039004 0
M  V30 10 Cl 3.571323 -0.087574 -4.780839 0
M  V30 11 C 4.380616 0.993277 -2.367281 0
M  V30 12 N 4.402952 1.140277 -1.030812 0
M  V30 13 C 3.606209 0.364310 -0.274050 0
M  V30 14 N 3.639871 0.530540 1.135290 0
M  V30 15 N -1.365079 -0.081877 1.468272 0
M  V30 16 C -2.732590 -0.449338 1.644974 0
M  V30 17 C -3.238964 -1.700632 1.399100 0
M  V30 18 C -4.581808 -2.017324 1.593478 0
M  V30 19 C -5.448260 -1.046616 2.050097 0
M  V30 20 C -4.958049 0.215565 2.302028 0
M  V30 21 C -3.624058 0.493983 2.098747 0
M  V30 22 H 0.775493 0.470034 0.057658 0
M  V30 23 H 1.609101 -2.201071 -0.751833 0
M  V30 24 H 2.571089 -1.675949 0.780601 0
M  V30 25 H 5.018822 1.613728 -2.977811 0
M  V30 26 H 3.568472 1.388461 1.730928 0
M  V30 27 H 3.749293 -0.232476 1.862192 0
M  V30 28 H -1.112131 0.939320 1.601778 0
M  V30 29 H -2.613053 -2.488331 1.040179 0
M  V30 30 H -4.949832 -3.030727 1.386319 0
M  V30 31 H -6.480517 -1.362816 2.179276 0
M  V30 32 H -5.644793 0.961264 2.656789 0
M  V30 33 H -3.331219 1.529749 2.327638 0
M  V30 END ATOM
M  V30 BEGIN BOND
M  V30 1 3 1 2
M  V30 2 1 2 3
M  V30 3 2 3 4
M  V30 4 1 4 5
M  V30 5 1 5 6
M  V30 6 1 6 7
M  V30 7 2 7 8
M  V30 8 1 8 9
M  V30 9 1 9 10
M  V30 10 2 9 11
M  V30 11 1 11 12
M  V30 12 2 12 13
M  V30 13 1 13 14
M  V30 14 1 4 15
M  V30 15 1 15 16
M  V30 16 2 16 17
M  V30 17 1 17 18
M  V30 18 2 18 19
M  V30 19 1 19 20
M  V30 20 2 20 21
M  V30 21 1 13 7
M  V30 22 1 21 16
M  V30 23 1 5 22
M  V30 24 1 6 23
M  V30 25 1 6 24
M  V30 26 1 11 25
M  V30 27 1 14 26
M  V30 28 1 14 27
M  V30 29 1 15 28
M  V30 30 1 17 29
M  V30 31 1 18 30
M  V30 32 1 19 31
M  V30 33 1 20 32
M  V30 34 1 21 33
M  V30 END BOND
M  V30 END CTAB
M  END
>  <Dataset>  (691) 
ChEMBL_Kinases

>  <Ligand_Instance>  (691) 
nan

>  <PDB_ID>  (691) 
nan

>  <Standardized_SMILES>  (691) 
N#C/N=C(\NCc1nc(Cl)cnc1N)Nc1ccccc1

>  <Name>  (691) 
nan

>  <Pocket>  (691) 
nan

>  <ATP_Site>  (691) 
nan

>  <Peripheral>  (691) 
nan

>  <Num_H_Atoms_ProtBoundConf>  (691) 
nan

>  <Num_Resolved_Atoms>  (691) 
nan

>  <Num_Not_Resolved_Atoms>  (691) 
nan

$$$$
CHEMBL3628991
     RDKit          3D

  0  0  0  0  0  0  0  0  0  0999 V3000
M  V30 BEGIN CTAB
M  V30 COUNTS 60 63 0 0 0
M  V30 BEGIN ATOM
M  V30 1 C 3.650713 -1.850047 4.435357 0
M  V30 2 O 3.288900 -0.966785 3.367445 0
M  V30 3 N 1.952387 -0.856437 3.077187 0
M  V30 4 C 1.392012 0.285021 3.244996 0
M  V30 5 N 2.141826 1.395495 3.715856 0
M  V30 6 C 3.542684 1.565817 3.381337 0
M  V30 7 C 3.782086 1.715976 1.919443 0
M  V30 8 N 4.276402 0.817131 1.090535 0
M  V30 9 C 4.437249 1.097866 -0.200818 0
M  V30 10 Cl 5.105705 -0.209318 -1.157781 0
M  V30 11 C 4.117636 2.309530 -0.788436 0
M  V30 12 N 3.615116 3.233846 0.036346 0
M  V30 13 C 3.455847 2.950085 1.325716 0
M  V30 14 N 2.906353 4.044574 2.091675 0
M  V30 15 N 0.003569 0.351147 2.946884 0
M  V30 16 C -0.590950 -0.234617 1.793660 0
M  V30 17 C -1.961094 -0.247664 1.674081 0
M  V30 18 C -2.530161 -0.782676 0.542826 0
M  V30 19 C -1.771239 -1.317582 -0.498631 0
M  V30 20 N -2.562289 -1.796444 -1.580864 0
M  V30 21 C -2.963249 -3.146774 -1.668782 0
M  V30 22 O -3.657522 -3.745981 -2.537322 0
M  V30 23 C -2.717813 -4.277588 -0.813859 0
M  V30 24 C -1.361403 -4.598713 -0.732496 0
M  V30 25 C -0.936498 -5.670960 0.049863 0
M  V30 26 C -1.808948 -6.446144 0.762159 0
M  V30 27 C -3.158601 -6.136454 0.688519 0
M  V30 28 C -3.569547 -5.062835 -0.096403 0
M  V30 29 C -2.913643 -0.835774 -2.555344 0
M  V30 30 C -3.600993 -1.037085 -3.725849 0
M  V30 31 C -3.933376 -0.050180 -4.624176 0
M  V30 32 C -3.572526 1.244916 -4.374996 0
M  V30 33 C -2.880086 1.527647 -3.222034 0
M  V30 34 C -2.583904 0.502327 -2.377175 0
M  V30 35 C -0.415998 -1.295481 -0.355581 0
M  V30 36 C 0.168023 -0.762428 0.772846 0
M  V30 37 H 4.108807 -2.773708 4.045571 0
M  V30 38 H 2.827012 -2.017430 5.132433 0
M  V30 39 H 4.454256 -1.310248 5.001430 0
M  V30 40 H 1.558594 2.060552 4.319025 0
M  V30 41 H 3.764667 2.604645 3.787683 0
M  V30 42 H 4.260372 0.972104 3.927615 0
M  V30 43 H 4.307005 2.380955 -1.850290 0
M  V30 44 H 3.278065 4.819522 2.714849 0
M  V30 45 H 1.872881 4.156967 2.069521 0
M  V30 46 H -0.605353 0.884064 3.635992 0
M  V30 47 H -2.525845 0.161328 2.472658 0
M  V30 48 H -3.626605 -0.750225 0.536627 0
M  V30 49 H -0.529876 -4.112729 -1.211840 0
M  V30 50 H 0.098920 -5.975624 0.162590 0
M  V30 51 H -1.601826 -7.282116 1.389165 0
M  V30 52 H -3.949035 -6.689458 1.216055 0
M  V30 53 H -4.601584 -4.772722 -0.195445 0
M  V30 54 H -3.913872 -2.023337 -3.989302 0
M  V30 55 H -4.480993 -0.280486 -5.537842 0
M  V30 56 H -3.824355 2.030484 -5.063608 0
M  V30 57 H -2.603451 2.549884 -3.036549 0
M  V30 58 H -2.037483 0.813672 -1.488541 0
M  V30 59 H 0.121474 -1.725654 -1.192316 0
M  V30 60 H 1.258234 -0.778814 0.813204 0
M  V30 END ATOM
M  V30 BEGIN BOND
M  V30 1 1 1 2
M  V30 2 1 2 3
M  V30 3 2 3 4
M  V30 4 1 4 5
M  V30 5 1 5 6
M  V30 6 1 6 7
M  V30 7 2 7 8
M  V30 8 1 8 9
M  V30 9 1 9 10
M  V30 10 2 9 11
M  V30 11 1 11 12
M  V30 12 2 12 13
M  V30 13 1 13 14
M  V30 14 1 4 15
M  V30 15 1 15 16
M  V30 16 2 16 17
M  V30 17 1 17 18
M  V30 18 2 18 19
M  V30 19 1 19 20
M  V30 20 1 20 21
M  V30 21 2 21 22
M  V30 22 1 21 23
M  V30 23 2 23 24
M  V30 24 1 24 25
M  V30 25 2 25 26
M  V30 26 1 26 27
M  V30 27 2 27 28
M  V30 28 1 20 29
M  V30 29 2 29 30
M  V30 30 1 30 31
M  V30 31 2 31 32
M  V30 32 1 32 33
M  V30 33 2 33 34
M  V30 34 1 19 35
M  V30 35 2 35 36
M  V30 36 1 13 7
M  V30 37 1 36 16
M  V30 38 1 28 23
M  V30 39 1 34 29
M  V30 40 1 1 37
M  V30 41 1 1 38
M  V30 42 1 1 39
M  V30 43 1 5 40
M  V30 44 1 6 41
M  V30 45 1 6 42
M  V30 46 1 11 43
M  V30 47 1 14 44
M  V30 48 1 14 45
M  V30 49 1 15 46
M  V30 50 1 17 47
M  V30 51 1 18 48
M  V30 52 1 24 49
M  V30 53 1 25 50
M  V30 54 1 26 51
M  V30 55 1 27 52
M  V30 56 1 28 53
M  V30 57 1 30 54
M  V30 58 1 31 55
M  V30 59 1 32 56
M  V30 60 1 33 57
M  V30 61 1 34 58
M  V30 62 1 35 59
M  V30 63 1 36 60
M  V30 END BOND
M  V30 END CTAB
M  END
>  <Dataset>  (692) 
ChEMBL_Kinases

>  <Ligand_Instance>  (692) 
nan

>  <PDB_ID>  (692) 
nan

>  <Standardized_SMILES>  (692) 
CO/N=C(\NCc1nc(Cl)cnc1N)Nc1ccc(N(C(=O)c2ccccc2)c2ccccc2)cc1

>  <Name>  (692) 
nan

>  <Pocket>  (692) 
nan

>  <ATP_Site>  (692) 
nan

>  <Peripheral>  (692) 
nan

>  <Num_H_Atoms_ProtBoundConf>  (692) 
nan

>  <Num_Resolved_Atoms>  (692) 
nan

>  <Num_Not_Resolved_Atoms>  (692) 
nan

$$$$
CHEMBL3628990
     RDKit          3D

  0  0  0  0  0  0  0  0  0  0999 V3000
M  V30 BEGIN CTAB
M  V30 COUNTS 53 54 0 0 0
M  V30 BEGIN ATOM
M  V30 1 C 5.585314 -1.792673 2.487250 0
M  V30 2 O 4.549987 -0.892656 2.219808 0
M  V30 3 N 3.251288 -1.242048 2.395276 0
M  V30 4 C 2.488198 -0.542801 3.183351 0
M  V30 5 N 3.078931 0.588301 3.839367 0
M  V30 6 C 4.084966 1.405222 3.207167 0
M  V30 7 C 3.610511 2.077660 1.964659 0
M  V30 8 N 3.929750 1.733992 0.703945 0
M  V30 9 C 3.412907 2.456449 -0.297368 0
M  V30 10 Cl 3.920714 1.886334 -1.896935 0
M  V30 11 C 2.569546 3.540466 -0.189924 0
M  V30 12 N 2.244554 3.891722 1.070952 0
M  V30 13 C 2.751768 3.179418 2.113170 0
M  V30 14 N 2.317320 3.670170 3.399506 0
M  V30 15 N 1.160477 -0.952105 3.328912 0
M  V30 16 C 0.366508 -1.580763 2.336215 0
M  V30 17 C 0.715059 -1.824211 1.029631 0
M  V30 18 C -0.080364 -2.439216 0.109742 0
M  V30 19 C -1.326542 -2.858584 0.481619 0
M  V30 20 N -2.283367 -3.520102 -0.366395 0
M  V30 21 C -3.156696 -2.608105 -1.047990 0
M  V30 22 O -3.053863 -1.358241 -0.884689 0
M  V30 23 O -4.119846 -3.091445 -1.890661 0
M  V30 24 C -5.029085 -2.273588 -2.608737 0
M  V30 25 C -4.357042 -1.310180 -3.545233 0
M  V30 26 C -5.968180 -3.165253 -3.407848 0
M  V30 27 C -5.788174 -1.473275 -1.576356 0
M  V30 28 C -1.771845 -2.655421 1.790352 0
M  V30 29 C -0.903887 -2.026295 2.654967 0
M  V30 30 H 5.877524 -1.662119 3.556702 0
M  V30 31 H 5.265274 -2.855861 2.376703 0
M  V30 32 H 6.478218 -1.594750 1.852522 0
M  V30 33 H 2.687405 0.748310 4.825647 0
M  V30 34 H 4.187471 2.280036 3.932085 0
M  V30 35 H 5.101148 1.034802 3.192299 0
M  V30 36 H 2.259673 3.991546 -1.118948 0
M  V30 37 H 2.910063 4.410322 3.835080 0
M  V30 38 H 1.457183 3.123304 3.586825 0
M  V30 39 H 0.720552 -0.765981 4.267934 0
M  V30 40 H 1.688435 -1.505565 0.692821 0
M  V30 41 H 0.214756 -2.616799 -0.900768 0
M  V30 42 H -2.339921 -4.555438 -0.477436 0
M  V30 43 H -5.146964 -0.948436 -4.254337 0
M  V30 44 H -3.518953 -1.761998 -4.102892 0
M  V30 45 H -3.977836 -0.404117 -2.993993 0
M  V30 46 H -6.390757 -3.880553 -2.654538 0
M  V30 47 H -6.788888 -2.547504 -3.789641 0
M  V30 48 H -5.412547 -3.722497 -4.176740 0
M  V30 49 H -5.811862 -1.993310 -0.600313 0
M  V30 50 H -5.232256 -0.514330 -1.426593 0
M  V30 51 H -6.825077 -1.248109 -1.952179 0
M  V30 52 H -2.747659 -2.972022 2.120432 0
M  V30 53 H -1.267819 -1.875682 3.673176 0
M  V30 END ATOM
M  V30 BEGIN BOND
M  V30 1 1 1 2
M  V30 2 1 2 3
M  V30 3 2 3 4
M  V30 4 1 4 5
M  V30 5 1 5 6
M  V30 6 1 6 7
M  V30 7 2 7 8
M  V30 8 1 8 9
M  V30 9 1 9 10
M  V30 10 2 9 11
M  V30 11 1 11 12
M  V30 12 2 12 13
M  V30 13 1 13 14
M  V30 14 1 4 15
M  V30 15 1 15 16
M  V30 16 2 16 17
M  V30 17 1 17 18
M  V30 18 2 18 19
M  V30 19 1 19 20
M  V30 20 1 20 21
M  V30 21 2 21 22
M  V30 22 1 21 23
M  V30 23 1 23 24
M  V30 24 1 24 25
M  V30 25 1 24 26
M  V30 26 1 24 27
M  V30 27 1 19 28
M  V30 28 2 28 29
M  V30 29 1 13 7
M  V30 30 1 29 16
M  V30 31 1 1 30
M  V30 32 1 1 31
M  V30 33 1 1 32
M  V30 34 1 5 33
M  V30 35 1 6 34
M  V30 36 1 6 35
M  V30 37 1 11 36
M  V30 38 1 14 37
M  V30 39 1 14 38
M  V30 40 1 15 39
M  V30 41 1 17 40
M  V30 42 1 18 41
M  V30 43 1 20 42
M  V30 44 1 25 43
M  V30 45 1 25 44
M  V30 46 1 25 45
M  V30 47 1 26 46
M  V30 48 1 26 47
M  V30 49 1 26 48
M  V30 50 1 27 49
M  V30 51 1 27 50
M  V30 52 1 27 51
M  V30 53 1 28 52
M  V30 54 1 29 53
M  V30 END BOND
M  V30 END CTAB
M  END
>  <Dataset>  (693) 
ChEMBL_Kinases

>  <Ligand_Instance>  (693) 
nan

>  <PDB_ID>  (693) 
nan

>  <Standardized_SMILES>  (693) 
CO/N=C(\NCc1nc(Cl)cnc1N)Nc1ccc(NC(=O)OC(C)(C)C)cc1

>  <Name>  (693) 
nan

>  <Pocket>  (693) 
nan

>  <ATP_Site>  (693) 
nan

>  <Peripheral>  (693) 
nan

>  <Num_H_Atoms_ProtBoundConf>  (693) 
nan

>  <Num_Resolved_Atoms>  (693) 
nan

>  <Num_Not_Resolved_Atoms>  (693) 
nan

$$$$
CHEMBL3628811
     RDKit          3D

  0  0  0  0  0  0  0  0  0  0999 V3000
M  V30 BEGIN CTAB
M  V30 COUNTS 50 54 0 0 0
M  V30 BEGIN ATOM
M  V30 1 O -1.589474 -3.576357 -0.690451 0
M  V30 2 C -2.383152 -3.365680 0.226389 0
M  V30 3 N -2.500561 -2.075285 0.757936 0
M  V30 4 C -1.831557 -0.870456 0.420447 0
M  V30 5 C -2.161493 0.265152 1.129545 0
M  V30 6 C -1.535387 1.461720 0.837165 0
M  V30 7 C -0.578150 1.561195 -0.153482 0
M  V30 8 O -0.042009 2.740719 -0.355470 0
M  V30 9 C 0.832491 3.671464 -0.176721 0
M  V30 10 N 0.476853 4.699769 -0.963228 0
M  V30 11 C 1.119356 5.870649 -1.080327 0
M  V30 12 N 2.222156 5.995121 -0.324076 0
M  V30 13 C 2.600803 4.981797 0.471947 0
M  V30 14 S 4.017913 4.946320 1.533801 0
M  V30 15 C 3.652636 3.208257 2.141775 0
M  V30 16 C 2.468805 2.844433 1.454213 0
M  V30 17 C 1.958365 3.783624 0.603339 0
M  V30 18 C 2.004692 1.501538 1.804858 0
M  V30 19 C 2.838610 0.809107 2.814710 0
M  V30 20 C 4.307692 1.013909 2.756885 0
M  V30 21 C 4.484445 2.509231 3.092619 0
M  V30 22 C -0.231859 0.421945 -0.881459 0
M  V30 23 C -0.878186 -0.753921 -0.560935 0
M  V30 24 N -3.104609 -4.486352 0.647223 0
M  V30 25 C -2.788898 -5.700216 -0.073028 0
M  V30 26 C -3.577153 -5.892145 -1.190522 0
M  V30 27 C -3.378282 -7.003800 -1.958497 0
M  V30 28 C -2.399116 -7.885741 -1.584311 0
M  V30 29 C -1.594875 -7.729524 -0.480006 0
M  V30 30 Br -0.232659 -8.953214 0.043197 0
M  V30 31 C -1.806563 -6.601558 0.287400 0
M  V30 32 H -3.224454 -2.056362 1.539372 0
M  V30 33 H -2.920005 0.232382 1.928995 0
M  V30 34 H -1.835904 2.308408 1.424023 0
M  V30 35 H 0.942640 6.760940 -1.663666 0
M  V30 36 H 1.971827 0.810322 0.917447 0
M  V30 37 H 0.967884 1.490966 2.217317 0
M  V30 38 H 2.489140 1.092205 3.830919 0
M  V30 39 H 2.634662 -0.300722 2.763484 0
M  V30 40 H 4.749954 0.839484 1.765240 0
M  V30 41 H 4.783248 0.393997 3.513561 0
M  V30 42 H 4.115697 2.653348 4.127644 0
M  V30 43 H 5.530959 2.791801 2.986100 0
M  V30 44 H 0.518944 0.484830 -1.663406 0
M  V30 45 H -0.586714 -1.588844 -1.134514 0
M  V30 46 H -3.810584 -4.380985 1.437066 0
M  V30 47 H -4.356528 -5.215626 -1.511492 0
M  V30 48 H -3.963814 -7.207907 -2.844256 0
M  V30 49 H -2.235772 -8.779057 -2.197185 0
M  V30 50 H -1.240489 -6.362317 1.181677 0
M  V30 END ATOM
M  V30 BEGIN BOND
M  V30 1 2 1 2
M  V30 2 1 2 3
M  V30 3 1 3 4
M  V30 4 2 4 5
M  V30 5 1 5 6
M  V30 6 2 6 7
M  V30 7 1 7 8
M  V30 8 1 8 9
M  V30 9 2 9 10
M  V30 10 1 10 11
M  V30 11 2 11 12
M  V30 12 1 12 13
M  V30 13 1 13 14
M  V30 14 1 14 15
M  V30 15 2 15 16
M  V30 16 1 16 17
M  V30 17 1 16 18
M  V30 18 1 18 19
M  V30 19 1 19 20
M  V30 20 1 20 21
M  V30 21 1 7 22
M  V30 22 2 22 23
M  V30 23 1 2 24
M  V30 24 1 24 25
M  V30 25 2 25 26
M  V30 26 1 26 27
M  V30 27 2 27 28
M  V30 28 1 28 29
M  V30 29 1 29 30
M  V30 30 2 29 31
M  V30 31 1 23 4
M  V30 32 1 31 25
M  V30 33 1 17 9
M  V30 34 2 17 13
M  V30 35 1 21 15
M  V30 36 1 3 32
M  V30 37 1 5 33
M  V30 38 1 6 34
M  V30 39 1 11 35
M  V30 40 1 18 36
M  V30 41 1 18 37
M  V30 42 1 19 38
M  V30 43 1 19 39
M  V30 44 1 20 40
M  V30 45 1 20 41
M  V30 46 1 21 42
M  V30 47 1 21 43
M  V30 48 1 22 44
M  V30 49 1 23 45
M  V30 50 1 24 46
M  V30 51 1 26 47
M  V30 52 1 27 48
M  V30 53 1 28 49
M  V30 54 1 31 50
M  V30 END BOND
M  V30 END CTAB
M  END
>  <Dataset>  (694) 
ChEMBL_Kinases

>  <Ligand_Instance>  (694) 
nan

>  <PDB_ID>  (694) 
nan

>  <Standardized_SMILES>  (694) 
O=C(Nc1ccc(Oc2ncnc3sc4c(c23)CCCC4)cc1)Nc1cccc(Br)c1

>  <Name>  (694) 
nan

>  <Pocket>  (694) 
nan

>  <ATP_Site>  (694) 
nan

>  <Peripheral>  (694) 
nan

>  <Num_H_Atoms_ProtBoundConf>  (694) 
nan

>  <Num_Resolved_Atoms>  (694) 
nan

>  <Num_Not_Resolved_Atoms>  (694) 
nan

$$$$
CHEMBL3628807
     RDKit          3D

  0  0  0  0  0  0  0  0  0  0999 V3000
M  V30 BEGIN CTAB
M  V30 COUNTS 43 46 0 0 0
M  V30 BEGIN ATOM
M  V30 1 O 0.419333 -2.065749 2.478533 0
M  V30 2 C -0.640571 -2.451117 3.065656 0
M  V30 3 N -1.894519 -1.900070 2.693335 0
M  V30 4 C -1.890308 -0.924133 1.658567 0
M  V30 5 C -1.749380 0.402887 2.000827 0
M  V30 6 C -1.751726 1.307301 0.960958 0
M  V30 7 C -1.882317 1.014645 -0.402109 0
M  V30 8 O -1.881573 1.924903 -1.388524 0
M  V30 9 C -0.973950 2.496083 -2.161419 0
M  V30 10 N -1.636362 3.363791 -2.989168 0
M  V30 11 C -0.941156 4.100499 -3.905363 0
M  V30 12 N 0.401331 4.008191 -4.033164 0
M  V30 13 C 1.116573 3.185268 -3.262903 0
M  V30 14 C 2.478797 2.984754 -3.276824 0
M  V30 15 C 3.110012 2.101507 -2.426955 0
M  V30 16 C 2.344289 1.374935 -1.509779 0
M  V30 17 C 0.988646 1.570469 -1.491579 0
M  V30 18 C 0.388266 2.457538 -2.350819 0
M  V30 19 C -2.017175 -0.365657 -0.606345 0
M  V30 20 C -2.028183 -1.354969 0.355490 0
M  V30 21 N -0.447640 -3.437037 4.077738 0
M  V30 22 C 0.912765 -3.866164 4.302918 0
M  V30 23 C 1.664022 -3.175880 5.237345 0
M  V30 24 C 2.960870 -3.604390 5.435035 0
M  V30 25 C 3.498935 -4.669680 4.741717 0
M  V30 26 C 2.735750 -5.363168 3.799229 0
M  V30 27 Br 3.536296 -6.812789 2.885934 0
M  V30 28 C 1.420203 -4.946235 3.583177 0
M  V30 29 H -2.732674 -2.257541 3.213494 0
M  V30 30 H -1.642124 0.742680 3.009347 0
M  V30 31 H -1.640145 2.356814 1.233272 0
M  V30 32 H -1.341059 4.819695 -4.616748 0
M  V30 33 H 3.016769 3.583975 -4.017370 0
M  V30 34 H 4.193316 1.982052 -2.481373 0
M  V30 35 H 2.884096 0.699411 -0.869462 0
M  V30 36 H 0.489534 0.979213 -0.766264 0
M  V30 37 H -2.125439 -0.680383 -1.655891 0
M  V30 38 H -2.140706 -2.377532 0.040927 0
M  V30 39 H -1.307395 -3.774774 4.580631 0
M  V30 40 H 1.196216 -2.348338 5.753953 0
M  V30 41 H 3.528783 -3.048029 6.171594 0
M  V30 42 H 4.525010 -4.927203 4.969348 0
M  V30 43 H 0.829555 -5.485153 2.851824 0
M  V30 END ATOM
M  V30 BEGIN BOND
M  V30 1 2 1 2
M  V30 2 1 2 3
M  V30 3 1 3 4
M  V30 4 2 4 5
M  V30 5 1 5 6
M  V30 6 2 6 7
M  V30 7 1 7 8
M  V30 8 1 8 9
M  V30 9 2 9 10
M  V30 10 1 10 11
M  V30 11 2 11 12
M  V30 12 1 12 13
M  V30 13 2 13 14
M  V30 14 1 14 15
M  V30 15 2 15 16
M  V30 16 1 16 17
M  V30 17 2 17 18
M  V30 18 1 7 19
M  V30 19 2 19 20
M  V30 20 1 2 21
M  V30 21 1 21 22
M  V30 22 2 22 23
M  V30 23 1 23 24
M  V30 24 2 24 25
M  V30 25 1 25 26
M  V30 26 1 26 27
M  V30 27 2 26 28
M  V30 28 1 20 4
M  V30 29 1 28 22
M  V30 30 1 18 9
M  V30 31 1 18 13
M  V30 32 1 3 29
M  V30 33 1 5 30
M  V30 34 1 6 31
M  V30 35 1 11 32
M  V30 36 1 14 33
M  V30 37 1 15 34
M  V30 38 1 16 35
M  V30 39 1 17 36
M  V30 40 1 19 37
M  V30 41 1 20 38
M  V30 42 1 21 39
M  V30 43 1 23 40
M  V30 44 1 24 41
M  V30 45 1 25 42
M  V30 46 1 28 43
M  V30 END BOND
M  V30 END CTAB
M  END
>  <Dataset>  (695) 
ChEMBL_Kinases

>  <Ligand_Instance>  (695) 
nan

>  <PDB_ID>  (695) 
nan

>  <Standardized_SMILES>  (695) 
O=C(Nc1ccc(Oc2ncnc3ccccc23)cc1)Nc1cccc(Br)c1

>  <Name>  (695) 
nan

>  <Pocket>  (695) 
nan

>  <ATP_Site>  (695) 
nan

>  <Peripheral>  (695) 
nan

>  <Num_H_Atoms_ProtBoundConf>  (695) 
nan

>  <Num_Resolved_Atoms>  (695) 
nan

>  <Num_Not_Resolved_Atoms>  (695) 
nan

$$$$
CHEMBL3628798
     RDKit          3D

  0  0  0  0  0  0  0  0  0  0999 V3000
M  V30 BEGIN CTAB
M  V30 COUNTS 41 44 0 0 0
M  V30 BEGIN ATOM
M  V30 1 O -0.949656 0.796513 0.728529 0
M  V30 2 C -1.944632 1.477016 0.367664 0
M  V30 3 N -2.866544 0.748211 -0.422501 0
M  V30 4 C -2.377174 -0.602014 -0.585853 0
M  V30 5 C -2.651405 -1.671217 0.240032 0
M  V30 6 C -2.085471 -2.886420 -0.087027 0
M  V30 7 C -1.276128 -3.067080 -1.181477 0
M  V30 8 N -0.711191 -4.345096 -1.485923 0
M  V30 9 C 0.134838 -4.459037 -2.623873 0
M  V30 10 N -0.426521 -4.740669 -3.803479 0
M  V30 11 C 0.185509 -4.885002 -4.960635 0
M  V30 12 N 1.499275 -4.736040 -4.961351 0
M  V30 13 C 2.166876 -4.445838 -3.800711 0
M  V30 14 S 3.895651 -4.177163 -3.404713 0
M  V30 15 C 3.645932 -3.871020 -1.593290 0
M  V30 16 C 2.228182 -4.008326 -1.467846 0
M  V30 17 C 1.498862 -4.296878 -2.584120 0
M  V30 18 C -1.017880 -1.966009 -1.997032 0
M  V30 19 C -1.568732 -0.724694 -1.702317 0
M  V30 20 N -2.152533 2.862010 0.708611 0
M  V30 21 C -1.248043 3.630614 1.500181 0
M  V30 22 C -0.300026 4.251946 0.677727 0
M  V30 23 C 0.697692 5.061898 1.210713 0
M  V30 24 C 0.710074 5.225223 2.591389 0
M  V30 25 C -0.218621 4.618085 3.409917 0
M  V30 26 Br -0.246303 4.808787 5.304717 0
M  V30 27 C -1.207771 3.813579 2.867879 0
M  V30 28 H -3.733402 1.262625 -0.762936 0
M  V30 29 H -3.294203 -1.464293 1.083565 0
M  V30 30 H -2.308737 -3.725323 0.572460 0
M  V30 31 H -0.937379 -5.141533 -0.868200 0
M  V30 32 H -0.262039 -5.110081 -5.905028 0
M  V30 33 H 4.398186 -3.667878 -0.953051 0
M  V30 34 H 1.883602 -3.861079 -0.458457 0
M  V30 35 H -0.369881 -2.149539 -2.857270 0
M  V30 36 H -1.318335 0.080772 -2.387691 0
M  V30 37 H -3.028333 3.325258 0.346556 0
M  V30 38 H -0.229215 4.185182 -0.399550 0
M  V30 39 H 1.449832 5.563933 0.635082 0
M  V30 40 H 1.469885 5.848236 3.051024 0
M  V30 41 H -1.993458 3.279229 3.376925 0
M  V30 END ATOM
M  V30 BEGIN BOND
M  V30 1 2 1 2
M  V30 2 1 2 3
M  V30 3 1 3 4
M  V30 4 2 4 5
M  V30 5 1 5 6
M  V30 6 2 6 7
M  V30 7 1 7 8
M  V30 8 1 8 9
M  V30 9 2 9 10
M  V30 10 1 10 11
M  V30 11 2 11 12
M  V30 12 1 12 13
M  V30 13 1 13 14
M  V30 14 1 14 15
M  V30 15 2 15 16
M  V30 16 1 16 17
M  V30 17 1 7 18
M  V30 18 2 18 19
M  V30 19 1 2 20
M  V30 20 1 20 21
M  V30 21 2 21 22
M  V30 22 1 22 23
M  V30 23 2 23 24
M  V30 24 1 24 25
M  V30 25 1 25 26
M  V30 26 2 25 27
M  V30 27 1 19 4
M  V30 28 1 27 21
M  V30 29 1 17 9
M  V30 30 2 17 13
M  V30 31 1 3 28
M  V30 32 1 5 29
M  V30 33 1 6 30
M  V30 34 1 8 31
M  V30 35 1 11 32
M  V30 36 1 15 33
M  V30 37 1 16 34
M  V30 38 1 18 35
M  V30 39 1 19 36
M  V30 40 1 20 37
M  V30 41 1 22 38
M  V30 42 1 23 39
M  V30 43 1 24 40
M  V30 44 1 27 41
M  V30 END BOND
M  V30 END CTAB
M  END
>  <Dataset>  (696) 
ChEMBL_Kinases

>  <Ligand_Instance>  (696) 
nan

>  <PDB_ID>  (696) 
nan

>  <Standardized_SMILES>  (696) 
O=C(Nc1ccc(Nc2ncnc3sccc23)cc1)Nc1cccc(Br)c1

>  <Name>  (696) 
nan

>  <Pocket>  (696) 
nan

>  <ATP_Site>  (696) 
nan

>  <Peripheral>  (696) 
nan

>  <Num_H_Atoms_ProtBoundConf>  (696) 
nan

>  <Num_Resolved_Atoms>  (696) 
nan

>  <Num_Not_Resolved_Atoms>  (696) 
nan

$$$$
CHEMBL3628383
     RDKit          3D

  0  0  0  0  0  0  0  0  0  0999 V3000
M  V30 BEGIN CTAB
M  V30 COUNTS 43 47 0 0 0
M  V30 BEGIN ATOM
M  V30 1 C -0.553180 -4.817918 3.196609 0
M  V30 2 C -1.181368 -4.055919 2.239082 0
M  V30 3 C -0.554388 -3.780829 1.041503 0
M  V30 4 C 0.726413 -4.266486 0.773273 0
M  V30 5 C 1.319063 -3.921887 -0.534573 0
M  V30 6 N 2.078735 -2.683077 -0.508170 0
M  V30 7 C 1.517478 -1.497219 -0.765970 0
M  V30 8 C 2.529648 -0.559815 -0.649916 0
M  V30 9 C 2.496250 0.899013 -0.822706 0
M  V30 10 C 3.414455 1.657732 -1.517911 0
M  V30 11 N 3.002548 2.939380 -1.422191 0
M  V30 12 C 1.873258 3.033533 -0.704064 0
M  V30 13 N 1.079086 4.052667 -0.326027 0
M  V30 14 C -0.026346 3.859754 0.414920 0
M  V30 15 C -0.377266 2.588154 0.811426 0
M  V30 16 C -1.556389 2.281904 1.615160 0
M  V30 17 C -1.787269 0.960103 1.940687 0
M  V30 18 C -2.897951 0.589114 2.708761 0
M  V30 19 N -3.760507 1.546621 3.139256 0
M  V30 20 C -3.537551 2.856266 2.820476 0
M  V30 21 C -2.454969 3.223292 2.071112 0
M  V30 22 N 0.403876 1.556590 0.443476 0
M  V30 23 C 1.526028 1.746705 -0.307916 0
M  V30 24 C 3.708890 -1.204913 -0.317678 0
M  V30 25 N 3.371455 -2.515659 -0.243152 0
M  V30 26 C 1.371320 -5.041880 1.741966 0
M  V30 27 C 0.706867 -5.295866 2.933058 0
M  V30 28 H -1.018597 -5.060159 4.164676 0
M  V30 29 H -2.165041 -3.664820 2.407440 0
M  V30 30 H -1.081974 -3.180776 0.320312 0
M  V30 31 H 2.031598 -4.724160 -0.856680 0
M  V30 32 H 0.499841 -3.853506 -1.281435 0
M  V30 33 H 0.509803 -1.208648 -1.020081 0
M  V30 34 H 4.278528 1.243981 -2.021848 0
M  V30 35 H 3.499697 3.766366 -1.854061 0
M  V30 36 H -0.648610 4.694278 0.706329 0
M  V30 37 H -1.143290 0.148053 1.632232 0
M  V30 38 H -3.079965 -0.455656 2.965754 0
M  V30 39 H -4.208796 3.647998 3.149281 0
M  V30 40 H -2.290334 4.254866 1.827121 0
M  V30 41 H 4.709911 -0.833779 -0.139850 0
M  V30 42 H 2.360799 -5.392387 1.483419 0
M  V30 43 H 1.283211 -5.910392 3.635691 0
M  V30 END ATOM
M  V30 BEGIN BOND
M  V30 1 2 1 2
M  V30 2 1 2 3
M  V30 3 2 3 4
M  V30 4 1 4 5
M  V30 5 1 5 6
M  V30 6 1 6 7
M  V30 7 2 7 8
M  V30 8 1 8 9
M  V30 9 2 9 10
M  V30 10 1 10 11
M  V30 11 1 11 12
M  V30 12 2 12 13
M  V30 13 1 13 14
M  V30 14 2 14 15
M  V30 15 1 15 16
M  V30 16 2 16 17
M  V30 17 1 17 18
M  V30 18 2 18 19
M  V30 19 1 19 20
M  V30 20 2 20 21
M  V30 21 1 15 22
M  V30 22 2 22 23
M  V30 23 1 8 24
M  V30 24 2 24 25
M  V30 25 1 4 26
M  V30 26 2 26 27
M  V30 27 1 27 1
M  V30 28 1 25 6
M  V30 29 1 23 9
M  V30 30 1 23 12
M  V30 31 1 21 16
M  V30 32 1 1 28
M  V30 33 1 2 29
M  V30 34 1 3 30
M  V30 35 1 5 31
M  V30 36 1 5 32
M  V30 37 1 7 33
M  V30 38 1 10 34
M  V30 39 1 11 35
M  V30 40 1 14 36
M  V30 41 1 17 37
M  V30 42 1 18 38
M  V30 43 1 20 39
M  V30 44 1 21 40
M  V30 45 1 24 41
M  V30 46 1 26 42
M  V30 47 1 27 43
M  V30 END BOND
M  V30 END CTAB
M  END
>  <Dataset>  (697) 
ChEMBL_Kinases

>  <Ligand_Instance>  (697) 
nan

>  <PDB_ID>  (697) 
nan

>  <Standardized_SMILES>  (697) 
c1ccc(Cn2cc(-c3c[nH]c4ncc(-c5ccncc5)nc34)cn2)cc1

>  <Name>  (697) 
nan

>  <Pocket>  (697) 
nan

>  <ATP_Site>  (697) 
nan

>  <Peripheral>  (697) 
nan

>  <Num_H_Atoms_ProtBoundConf>  (697) 
nan

>  <Num_Resolved_Atoms>  (697) 
nan

>  <Num_Not_Resolved_Atoms>  (697) 
nan

$$$$
CHEMBL3628365
     RDKit          3D

  0  0  0  0  0  0  0  0  0  0999 V3000
M  V30 BEGIN CTAB
M  V30 COUNTS 27 30 0 0 0
M  V30 BEGIN ATOM
M  V30 1 C -0.052740 -5.231907 2.414899 0
M  V30 2 C 0.826895 -4.224481 2.075056 0
M  V30 3 C 0.074873 -3.133151 1.627339 0
M  V30 4 N 0.446557 -1.918555 1.185455 0
M  V30 5 C -0.459391 -0.998046 0.795130 0
M  V30 6 C -0.068914 0.323664 0.313606 0
M  V30 7 C -0.942709 1.308974 -0.099727 0
M  V30 8 C -0.460884 2.540175 -0.542794 0
M  V30 9 C 0.894841 2.793887 -0.575480 0
M  V30 10 C 1.631641 3.898698 -0.958860 0
M  V30 11 N 2.927215 3.559395 -0.770118 0
M  V30 12 N 3.030018 2.324074 -0.298219 0
M  V30 13 C 1.787020 1.823174 -0.166807 0
M  V30 14 C 1.280965 0.612542 0.267354 0
M  V30 15 C -1.775598 -1.401932 0.886404 0
M  V30 16 N -2.186849 -2.606531 1.322664 0
M  V30 17 C -1.253887 -3.498229 1.703356 0
M  V30 18 N -1.283067 -4.755720 2.177435 0
M  V30 19 H 0.275596 -6.190314 2.792586 0
M  V30 20 H 1.909559 -4.249258 2.134954 0
M  V30 21 H -1.986432 1.097214 -0.068353 0
M  V30 22 H -1.177777 3.282156 -0.856798 0
M  V30 23 H 1.225906 4.831811 -1.330636 0
M  V30 24 H 3.910354 1.819457 -0.066343 0
M  V30 25 H 2.016313 -0.118861 0.578225 0
M  V30 26 H -2.571945 -0.735692 0.597341 0
M  V30 27 H -2.171900 -5.296906 2.340563 0
M  V30 END ATOM
M  V30 BEGIN BOND
M  V30 1 2 1 2
M  V30 2 1 2 3
M  V30 3 2 3 4
M  V30 4 1 4 5
M  V30 5 1 5 6
M  V30 6 2 6 7
M  V30 7 1 7 8
M  V30 8 2 8 9
M  V30 9 1 9 10
M  V30 10 2 10 11
M  V30 11 1 11 12
M  V30 12 1 12 13
M  V30 13 2 13 14
M  V30 14 2 5 15
M  V30 15 1 15 16
M  V30 16 2 16 17
M  V30 17 1 17 18
M  V30 18 1 18 1
M  V30 19 1 17 3
M  V30 20 1 14 6
M  V30 21 1 13 9
M  V30 22 1 1 19
M  V30 23 1 2 20
M  V30 24 1 7 21
M  V30 25 1 8 22
M  V30 26 1 10 23
M  V30 27 1 12 24
M  V30 28 1 14 25
M  V30 29 1 15 26
M  V30 30 1 18 27
M  V30 END BOND
M  V30 END CTAB
M  END
>  <Dataset>  (698) 
ChEMBL_Kinases

>  <Ligand_Instance>  (698) 
nan

>  <PDB_ID>  (698) 
nan

>  <Standardized_SMILES>  (698) 
c1cc2nc(-c3ccc4cn[nH]c4c3)cnc2[nH]1

>  <Name>  (698) 
nan

>  <Pocket>  (698) 
nan

>  <ATP_Site>  (698) 
nan

>  <Peripheral>  (698) 
nan

>  <Num_H_Atoms_ProtBoundConf>  (698) 
nan

>  <Num_Resolved_Atoms>  (698) 
nan

>  <Num_Not_Resolved_Atoms>  (698) 
nan

$$$$
CHEMBL3628366
     RDKit          3D

  0  0  0  0  0  0  0  0  0  0999 V3000
M  V30 BEGIN CTAB
M  V30 COUNTS 32 35 0 0 0
M  V30 BEGIN ATOM
M  V30 1 C -1.138046 -1.117093 4.635497 0
M  V30 2 C -1.855643 -2.146592 5.194534 0
M  V30 3 N -2.265992 -3.152991 4.410286 0
M  V30 4 C -2.004732 -3.200360 3.090938 0
M  V30 5 C -1.290313 -2.204933 2.456369 0
M  V30 6 C -0.945029 -2.140729 1.047948 0
M  V30 7 C -1.317082 -3.119600 0.161650 0
M  V30 8 N -1.011007 -3.089783 -1.158352 0
M  V30 9 C -0.306227 -2.061125 -1.661086 0
M  V30 10 N 0.155427 -1.724775 -2.882093 0
M  V30 11 C 0.824754 -0.549912 -2.836471 0
M  V30 12 C 0.769303 -0.151815 -1.531120 0
M  V30 13 C 1.373742 1.082256 -1.032536 0
M  V30 14 C 2.099961 1.035086 0.146371 0
M  V30 15 C 2.728422 2.113872 0.742206 0
M  V30 16 C 2.598965 3.330168 0.074214 0
M  V30 17 N 1.895911 3.389935 -1.072434 0
M  V30 18 C 1.294116 2.325317 -1.631006 0
M  V30 19 C 0.066902 -1.078008 -0.768489 0
M  V30 20 N -0.239425 -1.114559 0.534867 0
M  V30 21 C -0.870053 -1.165406 3.282885 0
M  V30 22 H -0.790719 -0.283091 5.252179 0
M  V30 23 H -2.079579 -2.133973 6.251464 0
M  V30 24 H -2.338042 -4.014837 2.461783 0
M  V30 25 H -1.885325 -3.984292 0.473651 0
M  V30 26 H -0.028952 -2.356267 -3.708132 0
M  V30 27 H 1.275123 -0.105065 -3.719205 0
M  V30 28 H 2.185820 0.073047 0.648296 0
M  V30 29 H 3.278098 1.963975 1.677798 0
M  V30 30 H 3.085964 4.182557 0.529695 0
M  V30 31 H 0.728422 2.377198 -2.555061 0
M  V30 32 H -0.296876 -0.322504 2.890726 0
M  V30 END ATOM
M  V30 BEGIN BOND
M  V30 1 2 1 2
M  V30 2 1 2 3
M  V30 3 2 3 4
M  V30 4 1 4 5
M  V30 5 1 5 6
M  V30 6 2 6 7
M  V30 7 1 7 8
M  V30 8 2 8 9
M  V30 9 1 9 10
M  V30 10 1 10 11
M  V30 11 2 11 12
M  V30 12 1 12 13
M  V30 13 2 13 14
M  V30 14 1 14 15
M  V30 15 2 15 16
M  V30 16 1 16 17
M  V30 17 2 17 18
M  V30 18 1 12 19
M  V30 19 2 19 20
M  V30 20 2 5 21
M  V30 21 1 21 1
M  V30 22 1 20 6
M  V30 23 1 19 9
M  V30 24 1 18 13
M  V30 25 1 1 22
M  V30 26 1 2 23
M  V30 27 1 4 24
M  V30 28 1 7 25
M  V30 29 1 10 26
M  V30 30 1 11 27
M  V30 31 1 14 28
M  V30 32 1 15 29
M  V30 33 1 16 30
M  V30 34 1 18 31
M  V30 35 1 21 32
M  V30 END BOND
M  V30 END CTAB
M  END
>  <Dataset>  (699) 
ChEMBL_Kinases

>  <Ligand_Instance>  (699) 
nan

>  <PDB_ID>  (699) 
nan

>  <Standardized_SMILES>  (699) 
c1cncc(-c2cnc3[nH]cc(-c4cccnc4)c3n2)c1

>  <Name>  (699) 
nan

>  <Pocket>  (699) 
nan

>  <ATP_Site>  (699) 
nan

>  <Peripheral>  (699) 
nan

>  <Num_H_Atoms_ProtBoundConf>  (699) 
nan

>  <Num_Resolved_Atoms>  (699) 
nan

>  <Num_Not_Resolved_Atoms>  (699) 
nan

$$$$
CHEMBL3628367
     RDKit          3D

  0  0  0  0  0  0  0  0  0  0999 V3000
M  V30 BEGIN CTAB
M  V30 COUNTS 31 34 0 0 0
M  V30 BEGIN ATOM
M  V30 1 C -2.200721 -1.782836 3.919650 0
M  V30 2 C -1.450579 -1.611640 2.754334 0
M  V30 3 C -1.340555 -2.588842 1.786918 0
M  V30 4 C -0.531970 -2.310518 0.605343 0
M  V30 5 C -0.358459 -3.218873 -0.417570 0
M  V30 6 N 0.416662 -2.872144 -1.486810 0
M  V30 7 C 1.000355 -1.659009 -1.535393 0
M  V30 8 N 1.790733 -1.132901 -2.488559 0
M  V30 9 C 2.146503 0.104442 -2.122474 0
M  V30 10 C 1.560805 0.367974 -0.896883 0
M  V30 11 C 1.635271 1.570924 -0.070090 0
M  V30 12 C 1.848132 1.561940 1.294188 0
M  V30 13 N 1.908955 2.703829 2.015648 0
M  V30 14 C 1.754589 3.885039 1.366649 0
M  V30 15 N 1.546070 3.922896 0.038604 0
M  V30 16 C 1.484375 2.799821 -0.682987 0
M  V30 17 C 0.831889 -0.743067 -0.515201 0
M  V30 18 N 0.057716 -1.102499 0.542303 0
M  V30 19 C -2.016224 -3.767766 2.022235 0
M  V30 20 C -2.752603 -3.915844 3.182046 0
M  V30 21 N -2.858806 -2.960001 4.125860 0
M  V30 22 H -2.289312 -1.016019 4.682703 0
M  V30 23 H -0.960199 -0.635623 2.679207 0
M  V30 24 H -0.825778 -4.182933 -0.372958 0
M  V30 25 H 2.088035 -1.607654 -3.381657 0
M  V30 26 H 2.783475 0.821542 -2.657705 0
M  V30 27 H 1.958226 0.566432 1.712680 0
M  V30 28 H 1.813012 4.777802 2.000498 0
M  V30 29 H 1.312879 2.930508 -1.746418 0
M  V30 30 H -1.948472 -4.546922 1.285532 0
M  V30 31 H -3.249367 -4.882369 3.275769 0
M  V30 END ATOM
M  V30 BEGIN BOND
M  V30 1 2 1 2
M  V30 2 1 2 3
M  V30 3 1 3 4
M  V30 4 2 4 5
M  V30 5 1 5 6
M  V30 6 2 6 7
M  V30 7 1 7 8
M  V30 8 1 8 9
M  V30 9 2 9 10
M  V30 10 1 10 11
M  V30 11 2 11 12
M  V30 12 1 12 13
M  V30 13 2 13 14
M  V30 14 1 14 15
M  V30 15 2 15 16
M  V30 16 1 10 17
M  V30 17 2 17 18
M  V30 18 2 3 19
M  V30 19 1 19 20
M  V30 20 2 20 21
M  V30 21 1 21 1
M  V30 22 1 18 4
M  V30 23 1 17 7
M  V30 24 1 16 11
M  V30 25 1 1 22
M  V30 26 1 2 23
M  V30 27 1 5 24
M  V30 28 1 8 25
M  V30 29 1 9 26
M  V30 30 1 12 27
M  V30 31 1 14 28
M  V30 32 1 16 29
M  V30 33 1 19 30
M  V30 34 1 20 31
M  V30 END BOND
M  V30 END CTAB
M  END
>  <Dataset>  (700) 
ChEMBL_Kinases

>  <Ligand_Instance>  (700) 
nan

>  <PDB_ID>  (700) 
nan

>  <Standardized_SMILES>  (700) 
c1cc(-c2cnc3[nH]cc(-c4cncnc4)c3n2)ccn1

>  <Name>  (700) 
nan

>  <Pocket>  (700) 
nan

>  <ATP_Site>  (700) 
nan

>  <Peripheral>  (700) 
nan

>  <Num_H_Atoms_ProtBoundConf>  (700) 
nan

>  <Num_Resolved_Atoms>  (700) 
nan

>  <Num_Not_Resolved_Atoms>  (700) 
nan

$$$$
CHEMBL3628368
     RDKit          3D

  0  0  0  0  0  0  0  0  0  0999 V3000
M  V30 BEGIN CTAB
M  V30 COUNTS 30 33 0 0 0
M  V30 BEGIN ATOM
M  V30 1 C 1.505958 -2.173629 4.024666 0
M  V30 2 C 1.922018 -3.470963 4.113488 0
M  V30 3 N 1.420507 -4.352568 3.202963 0
M  V30 4 C 0.553105 -3.919764 2.271332 0
M  V30 5 C 0.112500 -2.605958 2.157538 0
M  V30 6 C -0.831722 -2.250087 1.105544 0
M  V30 7 C -1.982156 -2.958528 0.737859 0
M  V30 8 N -2.579589 -2.303102 -0.272117 0
M  V30 9 C -1.905392 -1.193674 -0.612302 0
M  V30 10 N -2.072048 -0.219259 -1.527598 0
M  V30 11 C -1.174123 0.796686 -1.611181 0
M  V30 12 C -0.075552 0.835574 -0.749738 0
M  V30 13 C 0.876428 1.933926 -0.855243 0
M  V30 14 C 0.905868 3.022201 -1.702386 0
M  V30 15 N 2.000203 3.750986 -1.396297 0
M  V30 16 N 2.677252 3.189979 -0.396990 0
M  V30 17 C 1.995494 2.079230 -0.062028 0
M  V30 18 N 0.070424 -0.151029 0.158506 0
M  V30 19 C -0.826020 -1.169470 0.245287 0
M  V30 20 C 0.618212 -1.703922 3.079978 0
M  V30 21 H 1.852254 -1.407212 4.705197 0
M  V30 22 H 2.621150 -3.672628 4.912743 0
M  V30 23 H 0.193773 -4.668162 1.580582 0
M  V30 24 H -2.251133 -3.873075 1.251294 0
M  V30 25 H -3.476227 -2.641875 -0.729455 0
M  V30 26 H -1.287354 1.589065 -2.337367 0
M  V30 27 H 0.141513 3.180102 -2.450012 0
M  V30 28 H 3.570727 3.570286 0.024778 0
M  V30 29 H 2.354113 1.456893 0.727569 0
M  V30 30 H 0.272692 -0.687162 2.986296 0
M  V30 END ATOM
M  V30 BEGIN BOND
M  V30 1 2 1 2
M  V30 2 1 2 3
M  V30 3 2 3 4
M  V30 4 1 4 5
M  V30 5 1 5 6
M  V30 6 2 6 7
M  V30 7 1 7 8
M  V30 8 1 8 9
M  V30 9 2 9 10
M  V30 10 1 10 11
M  V30 11 2 11 12
M  V30 12 1 12 13
M  V30 13 1 13 14
M  V30 14 2 14 15
M  V30 15 1 15 16
M  V30 16 1 16 17
M  V30 17 1 12 18
M  V30 18 2 18 19
M  V30 19 2 5 20
M  V30 20 1 20 1
M  V30 21 1 19 6
M  V30 22 1 19 9
M  V30 23 2 17 13
M  V30 24 1 1 21
M  V30 25 1 2 22
M  V30 26 1 4 23
M  V30 27 1 7 24
M  V30 28 1 8 25
M  V30 29 1 11 26
M  V30 30 1 14 27
M  V30 31 1 16 28
M  V30 32 1 17 29
M  V30 33 1 20 30
M  V30 END BOND
M  V30 END CTAB
M  END
>  <Dataset>  (701) 
ChEMBL_Kinases

>  <Ligand_Instance>  (701) 
nan

>  <PDB_ID>  (701) 
nan

>  <Standardized_SMILES>  (701) 
c1cncc(-c2c[nH]c3ncc(-c4cn[nH]c4)nc23)c1

>  <Name>  (701) 
nan

>  <Pocket>  (701) 
nan

>  <ATP_Site>  (701) 
nan

>  <Peripheral>  (701) 
nan

>  <Num_H_Atoms_ProtBoundConf>  (701) 
nan

>  <Num_Resolved_Atoms>  (701) 
nan

>  <Num_Not_Resolved_Atoms>  (701) 
nan

$$$$
CHEMBL3628369
     RDKit          3D

  0  0  0  0  0  0  0  0  0  0999 V3000
M  V30 BEGIN CTAB
M  V30 COUNTS 29 32 0 0 0
M  V30 BEGIN ATOM
M  V30 1 C 0.182084 -2.545101 5.159858 0
M  V30 2 N 1.046966 -3.348464 4.514904 0
M  V30 3 C 1.121127 -3.390347 3.173194 0
M  V30 4 C 0.280468 -2.580161 2.403166 0
M  V30 5 C 0.321127 -2.587861 0.944367 0
M  V30 6 C 0.375944 -3.701797 0.116905 0
M  V30 7 N 0.402008 -3.347052 -1.187210 0
M  V30 8 C 0.364594 -1.986906 -1.240113 0
M  V30 9 N 0.368392 -1.106979 -2.282630 0
M  V30 10 C 0.323440 0.237007 -2.047143 0
M  V30 11 C 0.274238 0.694291 -0.745859 0
M  V30 12 C 0.225877 2.142051 -0.495709 0
M  V30 13 C 0.224438 3.141323 -1.471478 0
M  V30 14 N 0.171623 4.291368 -0.755306 0
M  V30 15 N 0.142533 4.058417 0.530118 0
M  V30 16 C 0.174278 2.735778 0.748871 0
M  V30 17 N 0.271431 -0.195560 0.271213 0
M  V30 18 C 0.315260 -1.525557 0.061793 0
M  V30 19 C -0.609450 -1.753870 3.082338 0
M  V30 20 N -0.656301 -1.738259 4.446704 0
M  V30 21 H 0.205228 -2.589734 6.244574 0
M  V30 22 H 1.782744 -4.002806 2.579742 0
M  V30 23 H 0.394330 -4.717066 0.500071 0
M  V30 24 H 0.443581 -4.009650 -2.002179 0
M  V30 25 H 0.329082 0.876333 -2.908734 0
M  V30 26 H 0.259945 2.927335 -2.527952 0
M  V30 27 H 0.100155 4.816281 1.274363 0
M  V30 28 H 0.160288 2.270588 1.729951 0
M  V30 29 H -1.272534 -1.116002 2.530874 0
M  V30 END ATOM
M  V30 BEGIN BOND
M  V30 1 2 1 2
M  V30 2 1 2 3
M  V30 3 2 3 4
M  V30 4 1 4 5
M  V30 5 2 5 6
M  V30 6 1 6 7
M  V30 7 1 7 8
M  V30 8 2 8 9
M  V30 9 1 9 10
M  V30 10 2 10 11
M  V30 11 1 11 12
M  V30 12 1 12 13
M  V30 13 2 13 14
M  V30 14 1 14 15
M  V30 15 1 15 16
M  V30 16 1 11 17
M  V30 17 2 17 18
M  V30 18 1 4 19
M  V30 19 2 19 20
M  V30 20 1 20 1
M  V30 21 1 18 5
M  V30 22 1 18 8
M  V30 23 2 16 12
M  V30 24 1 1 21
M  V30 25 1 3 22
M  V30 26 1 6 23
M  V30 27 1 7 24
M  V30 28 1 10 25
M  V30 29 1 13 26
M  V30 30 1 15 27
M  V30 31 1 16 28
M  V30 32 1 19 29
M  V30 END BOND
M  V30 END CTAB
M  END
>  <Dataset>  (702) 
ChEMBL_Kinases

>  <Ligand_Instance>  (702) 
nan

>  <PDB_ID>  (702) 
nan

>  <Standardized_SMILES>  (702) 
c1ncc(-c2c[nH]c3ncc(-c4cn[nH]c4)nc23)cn1

>  <Name>  (702) 
nan

>  <Pocket>  (702) 
nan

>  <ATP_Site>  (702) 
nan

>  <Peripheral>  (702) 
nan

>  <Num_H_Atoms_ProtBoundConf>  (702) 
nan

>  <Num_Resolved_Atoms>  (702) 
nan

>  <Num_Not_Resolved_Atoms>  (702) 
nan

$$$$
CHEMBL3628370
     RDKit          3D

  0  0  0  0  0  0  0  0  0  0999 V3000
M  V30 BEGIN CTAB
M  V30 COUNTS 36 39 0 0 0
M  V30 BEGIN ATOM
M  V30 1 C 2.249122 -6.235272 2.421666 0
M  V30 2 O 1.374567 -5.199220 2.843348 0
M  V30 3 C 0.913407 -4.271381 1.918199 0
M  V30 4 C 0.050979 -3.242655 2.312924 0
M  V30 5 C -0.395100 -2.332075 1.378676 0
M  V30 6 C 0.009105 -2.437573 0.060784 0
M  V30 7 C -0.390617 -1.537230 -1.030360 0
M  V30 8 C -0.790427 -1.991875 -2.285056 0
M  V30 9 N -1.074675 -0.890362 -3.005296 0
M  V30 10 C -0.872025 0.215738 -2.263751 0
M  V30 11 N -1.007077 1.550731 -2.508114 0
M  V30 12 C -0.712052 2.419953 -1.517922 0
M  V30 13 C -0.279102 2.053802 -0.262732 0
M  V30 14 C 0.021864 3.045811 0.760029 0
M  V30 15 C -0.073530 4.416104 0.638985 0
M  V30 16 C 0.235746 5.266354 1.669524 0
M  V30 17 N 0.648463 4.782715 2.849652 0
M  V30 18 C 0.762774 3.463245 3.033592 0
M  V30 19 C 0.453993 2.585286 2.001192 0
M  V30 20 N -0.147248 0.722699 -0.027511 0
M  V30 21 C -0.438358 -0.151761 -1.006582 0
M  V30 22 C 0.864343 -3.465575 -0.307027 0
M  V30 23 N 1.285087 -4.341375 0.625103 0
M  V30 24 H 1.690154 -7.195609 2.547784 0
M  V30 25 H 3.205191 -6.230853 3.002707 0
M  V30 26 H 2.434423 -6.143314 1.321083 0
M  V30 27 H -0.265963 -3.153909 3.328154 0
M  V30 28 H -1.056615 -1.516594 1.602008 0
M  V30 29 H -0.852552 -3.021384 -2.595648 0
M  V30 30 H -1.406677 -0.898335 -4.002629 0
M  V30 31 H -0.846692 3.452157 -1.797533 0
M  V30 32 H -0.407043 4.781928 -0.317667 0
M  V30 33 H 0.131859 6.329456 1.485961 0
M  V30 34 H 1.101099 3.121357 4.007580 0
M  V30 35 H 0.574307 1.532760 2.235309 0
M  V30 36 H 1.222935 -3.610612 -1.321452 0
M  V30 END ATOM
M  V30 BEGIN BOND
M  V30 1 1 1 2
M  V30 2 1 2 3
M  V30 3 2 3 4
M  V30 4 1 4 5
M  V30 5 2 5 6
M  V30 6 1 6 7
M  V30 7 2 7 8
M  V30 8 1 8 9
M  V30 9 1 9 10
M  V30 10 2 10 11
M  V30 11 1 11 12
M  V30 12 2 12 13
M  V30 13 1 13 14
M  V30 14 2 14 15
M  V30 15 1 15 16
M  V30 16 2 16 17
M  V30 17 1 17 18
M  V30 18 2 18 19
M  V30 19 1 13 20
M  V30 20 2 20 21
M  V30 21 1 6 22
M  V30 22 2 22 23
M  V30 23 1 23 3
M  V30 24 1 21 7
M  V30 25 1 21 10
M  V30 26 1 19 14
M  V30 27 1 1 24
M  V30 28 1 1 25
M  V30 29 1 1 26
M  V30 30 1 4 27
M  V30 31 1 5 28
M  V30 32 1 8 29
M  V30 33 1 9 30
M  V30 34 1 12 31
M  V30 35 1 15 32
M  V30 36 1 16 33
M  V30 37 1 18 34
M  V30 38 1 19 35
M  V30 39 1 22 36
M  V30 END BOND
M  V30 END CTAB
M  END
>  <Dataset>  (703) 
ChEMBL_Kinases

>  <Ligand_Instance>  (703) 
nan

>  <PDB_ID>  (703) 
nan

>  <Standardized_SMILES>  (703) 
COc1ccc(-c2c[nH]c3ncc(-c4ccncc4)nc23)cn1

>  <Name>  (703) 
nan

>  <Pocket>  (703) 
nan

>  <ATP_Site>  (703) 
nan

>  <Peripheral>  (703) 
nan

>  <Num_H_Atoms_ProtBoundConf>  (703) 
nan

>  <Num_Resolved_Atoms>  (703) 
nan

>  <Num_Not_Resolved_Atoms>  (703) 
nan

$$$$
CHEMBL3628371
     RDKit          3D

  0  0  0  0  0  0  0  0  0  0999 V3000
M  V30 BEGIN CTAB
M  V30 COUNTS 34 37 0 0 0
M  V30 BEGIN ATOM
M  V30 1 N 0.814088 -4.659968 4.245670 0
M  V30 2 C 1.147669 -3.570204 3.380562 0
M  V30 3 C 2.237410 -3.650297 2.535803 0
M  V30 4 C 2.587156 -2.618712 1.689165 0
M  V30 5 C 1.814536 -1.473287 1.695512 0
M  V30 6 C 2.115543 -0.338278 0.832281 0
M  V30 7 C 3.348250 0.238126 0.596959 0
M  V30 8 N 3.196976 1.269307 -0.267203 0
M  V30 9 C 1.897984 1.379581 -0.600856 0
M  V30 10 N 1.213965 2.212633 -1.404684 0
M  V30 11 C -0.115513 2.049015 -1.522137 0
M  V30 12 C -0.848006 1.077766 -0.872746 0
M  V30 13 C -2.293371 0.926506 -1.022079 0
M  V30 14 C -3.090335 1.723375 -1.817802 0
M  V30 15 C -4.453158 1.537184 -1.923342 0
M  V30 16 N -5.061008 0.551507 -1.238939 0
M  V30 17 C -4.286206 -0.228818 -0.460791 0
M  V30 18 C -2.904665 -0.089135 -0.314039 0
M  V30 19 N -0.120311 0.268945 -0.080346 0
M  V30 20 C 1.207971 0.392239 0.069566 0
M  V30 21 C 0.720968 -1.403739 2.549134 0
M  V30 22 N 0.402550 -2.428770 3.366665 0
M  V30 23 H 0.655698 -5.614100 3.892182 0
M  V30 24 H 0.670343 -4.750906 5.281172 0
M  V30 25 H 2.847247 -4.562792 2.535363 0
M  V30 26 H 3.458311 -2.705020 1.025971 0
M  V30 27 H 4.259360 -0.135582 1.071172 0
M  V30 28 H 3.996263 1.876793 -0.609224 0
M  V30 29 H -0.610989 2.747280 -2.181233 0
M  V30 30 H -2.621163 2.521340 -2.376180 0
M  V30 31 H -5.014029 2.218479 -2.580991 0
M  V30 32 H -4.866256 -1.006648 0.060401 0
M  V30 33 H -2.419140 -0.786000 0.342039 0
M  V30 34 H 0.110255 -0.511303 2.561220 0
M  V30 END ATOM
M  V30 BEGIN BOND
M  V30 1 1 1 2
M  V30 2 2 2 3
M  V30 3 1 3 4
M  V30 4 2 4 5
M  V30 5 1 5 6
M  V30 6 2 6 7
M  V30 7 1 7 8
M  V30 8 1 8 9
M  V30 9 2 9 10
M  V30 10 1 10 11
M  V30 11 2 11 12
M  V30 12 1 12 13
M  V30 13 2 13 14
M  V30 14 1 14 15
M  V30 15 2 15 16
M  V30 16 1 16 17
M  V30 17 2 17 18
M  V30 18 1 12 19
M  V30 19 2 19 20
M  V30 20 1 5 21
M  V30 21 2 21 22
M  V30 22 1 22 2
M  V30 23 1 20 6
M  V30 24 1 20 9
M  V30 25 1 18 13
M  V30 26 1 1 23
M  V30 27 1 1 24
M  V30 28 1 3 25
M  V30 29 1 4 26
M  V30 30 1 7 27
M  V30 31 1 8 28
M  V30 32 1 11 29
M  V30 33 1 14 30
M  V30 34 1 15 31
M  V30 35 1 17 32
M  V30 36 1 18 33
M  V30 37 1 21 34
M  V30 END BOND
M  V30 END CTAB
M  END
>  <Dataset>  (704) 
ChEMBL_Kinases

>  <Ligand_Instance>  (704) 
nan

>  <PDB_ID>  (704) 
nan

>  <Standardized_SMILES>  (704) 
Nc1ccc(-c2c[nH]c3ncc(-c4ccncc4)nc23)cn1

>  <Name>  (704) 
nan

>  <Pocket>  (704) 
nan

>  <ATP_Site>  (704) 
nan

>  <Peripheral>  (704) 
nan

>  <Num_H_Atoms_ProtBoundConf>  (704) 
nan

>  <Num_Resolved_Atoms>  (704) 
nan

>  <Num_Not_Resolved_Atoms>  (704) 
nan

$$$$
CHEMBL3628372
     RDKit          3D

  0  0  0  0  0  0  0  0  0  0999 V3000
M  V30 BEGIN CTAB
M  V30 COUNTS 35 38 0 0 0
M  V30 BEGIN ATOM
M  V30 1 C -0.506980 -3.020817 5.415110 0
M  V30 2 C 0.076258 -2.713827 4.089218 0
M  V30 3 C 0.481933 -3.716723 3.201115 0
M  V30 4 C 1.021970 -3.337191 1.970751 0
M  V30 5 C 1.120909 -1.984299 1.709325 0
M  V30 6 C 1.683935 -1.565555 0.426009 0
M  V30 7 C 2.825496 -2.142538 -0.088381 0
M  V30 8 N 3.146597 -1.595122 -1.272009 0
M  V30 9 C 2.229929 -0.655197 -1.556660 0
M  V30 10 N 2.003114 0.213644 -2.558512 0
M  V30 11 C 0.936176 1.046078 -2.506905 0
M  V30 12 C 0.053335 1.058391 -1.473911 0
M  V30 13 C -1.102497 1.944458 -1.394975 0
M  V30 14 C -1.925470 1.859744 -0.291202 0
M  V30 15 C -3.057359 2.660399 -0.115731 0
M  V30 16 N -3.355338 3.567456 -1.088804 0
M  V30 17 C -2.549278 3.645397 -2.162527 0
M  V30 18 C -1.430417 2.871449 -2.361584 0
M  V30 19 N 0.236327 0.209117 -0.448532 0
M  V30 20 C 1.313282 -0.623101 -0.512376 0
M  V30 21 C 0.702698 -1.027047 2.627021 0
M  V30 22 N 0.181047 -1.385356 3.815263 0
M  V30 23 H -1.592230 -2.920986 5.463589 0
M  V30 24 H -0.072798 -2.369738 6.224303 0
M  V30 25 H -0.258851 -4.070663 5.673221 0
M  V30 26 H 0.369319 -4.759412 3.484719 0
M  V30 27 H 1.323431 -4.121016 1.311864 0
M  V30 28 H 3.467671 -2.927720 0.296522 0
M  V30 29 H 3.940509 -1.796874 -1.921821 0
M  V30 30 H 0.801430 1.723561 -3.338242 0
M  V30 31 H -1.742103 1.154249 0.523247 0
M  V30 32 H -3.685626 2.571538 0.762311 0
M  V30 33 H -2.748886 4.362346 -2.974422 0
M  V30 34 H -0.815152 2.961997 -3.226614 0
M  V30 35 H 0.821783 0.011903 2.328908 0
M  V30 END ATOM
M  V30 BEGIN BOND
M  V30 1 1 1 2
M  V30 2 2 2 3
M  V30 3 1 3 4
M  V30 4 2 4 5
M  V30 5 1 5 6
M  V30 6 2 6 7
M  V30 7 1 7 8
M  V30 8 1 8 9
M  V30 9 2 9 10
M  V30 10 1 10 11
M  V30 11 2 11 12
M  V30 12 1 12 13
M  V30 13 2 13 14
M  V30 14 1 14 15
M  V30 15 2 15 16
M  V30 16 1 16 17
M  V30 17 2 17 18
M  V30 18 1 12 19
M  V30 19 2 19 20
M  V30 20 1 5 21
M  V30 21 2 21 22
M  V30 22 1 22 2
M  V30 23 1 20 6
M  V30 24 1 20 9
M  V30 25 1 18 13
M  V30 26 1 1 23
M  V30 27 1 1 24
M  V30 28 1 1 25
M  V30 29 1 3 26
M  V30 30 1 4 27
M  V30 31 1 7 28
M  V30 32 1 8 29
M  V30 33 1 11 30
M  V30 34 1 14 31
M  V30 35 1 15 32
M  V30 36 1 17 33
M  V30 37 1 18 34
M  V30 38 1 21 35
M  V30 END BOND
M  V30 END CTAB
M  END
>  <Dataset>  (705) 
ChEMBL_Kinases

>  <Ligand_Instance>  (705) 
nan

>  <PDB_ID>  (705) 
nan

>  <Standardized_SMILES>  (705) 
Cc1ccc(-c2c[nH]c3ncc(-c4ccncc4)nc23)cn1

>  <Name>  (705) 
nan

>  <Pocket>  (705) 
nan

>  <ATP_Site>  (705) 
nan

>  <Peripheral>  (705) 
nan

>  <Num_H_Atoms_ProtBoundConf>  (705) 
nan

>  <Num_Resolved_Atoms>  (705) 
nan

>  <Num_Not_Resolved_Atoms>  (705) 
nan

$$$$
CHEMBL3628382
     RDKit          3D

  0  0  0  0  0  0  0  0  0  0999 V3000
M  V30 BEGIN CTAB
M  V30 COUNTS 46 50 0 0 0
M  V30 BEGIN ATOM
M  V30 1 C -0.184914 -6.281756 3.261847 0
M  V30 2 C -0.025855 -4.970237 3.679820 0
M  V30 3 C 0.066996 -3.987830 2.688254 0
M  V30 4 C 0.000542 -4.328547 1.332628 0
M  V30 5 C 0.110475 -3.205465 0.387019 0
M  V30 6 C 1.541033 -2.911384 -0.022583 0
M  V30 7 N 1.608742 -1.787144 -0.964272 0
M  V30 8 C 1.742730 -0.493861 -0.596103 0
M  V30 9 C 1.766211 0.249125 -1.768624 0
M  V30 10 C 1.904553 1.720328 -1.714015 0
M  V30 11 C 2.666084 2.653401 -2.402173 0
M  V30 12 N 2.385465 3.868404 -1.933499 0
M  V30 13 C 1.464072 3.817183 -0.952175 0
M  V30 14 N 0.831349 4.701234 -0.151463 0
M  V30 15 C -0.064063 4.341091 0.759362 0
M  V30 16 C -0.382473 3.025593 0.919410 0
M  V30 17 C -1.350090 2.521444 1.887828 0
M  V30 18 C -1.567022 1.159550 1.932619 0
M  V30 19 C -2.456388 0.579581 2.806645 0
M  V30 20 N -3.123303 1.378396 3.632289 0
M  V30 21 C -2.937811 2.703325 3.616126 0
M  V30 22 C -2.051720 3.304440 2.748531 0
M  V30 23 N 0.247310 2.149987 0.123017 0
M  V30 24 C 1.159585 2.485702 -0.809268 0
M  V30 25 C 1.644210 -0.625225 -2.830324 0
M  V30 26 N 1.549659 -1.869167 -2.296365 0
M  V30 27 C -0.158164 -5.641687 0.941469 0
M  V30 28 C -0.248700 -6.603113 1.928323 0
M  V30 29 H -0.255546 -7.029417 4.017880 0
M  V30 30 H 0.028541 -4.678493 4.716180 0
M  V30 31 H 0.193001 -2.952019 3.037301 0
M  V30 32 H -0.451083 -3.463878 -0.520786 0
M  V30 33 H -0.335312 -2.268275 0.776975 0
M  V30 34 H 2.025266 -3.798219 -0.466042 0
M  V30 35 H 2.111401 -2.648879 0.890498 0
M  V30 36 H 1.815394 -0.138239 0.431860 0
M  V30 37 H 3.337642 2.301731 -3.171087 0
M  V30 38 H 2.827234 4.749839 -2.285769 0
M  V30 39 H -0.556598 5.084623 1.390307 0
M  V30 40 H -1.033579 0.468716 1.265051 0
M  V30 41 H -2.601328 -0.495595 2.813770 0
M  V30 42 H -3.502988 3.320083 4.307511 0
M  V30 43 H -1.907714 4.367355 2.740719 0
M  V30 44 H 1.635887 -0.286714 -3.856594 0
M  V30 45 H -0.207412 -5.888392 -0.096220 0
M  V30 46 H -0.373018 -7.644058 1.692022 0
M  V30 END ATOM
M  V30 BEGIN BOND
M  V30 1 2 1 2
M  V30 2 1 2 3
M  V30 3 2 3 4
M  V30 4 1 4 5
M  V30 5 1 5 6
M  V30 6 1 6 7
M  V30 7 1 7 8
M  V30 8 2 8 9
M  V30 9 1 9 10
M  V30 10 2 10 11
M  V30 11 1 11 12
M  V30 12 1 12 13
M  V30 13 2 13 14
M  V30 14 1 14 15
M  V30 15 2 15 16
M  V30 16 1 16 17
M  V30 17 2 17 18
M  V30 18 1 18 19
M  V30 19 2 19 20
M  V30 20 1 20 21
M  V30 21 2 21 22
M  V30 22 1 16 23
M  V30 23 2 23 24
M  V30 24 1 9 25
M  V30 25 2 25 26
M  V30 26 1 4 27
M  V30 27 2 27 28
M  V30 28 1 28 1
M  V30 29 1 26 7
M  V30 30 1 24 10
M  V30 31 1 24 13
M  V30 32 1 22 17
M  V30 33 1 1 29
M  V30 34 1 2 30
M  V30 35 1 3 31
M  V30 36 1 5 32
M  V30 37 1 5 33
M  V30 38 1 6 34
M  V30 39 1 6 35
M  V30 40 1 8 36
M  V30 41 1 11 37
M  V30 42 1 12 38
M  V30 43 1 15 39
M  V30 44 1 18 40
M  V30 45 1 19 41
M  V30 46 1 21 42
M  V30 47 1 22 43
M  V30 48 1 25 44
M  V30 49 1 27 45
M  V30 50 1 28 46
M  V30 END BOND
M  V30 END CTAB
M  END
>  <Dataset>  (706) 
ChEMBL_Kinases

>  <Ligand_Instance>  (706) 
nan

>  <PDB_ID>  (706) 
nan

>  <Standardized_SMILES>  (706) 
c1ccc(CCn2cc(-c3c[nH]c4ncc(-c5ccncc5)nc34)cn2)cc1

>  <Name>  (706) 
nan

>  <Pocket>  (706) 
nan

>  <ATP_Site>  (706) 
nan

>  <Peripheral>  (706) 
nan

>  <Num_H_Atoms_ProtBoundConf>  (706) 
nan

>  <Num_Resolved_Atoms>  (706) 
nan

>  <Num_Not_Resolved_Atoms>  (706) 
nan

$$$$
CHEMBL3628374
     RDKit          3D

  0  0  0  0  0  0  0  0  0  0999 V3000
M  V30 BEGIN CTAB
M  V30 COUNTS 30 33 0 0 0
M  V30 BEGIN ATOM
M  V30 1 C -2.003189 -1.541802 4.093653 0
M  V30 2 C -1.171620 -1.405707 2.975470 0
M  V30 3 C -0.325246 -2.418663 2.573566 0
M  V30 4 C 0.507915 -2.193410 1.396400 0
M  V30 5 C 1.389320 -3.132544 0.903889 0
M  V30 6 N 2.120714 -2.830659 -0.196051 0
M  V30 7 C 1.999203 -1.640159 -0.806518 0
M  V30 8 N 2.580471 -1.062028 -1.896915 0
M  V30 9 C 2.081847 0.178029 -2.071444 0
M  V30 10 C 1.151209 0.453473 -1.093562 0
M  V30 11 C 0.361942 1.664574 -0.889184 0
M  V30 12 C 0.463270 2.774669 -1.724521 0
M  V30 13 C -0.426495 3.715562 -1.222786 0
M  V30 14 N -1.009763 3.176049 -0.154647 0
M  V30 15 N -0.553637 1.953623 0.061291 0
M  V30 16 C 1.125133 -0.698849 -0.324496 0
M  V30 17 N 0.387429 -1.001692 0.783882 0
M  V30 18 C -0.330925 -3.577371 3.321421 0
M  V30 19 C -1.173577 -3.679560 4.431671 0
M  V30 20 N -1.992618 -2.681162 4.808988 0
M  V30 21 H -2.669768 -0.740305 4.407801 0
M  V30 22 H -1.245443 -0.458395 2.461354 0
M  V30 23 H 1.487902 -4.088319 1.392725 0
M  V30 24 H 3.292547 -1.595862 -2.438589 0
M  V30 25 H 2.379789 0.857705 -2.875440 0
M  V30 26 H 1.085759 2.946702 -2.606361 0
M  V30 27 H -0.658263 4.721252 -1.578360 0
M  V30 28 H -0.820436 1.279829 0.822862 0
M  V30 29 H 0.314200 -4.374858 3.031303 0
M  V30 30 H -1.144797 -4.617264 4.995503 0
M  V30 END ATOM
M  V30 BEGIN BOND
M  V30 1 2 1 2
M  V30 2 1 2 3
M  V30 3 1 3 4
M  V30 4 2 4 5
M  V30 5 1 5 6
M  V30 6 2 6 7
M  V30 7 1 7 8
M  V30 8 1 8 9
M  V30 9 2 9 10
M  V30 10 1 10 11
M  V30 11 2 11 12
M  V30 12 1 12 13
M  V30 13 2 13 14
M  V30 14 1 14 15
M  V30 15 1 10 16
M  V30 16 2 16 17
M  V30 17 2 3 18
M  V30 18 1 18 19
M  V30 19 2 19 20
M  V30 20 1 20 1
M  V30 21 1 17 4
M  V30 22 1 16 7
M  V30 23 1 15 11
M  V30 24 1 1 21
M  V30 25 1 2 22
M  V30 26 1 5 23
M  V30 27 1 8 24
M  V30 28 1 9 25
M  V30 29 1 12 26
M  V30 30 1 13 27
M  V30 31 1 15 28
M  V30 32 1 18 29
M  V30 33 1 19 30
M  V30 END BOND
M  V30 END CTAB
M  END
>  <Dataset>  (707) 
ChEMBL_Kinases

>  <Ligand_Instance>  (707) 
nan

>  <PDB_ID>  (707) 
nan

>  <Standardized_SMILES>  (707) 
c1cc(-c2cnc3[nH]cc(-c4ccn[nH]4)c3n2)ccn1

>  <Name>  (707) 
nan

>  <Pocket>  (707) 
nan

>  <ATP_Site>  (707) 
nan

>  <Peripheral>  (707) 
nan

>  <Num_H_Atoms_ProtBoundConf>  (707) 
nan

>  <Num_Resolved_Atoms>  (707) 
nan

>  <Num_Not_Resolved_Atoms>  (707) 
nan

$$$$
CHEMBL3628375
     RDKit          3D

  0  0  0  0  0  0  0  0  0  0999 V3000
M  V30 BEGIN CTAB
M  V30 COUNTS 30 33 0 0 0
M  V30 BEGIN ATOM
M  V30 1 C -1.918464 -1.774420 4.126281 0
M  V30 2 C -1.161139 -1.491699 2.984351 0
M  V30 3 C -0.471190 -2.534692 2.403479 0
M  V30 4 C 0.317678 -2.236518 1.212697 0
M  V30 5 C 1.061335 -3.167254 0.518282 0
M  V30 6 N 1.770179 -2.831716 -0.575589 0
M  V30 7 C 1.782156 -1.563372 -1.040162 0
M  V30 8 N 2.394946 -0.984044 -2.087981 0
M  V30 9 C 2.067368 0.320420 -2.098100 0
M  V30 10 C 1.228168 0.568442 -1.031040 0
M  V30 11 C 0.648192 1.863386 -0.690585 0
M  V30 12 C 0.090856 2.657333 -1.700114 0
M  V30 13 N -0.378256 3.788220 -1.176902 0
M  V30 14 N -0.150095 3.764676 0.131105 0
M  V30 15 C 0.472117 2.607406 0.454167 0
M  V30 16 C 1.032881 -0.614476 -0.344437 0
M  V30 17 N 0.318513 -0.968442 0.763547 0
M  V30 18 C -0.559827 -3.789277 2.968663 0
M  V30 19 C -1.330680 -4.023427 4.112047 0
M  V30 20 N -2.002368 -3.001513 4.675239 0
M  V30 21 H -2.457531 -0.937463 4.572344 0
M  V30 22 H -1.145224 -0.474700 2.603164 0
M  V30 23 H 1.069204 -4.189827 0.868716 0
M  V30 24 H 3.011694 -1.534268 -2.742203 0
M  V30 25 H 2.442469 1.012024 -2.858540 0
M  V30 26 H -0.021154 2.519759 -2.784902 0
M  V30 27 H -0.358515 4.446568 0.896194 0
M  V30 28 H 0.831307 2.193906 1.396186 0
M  V30 29 H -0.031891 -4.604884 2.530389 0
M  V30 30 H -1.349855 -5.037291 4.496610 0
M  V30 END ATOM
M  V30 BEGIN BOND
M  V30 1 2 1 2
M  V30 2 1 2 3
M  V30 3 1 3 4
M  V30 4 2 4 5
M  V30 5 1 5 6
M  V30 6 2 6 7
M  V30 7 1 7 8
M  V30 8 1 8 9
M  V30 9 2 9 10
M  V30 10 1 10 11
M  V30 11 1 11 12
M  V30 12 2 12 13
M  V30 13 1 13 14
M  V30 14 1 14 15
M  V30 15 1 10 16
M  V30 16 2 16 17
M  V30 17 2 3 18
M  V30 18 1 18 19
M  V30 19 2 19 20
M  V30 20 1 20 1
M  V30 21 1 17 4
M  V30 22 1 16 7
M  V30 23 2 15 11
M  V30 24 1 1 21
M  V30 25 1 2 22
M  V30 26 1 5 23
M  V30 27 1 8 24
M  V30 28 1 9 25
M  V30 29 1 12 26
M  V30 30 1 14 27
M  V30 31 1 15 28
M  V30 32 1 18 29
M  V30 33 1 19 30
M  V30 END BOND
M  V30 END CTAB
M  END
>  <Dataset>  (708) 
ChEMBL_Kinases

>  <Ligand_Instance>  (708) 
nan

>  <PDB_ID>  (708) 
nan

>  <Standardized_SMILES>  (708) 
c1cc(-c2cnc3[nH]cc(-c4cn[nH]c4)c3n2)ccn1

>  <Name>  (708) 
nan

>  <Pocket>  (708) 
nan

>  <ATP_Site>  (708) 
nan

>  <Peripheral>  (708) 
nan

>  <Num_H_Atoms_ProtBoundConf>  (708) 
nan

>  <Num_Resolved_Atoms>  (708) 
nan

>  <Num_Not_Resolved_Atoms>  (708) 
nan

$$$$
CHEMBL3628376
     RDKit          3D

  0  0  0  0  0  0  0  0  0  0999 V3000
M  V30 BEGIN CTAB
M  V30 COUNTS 33 36 0 0 0
M  V30 BEGIN ATOM
M  V30 1 C -2.880934 -2.903724 3.306350 0
M  V30 2 N -2.451003 -3.064319 1.914863 0
M  V30 3 C -1.270935 -2.661106 1.418773 0
M  V30 4 C -1.211146 -2.976684 0.070601 0
M  V30 5 C -0.034155 -2.652642 -0.731799 0
M  V30 6 C 0.604520 -3.492296 -1.648256 0
M  V30 7 N 1.648040 -2.794854 -2.165373 0
M  V30 8 C 1.652879 -1.585899 -1.596611 0
M  V30 9 N 2.475885 -0.534744 -1.767078 0
M  V30 10 C 2.298149 0.603986 -1.083302 0
M  V30 11 C 1.280835 0.778257 -0.174528 0
M  V30 12 C 1.105480 2.020027 0.556122 0
M  V30 13 C 1.879177 3.129438 0.453288 0
M  V30 14 C 1.682184 4.292631 1.164291 0
M  V30 15 N 0.644640 4.339994 2.029386 0
M  V30 16 C -0.169587 3.260334 2.179229 0
M  V30 17 C 0.043267 2.096843 1.455204 0
M  V30 18 N 0.465301 -0.275073 -0.011158 0
M  V30 19 C 0.625134 -1.432243 -0.689131 0
M  V30 20 C -2.430830 -3.596727 -0.217125 0
M  V30 21 N -3.160114 -3.632387 0.930224 0
M  V30 22 H -3.903001 -3.267827 3.429458 0
M  V30 23 H -2.131672 -3.448038 3.910479 0
M  V30 24 H -2.804346 -1.837620 3.631282 0
M  V30 25 H -0.516443 -2.170954 2.016484 0
M  V30 26 H 0.339826 -4.507630 -1.914253 0
M  V30 27 H 2.345939 -3.104816 -2.879007 0
M  V30 28 H 3.012193 1.388991 -1.291354 0
M  V30 29 H 2.706585 3.104486 -0.230528 0
M  V30 30 H 2.347280 5.151651 1.031048 0
M  V30 31 H -0.957065 3.430135 2.899225 0
M  V30 32 H -0.662643 1.300850 1.651458 0
M  V30 33 H -2.632463 -3.940112 -1.213155 0
M  V30 END ATOM
M  V30 BEGIN BOND
M  V30 1 1 1 2
M  V30 2 1 2 3
M  V30 3 2 3 4
M  V30 4 1 4 5
M  V30 5 2 5 6
M  V30 6 1 6 7
M  V30 7 1 7 8
M  V30 8 2 8 9
M  V30 9 1 9 10
M  V30 10 2 10 11
M  V30 11 1 11 12
M  V30 12 2 12 13
M  V30 13 1 13 14
M  V30 14 2 14 15
M  V30 15 1 15 16
M  V30 16 2 16 17
M  V30 17 1 11 18
M  V30 18 2 18 19
M  V30 19 1 4 20
M  V30 20 2 20 21
M  V30 21 1 21 2
M  V30 22 1 19 5
M  V30 23 1 19 8
M  V30 24 1 17 12
M  V30 25 1 1 22
M  V30 26 1 1 23
M  V30 27 1 1 24
M  V30 28 1 3 25
M  V30 29 1 6 26
M  V30 30 1 7 27
M  V30 31 1 10 28
M  V30 32 1 13 29
M  V30 33 1 14 30
M  V30 34 1 16 31
M  V30 35 1 17 32
M  V30 36 1 20 33
M  V30 END BOND
M  V30 END CTAB
M  END
>  <Dataset>  (709) 
ChEMBL_Kinases

>  <Ligand_Instance>  (709) 
nan

>  <PDB_ID>  (709) 
nan

>  <Standardized_SMILES>  (709) 
Cn1cc(-c2c[nH]c3ncc(-c4ccncc4)nc23)cn1

>  <Name>  (709) 
nan

>  <Pocket>  (709) 
nan

>  <ATP_Site>  (709) 
nan

>  <Peripheral>  (709) 
nan

>  <Num_H_Atoms_ProtBoundConf>  (709) 
nan

>  <Num_Resolved_Atoms>  (709) 
nan

>  <Num_Not_Resolved_Atoms>  (709) 
nan

$$$$
CHEMBL3628377
     RDKit          3D

  0  0  0  0  0  0  0  0  0  0999 V3000
M  V30 BEGIN CTAB
M  V30 COUNTS 36 39 0 0 0
M  V30 BEGIN ATOM
M  V30 1 C -0.744074 -3.758359 4.464192 0
M  V30 2 C 0.419511 -4.314861 3.659782 0
M  V30 3 N 0.719992 -3.431335 2.536949 0
M  V30 4 C 0.160766 -3.541608 1.311124 0
M  V30 5 C 0.702693 -2.530535 0.544994 0
M  V30 6 C 0.511142 -2.120961 -0.841659 0
M  V30 7 C 0.460688 -2.923509 -1.972806 0
M  V30 8 N 0.268364 -2.135679 -3.048985 0
M  V30 9 C 0.187491 -0.840254 -2.690560 0
M  V30 10 N 0.008766 0.347914 -3.306920 0
M  V30 11 C -0.013276 1.475274 -2.557898 0
M  V30 12 C 0.136041 1.500563 -1.186633 0
M  V30 13 C 0.104624 2.740145 -0.426919 0
M  V30 14 C -0.069635 4.008167 -0.936108 0
M  V30 15 C -0.072262 5.060682 -0.072130 0
M  V30 16 N 0.083865 4.964057 1.260868 0
M  V30 17 C 0.259160 3.734520 1.811920 0
M  V30 18 C 0.263338 2.663757 0.946588 0
M  V30 19 N 0.312681 0.305077 -0.595282 0
M  V30 20 C 0.338099 -0.828905 -1.319364 0
M  V30 21 C 1.593696 -1.819065 1.340231 0
M  V30 22 N 1.563727 -2.412818 2.544900 0
M  V30 23 H -1.674192 -4.333683 4.213735 0
M  V30 24 H -0.925743 -2.715843 4.127467 0
M  V30 25 H -0.554409 -3.772805 5.553911 0
M  V30 26 H 1.281050 -4.321954 4.359777 0
M  V30 27 H 0.241029 -5.336995 3.284305 0
M  V30 28 H -0.555925 -4.229291 0.920837 0
M  V30 29 H 0.565854 -3.998696 -1.926225 0
M  V30 30 H 0.188046 -2.454747 -4.043431 0
M  V30 31 H -0.160266 2.384062 -3.122519 0
M  V30 32 H -0.194814 4.086440 -2.004238 0
M  V30 33 H -0.207887 6.069753 -0.449844 0
M  V30 34 H 0.386319 3.623266 2.870154 0
M  V30 35 H 0.404534 1.692480 1.406567 0
M  V30 36 H 2.224671 -0.961129 1.138203 0
M  V30 END ATOM
M  V30 BEGIN BOND
M  V30 1 1 1 2
M  V30 2 1 2 3
M  V30 3 1 3 4
M  V30 4 2 4 5
M  V30 5 1 5 6
M  V30 6 2 6 7
M  V30 7 1 7 8
M  V30 8 1 8 9
M  V30 9 2 9 10
M  V30 10 1 10 11
M  V30 11 2 11 12
M  V30 12 1 12 13
M  V30 13 2 13 14
M  V30 14 1 14 15
M  V30 15 2 15 16
M  V30 16 1 16 17
M  V30 17 2 17 18
M  V30 18 1 12 19
M  V30 19 2 19 20
M  V30 20 1 5 21
M  V30 21 2 21 22
M  V30 22 1 22 3
M  V30 23 1 20 6
M  V30 24 1 20 9
M  V30 25 1 18 13
M  V30 26 1 1 23
M  V30 27 1 1 24
M  V30 28 1 1 25
M  V30 29 1 2 26
M  V30 30 1 2 27
M  V30 31 1 4 28
M  V30 32 1 7 29
M  V30 33 1 8 30
M  V30 34 1 11 31
M  V30 35 1 14 32
M  V30 36 1 15 33
M  V30 37 1 17 34
M  V30 38 1 18 35
M  V30 39 1 21 36
M  V30 END BOND
M  V30 END CTAB
M  END
>  <Dataset>  (710) 
ChEMBL_Kinases

>  <Ligand_Instance>  (710) 
nan

>  <PDB_ID>  (710) 
nan

>  <Standardized_SMILES>  (710) 
CCn1cc(-c2c[nH]c3ncc(-c4ccncc4)nc23)cn1

>  <Name>  (710) 
nan

>  <Pocket>  (710) 
nan

>  <ATP_Site>  (710) 
nan

>  <Peripheral>  (710) 
nan

>  <Num_H_Atoms_ProtBoundConf>  (710) 
nan

>  <Num_Resolved_Atoms>  (710) 
nan

>  <Num_Not_Resolved_Atoms>  (710) 
nan

$$$$
CHEMBL3628378
     RDKit          3D

  0  0  0  0  0  0  0  0  0  0999 V3000
M  V30 BEGIN CTAB
M  V30 COUNTS 39 42 0 0 0
M  V30 BEGIN ATOM
M  V30 1 C -1.393666 -5.831230 0.724717 0
M  V30 2 C -0.206068 -5.157309 1.326180 0
M  V30 3 C -0.573857 -3.917030 2.112576 0
M  V30 4 N -1.230732 -2.930836 1.283561 0
M  V30 5 C -0.530430 -1.994732 0.631069 0
M  V30 6 C -1.458045 -1.216265 -0.064848 0
M  V30 7 C -1.125996 -0.073173 -0.914722 0
M  V30 8 C -1.646094 0.182342 -2.166820 0
M  V30 9 N -1.100868 1.321695 -2.630917 0
M  V30 10 C -0.256605 1.765283 -1.682145 0
M  V30 11 N 0.537543 2.863206 -1.649074 0
M  V30 12 C 1.315695 3.113727 -0.574697 0
M  V30 13 C 1.347710 2.287095 0.526189 0
M  V30 14 C 2.187535 2.556211 1.687317 0
M  V30 15 C 3.027002 3.642446 1.816117 0
M  V30 16 C 3.807415 3.864330 2.930711 0
M  V30 17 N 3.764623 2.993497 3.953756 0
M  V30 18 C 2.950328 1.916506 3.858271 0
M  V30 19 C 2.152618 1.670383 2.743368 0
M  V30 20 N 0.547596 1.193977 0.476391 0
M  V30 21 C -0.232566 0.933402 -0.588881 0
M  V30 22 C -2.725061 -1.735386 0.207785 0
M  V30 23 N -2.514273 -2.777240 1.034518 0
M  V30 24 H -2.265852 -5.824033 1.415491 0
M  V30 25 H -1.135104 -6.921059 0.592297 0
M  V30 26 H -1.659133 -5.473978 -0.298118 0
M  V30 27 H 0.497101 -4.927621 0.504322 0
M  V30 28 H 0.322178 -5.865210 1.982477 0
M  V30 29 H -1.327884 -4.209558 2.876056 0
M  V30 30 H 0.290184 -3.501295 2.656715 0
M  V30 31 H 0.522542 -1.829034 0.609895 0
M  V30 32 H -2.375706 -0.399841 -2.735700 0
M  V30 33 H -1.287563 1.785311 -3.549941 0
M  V30 34 H 1.909507 3.991558 -0.621783 0
M  V30 35 H 3.074779 4.349468 1.008804 0
M  V30 36 H 4.447311 4.732980 2.977535 0
M  V30 37 H 3.000399 1.288073 4.741205 0
M  V30 38 H 1.542278 0.783762 2.772027 0
M  V30 39 H -3.611875 -1.291224 -0.225588 0
M  V30 END ATOM
M  V30 BEGIN BOND
M  V30 1 1 1 2
M  V30 2 1 2 3
M  V30 3 1 3 4
M  V30 4 1 4 5
M  V30 5 2 5 6
M  V30 6 1 6 7
M  V30 7 2 7 8
M  V30 8 1 8 9
M  V30 9 1 9 10
M  V30 10 2 10 11
M  V30 11 1 11 12
M  V30 12 2 12 13
M  V30 13 1 13 14
M  V30 14 2 14 15
M  V30 15 1 15 16
M  V30 16 2 16 17
M  V30 17 1 17 18
M  V30 18 2 18 19
M  V30 19 1 13 20
M  V30 20 2 20 21
M  V30 21 1 6 22
M  V30 22 2 22 23
M  V30 23 1 23 4
M  V30 24 1 21 7
M  V30 25 1 21 10
M  V30 26 1 19 14
M  V30 27 1 1 24
M  V30 28 1 1 25
M  V30 29 1 1 26
M  V30 30 1 2 27
M  V30 31 1 2 28
M  V30 32 1 3 29
M  V30 33 1 3 30
M  V30 34 1 5 31
M  V30 35 1 8 32
M  V30 36 1 9 33
M  V30 37 1 12 34
M  V30 38 1 15 35
M  V30 39 1 16 36
M  V30 40 1 18 37
M  V30 41 1 19 38
M  V30 42 1 22 39
M  V30 END BOND
M  V30 END CTAB
M  END
>  <Dataset>  (711) 
ChEMBL_Kinases

>  <Ligand_Instance>  (711) 
nan

>  <PDB_ID>  (711) 
nan

>  <Standardized_SMILES>  (711) 
CCCn1cc(-c2c[nH]c3ncc(-c4ccncc4)nc23)cn1

>  <Name>  (711) 
nan

>  <Pocket>  (711) 
nan

>  <ATP_Site>  (711) 
nan

>  <Peripheral>  (711) 
nan

>  <Num_H_Atoms_ProtBoundConf>  (711) 
nan

>  <Num_Resolved_Atoms>  (711) 
nan

>  <Num_Not_Resolved_Atoms>  (711) 
nan

$$$$
CHEMBL3628379
     RDKit          3D

  0  0  0  0  0  0  0  0  0  0999 V3000
M  V30 BEGIN CTAB
M  V30 COUNTS 42 45 0 0 0
M  V30 BEGIN ATOM
M  V30 1 C -0.699316 -5.349814 -0.949793 0
M  V30 2 C 0.232148 -4.157818 -0.763530 0
M  V30 3 C 0.061673 -3.558614 0.584981 0
M  V30 4 C -0.027335 -3.232768 -1.907269 0
M  V30 5 N 0.792408 -2.036454 -1.870713 0
M  V30 6 C 0.468264 -0.861151 -1.260450 0
M  V30 7 C 1.552785 -0.039912 -1.499856 0
M  V30 8 C 1.552154 1.326553 -0.982862 0
M  V30 9 C 1.942894 2.421889 -1.727634 0
M  V30 10 N 1.838299 3.541397 -0.994894 0
M  V30 11 C 1.377814 3.222139 0.249631 0
M  V30 12 N 1.078655 3.879971 1.383862 0
M  V30 13 C 0.628472 3.216882 2.467102 0
M  V30 14 C 0.449064 1.849794 2.482783 0
M  V30 15 C -0.038535 1.140029 3.657873 0
M  V30 16 C -0.368963 1.730129 4.858676 0
M  V30 17 C -0.829702 1.018721 5.951277 0
M  V30 18 N -0.964617 -0.327041 5.839773 0
M  V30 19 C -0.639962 -0.915837 4.656639 0
M  V30 20 C -0.179658 -0.243632 3.550624 0
M  V30 21 N 0.756264 1.220203 1.335334 0
M  V30 22 C 1.205343 1.854854 0.244752 0
M  V30 23 C 2.500373 -0.718997 -2.238502 0
M  V30 24 N 1.998468 -1.967712 -2.457096 0
M  V30 25 H -0.733928 -6.012581 -0.078465 0
M  V30 26 H -1.716627 -4.911026 -1.162850 0
M  V30 27 H -0.396243 -5.843952 -1.891119 0
M  V30 28 H 1.274957 -4.550772 -0.847473 0
M  V30 29 H 1.036047 -3.458298 1.144331 0
M  V30 30 H -0.501084 -2.630593 0.652360 0
M  V30 31 H -0.510359 -4.296602 1.219894 0
M  V30 32 H -1.119997 -2.954861 -1.931773 0
M  V30 33 H 0.152378 -3.750408 -2.854864 0
M  V30 34 H -0.441751 -0.665730 -0.724353 0
M  V30 35 H 2.299763 2.506123 -2.753489 0
M  V30 36 H 2.027149 4.561679 -1.169147 0
M  V30 37 H 0.412456 3.822362 3.335020 0
M  V30 38 H -0.263465 2.796337 4.951241 0
M  V30 39 H -1.081439 1.515405 6.884015 0
M  V30 40 H -0.731329 -2.002781 4.515551 0
M  V30 41 H 0.068823 -0.736839 2.629204 0
M  V30 42 H 3.402552 -0.192821 -2.497079 0
M  V30 END ATOM
M  V30 BEGIN BOND
M  V30 1 1 1 2
M  V30 2 1 2 3
M  V30 3 1 2 4
M  V30 4 1 4 5
M  V30 5 1 5 6
M  V30 6 2 6 7
M  V30 7 1 7 8
M  V30 8 2 8 9
M  V30 9 1 9 10
M  V30 10 1 10 11
M  V30 11 2 11 12
M  V30 12 1 12 13
M  V30 13 2 13 14
M  V30 14 1 14 15
M  V30 15 2 15 16
M  V30 16 1 16 17
M  V30 17 2 17 18
M  V30 18 1 18 19
M  V30 19 2 19 20
M  V30 20 1 14 21
M  V30 21 2 21 22
M  V30 22 1 7 23
M  V30 23 2 23 24
M  V30 24 1 24 5
M  V30 25 1 22 8
M  V30 26 1 22 11
M  V30 27 1 20 15
M  V30 28 1 1 25
M  V30 29 1 1 26
M  V30 30 1 1 27
M  V30 31 1 2 28
M  V30 32 1 3 29
M  V30 33 1 3 30
M  V30 34 1 3 31
M  V30 35 1 4 32
M  V30 36 1 4 33
M  V30 37 1 6 34
M  V30 38 1 9 35
M  V30 39 1 10 36
M  V30 40 1 13 37
M  V30 41 1 16 38
M  V30 42 1 17 39
M  V30 43 1 19 40
M  V30 44 1 20 41
M  V30 45 1 23 42
M  V30 END BOND
M  V30 END CTAB
M  END
>  <Dataset>  (712) 
ChEMBL_Kinases

>  <Ligand_Instance>  (712) 
nan

>  <PDB_ID>  (712) 
nan

>  <Standardized_SMILES>  (712) 
CC(C)Cn1cc(-c2c[nH]c3ncc(-c4ccncc4)nc23)cn1

>  <Name>  (712) 
nan

>  <Pocket>  (712) 
nan

>  <ATP_Site>  (712) 
nan

>  <Peripheral>  (712) 
nan

>  <Num_H_Atoms_ProtBoundConf>  (712) 
nan

>  <Num_Resolved_Atoms>  (712) 
nan

>  <Num_Not_Resolved_Atoms>  (712) 
nan

$$$$
CHEMBL3628380
     RDKit          3D

  0  0  0  0  0  0  0  0  0  0999 V3000
M  V30 BEGIN CTAB
M  V30 COUNTS 40 43 0 0 0
M  V30 BEGIN ATOM
M  V30 1 O 0.578447 -5.605091 2.843587 0
M  V30 2 C 0.525983 -5.379590 1.455381 0
M  V30 3 C 1.086571 -4.035370 1.094949 0
M  V30 4 C 0.997529 -3.860408 -0.420136 0
M  V30 5 N 1.532299 -2.566132 -0.812438 0
M  V30 6 C 0.877290 -1.398196 -0.930459 0
M  V30 7 C 1.809201 -0.457963 -1.328177 0
M  V30 8 C 1.484545 0.959166 -1.568896 0
M  V30 9 C 1.831729 1.822181 -2.587637 0
M  V30 10 N 1.281062 3.026848 -2.352614 0
M  V30 11 C 0.571299 2.997775 -1.200988 0
M  V30 12 N -0.171228 3.879539 -0.485622 0
M  V30 13 C -0.767288 3.513633 0.664743 0
M  V30 14 C -0.655061 2.235999 1.170622 0
M  V30 15 C -1.271509 1.766902 2.409002 0
M  V30 16 C -1.049532 0.451137 2.759697 0
M  V30 17 C -1.604500 -0.077113 3.931419 0
M  V30 18 N -2.366607 0.743202 4.711098 0
M  V30 19 C -2.574078 2.017972 4.359182 0
M  V30 20 C -2.047743 2.564657 3.223399 0
M  V30 21 N 0.081110 1.362570 0.460962 0
M  V30 22 C 0.693224 1.714831 -0.707779 0
M  V30 23 C 3.035474 -1.109261 -1.440974 0
M  V30 24 N 2.814738 -2.414439 -1.111450 0
M  V30 25 H -0.190689 -5.235494 3.327765 0
M  V30 26 H 1.147172 -6.168332 0.988000 0
M  V30 27 H -0.541332 -5.473436 1.180234 0
M  V30 28 H 2.162739 -4.030095 1.341577 0
M  V30 29 H 0.575583 -3.213098 1.599748 0
M  V30 30 H 1.520892 -4.696517 -0.913092 0
M  V30 31 H -0.083731 -3.910052 -0.661301 0
M  V30 32 H -0.177105 -1.228144 -0.748697 0
M  V30 33 H 2.454532 1.511532 -3.417804 0
M  V30 34 H 1.377484 3.876039 -2.962578 0
M  V30 35 H -1.355621 4.228521 1.222850 0
M  V30 36 H -0.445862 -0.253181 2.171374 0
M  V30 37 H -1.458649 -1.101546 4.247646 0
M  V30 38 H -3.185133 2.674164 4.985150 0
M  V30 39 H -2.222901 3.594528 2.951163 0
M  V30 40 H 3.933143 -0.576185 -1.743076 0
M  V30 END ATOM
M  V30 BEGIN BOND
M  V30 1 1 1 2
M  V30 2 1 2 3
M  V30 3 1 3 4
M  V30 4 1 4 5
M  V30 5 1 5 6
M  V30 6 2 6 7
M  V30 7 1 7 8
M  V30 8 2 8 9
M  V30 9 1 9 10
M  V30 10 1 10 11
M  V30 11 2 11 12
M  V30 12 1 12 13
M  V30 13 2 13 14
M  V30 14 1 14 15
M  V30 15 2 15 16
M  V30 16 1 16 17
M  V30 17 2 17 18
M  V30 18 1 18 19
M  V30 19 2 19 20
M  V30 20 1 14 21
M  V30 21 2 21 22
M  V30 22 1 7 23
M  V30 23 2 23 24
M  V30 24 1 24 5
M  V30 25 1 22 8
M  V30 26 1 22 11
M  V30 27 1 20 15
M  V30 28 1 1 25
M  V30 29 1 2 26
M  V30 30 1 2 27
M  V30 31 1 3 28
M  V30 32 1 3 29
M  V30 33 1 4 30
M  V30 34 1 4 31
M  V30 35 1 6 32
M  V30 36 1 9 33
M  V30 37 1 10 34
M  V30 38 1 13 35
M  V30 39 1 16 36
M  V30 40 1 17 37
M  V30 41 1 19 38
M  V30 42 1 20 39
M  V30 43 1 23 40
M  V30 END BOND
M  V30 END CTAB
M  END
>  <Dataset>  (713) 
ChEMBL_Kinases

>  <Ligand_Instance>  (713) 
nan

>  <PDB_ID>  (713) 
nan

>  <Standardized_SMILES>  (713) 
OCCCn1cc(-c2c[nH]c3ncc(-c4ccncc4)nc23)cn1

>  <Name>  (713) 
nan

>  <Pocket>  (713) 
nan

>  <ATP_Site>  (713) 
nan

>  <Peripheral>  (713) 
nan

>  <Num_H_Atoms_ProtBoundConf>  (713) 
nan

>  <Num_Resolved_Atoms>  (713) 
nan

>  <Num_Not_Resolved_Atoms>  (713) 
nan

$$$$
CHEMBL3628381
     RDKit          3D

  0  0  0  0  0  0  0  0  0  0999 V3000
M  V30 BEGIN CTAB
M  V30 COUNTS 49 53 0 0 0
M  V30 BEGIN ATOM
M  V30 1 C -1.025100 -4.388803 0.756117 0
M  V30 2 C -0.466786 -3.424258 -0.059212 0
M  V30 3 C -0.132373 -3.652561 -1.360517 0
M  V30 4 C 0.451827 -2.568634 -2.139849 0
M  V30 5 C 0.830884 -2.679776 -3.461200 0
M  V30 6 N 1.370781 -1.672855 -4.172881 0
M  V30 7 C 1.551386 -0.488074 -3.559350 0
M  V30 8 N 2.048575 0.698534 -3.952708 0
M  V30 9 C 1.987222 1.543498 -2.907536 0
M  V30 10 C 1.437077 0.916491 -1.782797 0
M  V30 11 C 1.253593 1.605424 -0.511671 0
M  V30 12 C 2.270188 2.400178 0.032449 0
M  V30 13 N 1.821362 2.893538 1.174609 0
M  V30 14 N 0.569994 2.477293 1.425133 0
M  V30 15 C -0.179433 2.848509 2.586667 0
M  V30 16 C -0.013329 1.926056 3.761908 0
M  V30 17 N -0.426151 0.567808 3.472519 0
M  V30 18 C -0.213497 -0.234656 4.666456 0
M  V30 19 C -0.724917 -1.628352 4.495752 0
M  V30 20 O -2.055013 -1.656690 4.059921 0
M  V30 21 C -2.180497 -0.940309 2.871121 0
M  V30 22 C -1.851980 0.520120 3.207891 0
M  V30 23 C 0.236433 1.690467 0.385440 0
M  V30 24 C 1.177523 -0.359382 -2.237148 0
M  V30 25 N 0.637631 -1.378171 -1.537365 0
M  V30 26 C -0.371904 -4.912980 -1.864502 0
M  V30 27 C -0.933049 -5.893855 -1.056538 0
M  V30 28 N -1.240181 -5.607666 0.215715 0
M  V30 29 H -1.273519 -4.147784 1.794853 0
M  V30 30 H -0.299539 -2.456974 0.381832 0
M  V30 31 H 0.692101 -3.625279 -3.967695 0
M  V30 32 H 2.402437 0.869558 -4.909694 0
M  V30 33 H 2.342136 2.559566 -3.018434 0
M  V30 34 H 3.282863 2.653574 -0.306955 0
M  V30 35 H -1.256075 3.016160 2.355799 0
M  V30 36 H 0.196974 3.851362 2.949179 0
M  V30 37 H 1.006838 1.972733 4.161129 0
M  V30 38 H -0.697363 2.323798 4.560135 0
M  V30 39 H -0.597378 0.225265 5.578222 0
M  V30 40 H 0.891282 -0.295181 4.791935 0
M  V30 41 H -0.722198 -2.151643 5.468875 0
M  V30 42 H -0.127453 -2.223588 3.777991 0
M  V30 43 H -1.432247 -1.345730 2.176482 0
M  V30 44 H -3.209679 -1.052521 2.487794 0
M  V30 45 H -2.120323 1.182644 2.364967 0
M  V30 46 H -2.364055 0.779645 4.143699 0
M  V30 47 H -0.693897 1.183695 0.248857 0
M  V30 48 H -0.125633 -5.136983 -2.879205 0
M  V30 49 H -1.132637 -6.890662 -1.422591 0
M  V30 END ATOM
M  V30 BEGIN BOND
M  V30 1 2 1 2
M  V30 2 1 2 3
M  V30 3 1 3 4
M  V30 4 2 4 5
M  V30 5 1 5 6
M  V30 6 2 6 7
M  V30 7 1 7 8
M  V30 8 1 8 9
M  V30 9 2 9 10
M  V30 10 1 10 11
M  V30 11 1 11 12
M  V30 12 2 12 13
M  V30 13 1 13 14
M  V30 14 1 14 15
M  V30 15 1 15 16
M  V30 16 1 16 17
M  V30 17 1 17 18
M  V30 18 1 18 19
M  V30 19 1 19 20
M  V30 20 1 20 21
M  V30 21 1 21 22
M  V30 22 1 14 23
M  V30 23 1 10 24
M  V30 24 2 24 25
M  V30 25 2 3 26
M  V30 26 1 26 27
M  V30 27 2 27 28
M  V30 28 1 28 1
M  V30 29 1 25 4
M  V30 30 1 24 7
M  V30 31 2 23 11
M  V30 32 1 22 17
M  V30 33 1 1 29
M  V30 34 1 2 30
M  V30 35 1 5 31
M  V30 36 1 8 32
M  V30 37 1 9 33
M  V30 38 1 12 34
M  V30 39 1 15 35
M  V30 40 1 15 36
M  V30 41 1 16 37
M  V30 42 1 16 38
M  V30 43 1 18 39
M  V30 44 1 18 40
M  V30 45 1 19 41
M  V30 46 1 19 42
M  V30 47 1 21 43
M  V30 48 1 21 44
M  V30 49 1 22 45
M  V30 50 1 22 46
M  V30 51 1 23 47
M  V30 52 1 26 48
M  V30 53 1 27 49
M  V30 END BOND
M  V30 END CTAB
M  END
>  <Dataset>  (714) 
ChEMBL_Kinases

>  <Ligand_Instance>  (714) 
nan

>  <PDB_ID>  (714) 
nan

>  <Standardized_SMILES>  (714) 
c1cc(-c2cnc3[nH]cc(-c4cnn(CCN5CCOCC5)c4)c3n2)ccn1

>  <Name>  (714) 
nan

>  <Pocket>  (714) 
nan

>  <ATP_Site>  (714) 
nan

>  <Peripheral>  (714) 
nan

>  <Num_H_Atoms_ProtBoundConf>  (714) 
nan

>  <Num_Resolved_Atoms>  (714) 
nan

>  <Num_Not_Resolved_Atoms>  (714) 
nan

$$$$
CHEMBL3628373
     RDKit          3D

  0  0  0  0  0  0  0  0  0  0999 V3000
M  V30 BEGIN CTAB
M  V30 COUNTS 32 35 0 0 0
M  V30 BEGIN ATOM
M  V30 1 Cl 0.878271 -3.071885 6.271573 0
M  V30 2 C 0.570233 -3.014241 4.535010 0
M  V30 3 C 1.171592 -3.890916 3.677755 0
M  V30 4 C 0.951962 -3.874175 2.304050 0
M  V30 5 C 0.067593 -2.892128 1.857016 0
M  V30 6 C -0.201997 -2.828117 0.412486 0
M  V30 7 C -0.477222 -3.812329 -0.523974 0
M  V30 8 N -0.649600 -3.244078 -1.717955 0
M  V30 9 C -0.496652 -1.914935 -1.598637 0
M  V30 10 N -0.572200 -0.927570 -2.500551 0
M  V30 11 C -0.371846 0.362006 -2.112752 0
M  V30 12 C -0.090364 0.677465 -0.800624 0
M  V30 13 C 0.135063 2.034325 -0.316339 0
M  V30 14 C 0.407329 2.198372 1.024859 0
M  V30 15 C 0.637425 3.459694 1.582393 0
M  V30 16 N 0.593348 4.564871 0.784722 0
M  V30 17 C 0.323234 4.362812 -0.525686 0
M  V30 18 C 0.093053 3.158369 -1.112862 0
M  V30 19 N -0.017398 -0.322739 0.094370 0
M  V30 20 C -0.215968 -1.620906 -0.279692 0
M  V30 21 C -0.525636 -2.017554 2.756902 0
M  V30 22 N -0.274412 -2.081390 4.079807 0
M  V30 23 H 1.841338 -4.621036 4.091873 0
M  V30 24 H 1.434503 -4.572390 1.645229 0
M  V30 25 H -0.524370 -4.853903 -0.236748 0
M  V30 26 H -0.867279 -3.817187 -2.563847 0
M  V30 27 H -0.433072 1.157698 -2.841463 0
M  V30 28 H 0.467380 1.395028 1.751322 0
M  V30 29 H 0.853682 3.624791 2.629728 0
M  V30 30 H 0.301187 5.283233 -1.113219 0
M  V30 31 H -0.117137 3.049354 -2.157253 0
M  V30 32 H -1.194155 -1.294838 2.309881 0
M  V30 END ATOM
M  V30 BEGIN BOND
M  V30 1 1 1 2
M  V30 2 2 2 3
M  V30 3 1 3 4
M  V30 4 2 4 5
M  V30 5 1 5 6
M  V30 6 2 6 7
M  V30 7 1 7 8
M  V30 8 1 8 9
M  V30 9 2 9 10
M  V30 10 1 10 11
M  V30 11 2 11 12
M  V30 12 1 12 13
M  V30 13 2 13 14
M  V30 14 1 14 15
M  V30 15 2 15 16
M  V30 16 1 16 17
M  V30 17 2 17 18
M  V30 18 1 12 19
M  V30 19 2 19 20
M  V30 20 1 5 21
M  V30 21 2 21 22
M  V30 22 1 22 2
M  V30 23 1 20 6
M  V30 24 1 20 9
M  V30 25 1 18 13
M  V30 26 1 3 23
M  V30 27 1 4 24
M  V30 28 1 7 25
M  V30 29 1 8 26
M  V30 30 1 11 27
M  V30 31 1 14 28
M  V30 32 1 15 29
M  V30 33 1 17 30
M  V30 34 1 18 31
M  V30 35 1 21 32
M  V30 END BOND
M  V30 END CTAB
M  END
>  <Dataset>  (715) 
ChEMBL_Kinases

>  <Ligand_Instance>  (715) 
nan

>  <PDB_ID>  (715) 
nan

>  <Standardized_SMILES>  (715) 
Clc1ccc(-c2c[nH]c3ncc(-c4ccncc4)nc23)cn1

>  <Name>  (715) 
nan

>  <Pocket>  (715) 
nan

>  <ATP_Site>  (715) 
nan

>  <Peripheral>  (715) 
nan

>  <Num_H_Atoms_ProtBoundConf>  (715) 
nan

>  <Num_Resolved_Atoms>  (715) 
nan

>  <Num_Not_Resolved_Atoms>  (715) 
nan

$$$$
CHEMBL3618285
     RDKit          3D

  0  0  0  0  0  0  0  0  0  0999 V3000
M  V30 BEGIN CTAB
M  V30 COUNTS 40 43 0 0 0
M  V30 BEGIN ATOM
M  V30 1 C -0.455729 -3.908836 1.468733 0
M  V30 2 C 0.857779 -3.293359 1.770638 0
M  V30 3 O 1.497440 -4.008436 2.579718 0
M  V30 4 C 1.429165 -2.046923 1.260739 0
M  V30 5 C 2.638157 -1.767627 1.703827 0
M  V30 6 C 3.450240 -2.575109 2.649314 0
M  V30 7 N 3.238310 -0.589138 1.190947 0
M  V30 8 C 2.601421 0.115417 0.355069 0
M  V30 9 S 3.188783 1.645761 -0.415854 0
M  V30 10 C 1.707460 1.798208 -1.452681 0
M  V30 11 C 1.529567 2.797665 -2.360731 0
M  V30 12 C 0.349827 2.822350 -3.066354 0
M  V30 13 C -0.558147 1.830123 -2.795242 0
M  V30 14 C -0.320773 0.846231 -1.865755 0
M  V30 15 C 0.846501 0.772607 -1.128776 0
M  V30 16 N 1.311957 -0.129008 -0.164473 0
M  V30 17 C 0.548182 -1.284546 0.351711 0
M  V30 18 C -0.654222 -0.766034 1.082857 0
M  V30 19 C -2.006804 -1.013819 1.034138 0
M  V30 20 C -2.858180 -0.348827 1.884298 0
M  V30 21 C -2.418039 0.569227 2.798104 0
M  V30 22 O -3.426247 1.131062 3.562863 0
M  V30 23 C -1.080155 0.837409 2.870495 0
M  V30 24 C -0.188589 0.174895 2.016801 0
M  V30 25 H -1.199586 -3.522546 2.188428 0
M  V30 26 H -0.812662 -3.640122 0.450342 0
M  V30 27 H -0.458027 -5.022807 1.595504 0
M  V30 28 H 4.441469 -2.059520 2.835832 0
M  V30 29 H 2.996039 -2.644068 3.657259 0
M  V30 30 H 3.715247 -3.544545 2.195771 0
M  V30 31 H 2.232367 3.567427 -2.572187 0
M  V30 32 H 0.123458 3.567322 -3.797743 0
M  V30 33 H -1.499898 1.854374 -3.361691 0
M  V30 34 H -1.125547 0.128999 -1.755938 0
M  V30 35 H 0.240792 -1.961389 -0.462172 0
M  V30 36 H -2.186744 -1.748527 0.264774 0
M  V30 37 H -3.893490 -0.638900 1.739750 0
M  V30 38 H -3.636860 2.116958 3.565503 0
M  V30 39 H -0.798229 1.571297 3.611998 0
M  V30 40 H 0.837247 0.518311 2.220012 0
M  V30 END ATOM
M  V30 BEGIN BOND
M  V30 1 1 1 2
M  V30 2 2 2 3
M  V30 3 1 2 4
M  V30 4 2 4 5
M  V30 5 1 5 6
M  V30 6 1 5 7
M  V30 7 2 7 8
M  V30 8 1 8 9
M  V30 9 1 9 10
M  V30 10 2 10 11
M  V30 11 1 11 12
M  V30 12 2 12 13
M  V30 13 1 13 14
M  V30 14 2 14 15
M  V30 15 1 15 16
M  V30 16 1 16 17
M  V30 17 1 17 18
M  V30 18 2 18 19
M  V30 19 1 19 20
M  V30 20 2 20 21
M  V30 21 1 21 22
M  V30 22 1 21 23
M  V30 23 2 23 24
M  V30 24 1 17 4
M  V30 25 1 24 18
M  V30 26 1 16 8
M  V30 27 1 15 10
M  V30 28 1 1 25
M  V30 29 1 1 26
M  V30 30 1 1 27
M  V30 31 1 6 28
M  V30 32 1 6 29
M  V30 33 1 6 30
M  V30 34 1 11 31
M  V30 35 1 12 32
M  V30 36 1 13 33
M  V30 37 1 14 34
M  V30 38 1 17 35
M  V30 39 1 19 36
M  V30 40 1 20 37
M  V30 41 1 22 38
M  V30 42 1 23 39
M  V30 43 1 24 40
M  V30 END BOND
M  V30 END CTAB
M  END
>  <Dataset>  (716) 
ChEMBL_Kinases

>  <Ligand_Instance>  (716) 
nan

>  <PDB_ID>  (716) 
nan

>  <Standardized_SMILES>  (716) 
CC(=O)C1=C(C)N=C2Sc3ccccc3N2C1c1ccc(O)cc1

>  <Name>  (716) 
nan

>  <Pocket>  (716) 
nan

>  <ATP_Site>  (716) 
nan

>  <Peripheral>  (716) 
nan

>  <Num_H_Atoms_ProtBoundConf>  (716) 
nan

>  <Num_Resolved_Atoms>  (716) 
nan

>  <Num_Not_Resolved_Atoms>  (716) 
nan

$$$$
CHEMBL3618284
     RDKit          3D

  0  0  0  0  0  0  0  0  0  0999 V3000
M  V30 BEGIN CTAB
M  V30 COUNTS 40 43 0 0 0
M  V30 BEGIN ATOM
M  V30 1 C -0.451904 -3.728011 1.104172 0
M  V30 2 C 0.842702 -3.197550 1.548368 0
M  V30 3 O 1.468731 -3.975552 2.311665 0
M  V30 4 C 1.459589 -1.895426 1.202348 0
M  V30 5 C 2.642373 -1.620277 1.707259 0
M  V30 6 C 3.443456 -2.484583 2.605201 0
M  V30 7 N 3.177025 -0.367282 1.305409 0
M  V30 8 C 2.489347 0.355213 0.517291 0
M  V30 9 S 3.068156 1.972741 -0.064680 0
M  V30 10 C 1.621796 2.194279 -1.134752 0
M  V30 11 C 1.423232 3.260967 -1.944593 0
M  V30 12 C 0.266447 3.310303 -2.687510 0
M  V30 13 C -0.607713 2.258232 -2.546593 0
M  V30 14 C -0.359956 1.211457 -1.719895 0
M  V30 15 C 0.792886 1.110684 -0.946610 0
M  V30 16 N 1.222068 0.113225 -0.071588 0
M  V30 17 C 0.564260 -1.113432 0.326561 0
M  V30 18 C -0.714041 -0.841707 1.046587 0
M  V30 19 C -2.015333 -0.949872 0.602181 0
M  V30 20 C -3.120303 -0.672142 1.357104 0
M  V30 21 C -2.969225 -0.251420 2.659670 0
M  V30 22 C -1.689270 -0.125891 3.155933 0
M  V30 23 C -0.586889 -0.411769 2.375663 0
M  V30 24 O 0.598551 -0.218531 3.071784 0
M  V30 25 H -1.270602 -3.473686 1.803724 0
M  V30 26 H -0.687514 -3.433827 0.042807 0
M  V30 27 H -0.388339 -4.853427 1.028759 0
M  V30 28 H 4.364034 -1.921018 2.909327 0
M  V30 29 H 2.897994 -2.672156 3.550454 0
M  V30 30 H 3.704892 -3.460878 2.153224 0
M  V30 31 H 2.112871 4.078949 -2.048235 0
M  V30 32 H 0.073394 4.144739 -3.344166 0
M  V30 33 H -1.516040 2.342904 -3.159229 0
M  V30 34 H -1.129626 0.479962 -1.726236 0
M  V30 35 H 0.362367 -1.758491 -0.560120 0
M  V30 36 H -2.072092 -1.290739 -0.437582 0
M  V30 37 H -4.075259 -0.808424 0.856264 0
M  V30 38 H -3.888936 -0.053184 3.187024 0
M  V30 39 H -1.665256 0.208863 4.184135 0
M  V30 40 H 0.815608 0.688309 3.484703 0
M  V30 END ATOM
M  V30 BEGIN BOND
M  V30 1 1 1 2
M  V30 2 2 2 3
M  V30 3 1 2 4
M  V30 4 2 4 5
M  V30 5 1 5 6
M  V30 6 1 5 7
M  V30 7 2 7 8
M  V30 8 1 8 9
M  V30 9 1 9 10
M  V30 10 2 10 11
M  V30 11 1 11 12
M  V30 12 2 12 13
M  V30 13 1 13 14
M  V30 14 2 14 15
M  V30 15 1 15 16
M  V30 16 1 16 17
M  V30 17 1 17 18
M  V30 18 2 18 19
M  V30 19 1 19 20
M  V30 20 2 20 21
M  V30 21 1 21 22
M  V30 22 2 22 23
M  V30 23 1 23 24
M  V30 24 1 17 4
M  V30 25 1 23 18
M  V30 26 1 16 8
M  V30 27 1 15 10
M  V30 28 1 1 25
M  V30 29 1 1 26
M  V30 30 1 1 27
M  V30 31 1 6 28
M  V30 32 1 6 29
M  V30 33 1 6 30
M  V30 34 1 11 31
M  V30 35 1 12 32
M  V30 36 1 13 33
M  V30 37 1 14 34
M  V30 38 1 17 35
M  V30 39 1 19 36
M  V30 40 1 20 37
M  V30 41 1 21 38
M  V30 42 1 22 39
M  V30 43 1 24 40
M  V30 END BOND
M  V30 END CTAB
M  END
>  <Dataset>  (717) 
ChEMBL_Kinases

>  <Ligand_Instance>  (717) 
nan

>  <PDB_ID>  (717) 
nan

>  <Standardized_SMILES>  (717) 
CC(=O)C1=C(C)N=C2Sc3ccccc3N2C1c1ccccc1O

>  <Name>  (717) 
nan

>  <Pocket>  (717) 
nan

>  <ATP_Site>  (717) 
nan

>  <Peripheral>  (717) 
nan

>  <Num_H_Atoms_ProtBoundConf>  (717) 
nan

>  <Num_Resolved_Atoms>  (717) 
nan

>  <Num_Not_Resolved_Atoms>  (717) 
nan

$$$$
CHEMBL3618283
     RDKit          3D

  0  0  0  0  0  0  0  0  0  0999 V3000
M  V30 BEGIN CTAB
M  V30 COUNTS 39 42 0 0 0
M  V30 BEGIN ATOM
M  V30 1 C -0.257879 -2.004395 3.971666 0
M  V30 2 C 1.012972 -2.107155 3.222531 0
M  V30 3 O 1.777306 -2.992179 3.687673 0
M  V30 4 C 1.460075 -1.321948 2.048830 0
M  V30 5 C 2.666547 -1.622817 1.593681 0
M  V30 6 C 3.569533 -2.648593 2.143146 0
M  V30 7 N 3.110882 -0.835993 0.497518 0
M  V30 8 C 2.366174 0.069843 0.036036 0
M  V30 9 S 2.766640 1.164021 -1.346467 0
M  V30 10 C 1.226053 2.106936 -1.176591 0
M  V30 11 C 0.897371 3.182471 -1.953569 0
M  V30 12 C -0.313333 3.788147 -1.738004 0
M  V30 13 C -1.109419 3.259726 -0.746546 0
M  V30 14 C -0.739466 2.174260 0.013887 0
M  V30 15 C 0.471567 1.539471 -0.174374 0
M  V30 16 N 1.077874 0.442831 0.479624 0
M  V30 17 C 0.469453 -0.351943 1.566962 0
M  V30 18 C -0.716112 -1.091501 0.986589 0
M  V30 19 C -0.260098 -1.762516 -0.156913 0
M  V30 20 C -1.132313 -2.529949 -0.925081 0
M  V30 21 C -2.467672 -2.636944 -0.562245 0
M  V30 22 F -3.422467 -3.339595 -1.204798 0
M  V30 23 C -2.885162 -1.965473 0.566659 0
M  V30 24 C -2.040609 -1.203458 1.337434 0
M  V30 25 H -0.648264 -0.945294 3.935423 0
M  V30 26 H -1.051068 -2.658491 3.610060 0
M  V30 27 H -0.074521 -2.276116 5.039711 0
M  V30 28 H 3.190491 -3.695871 2.021720 0
M  V30 29 H 3.937040 -2.419339 3.155387 0
M  V30 30 H 4.508225 -2.648166 1.511664 0
M  V30 31 H 1.521911 3.585525 -2.720645 0
M  V30 32 H -0.663147 4.642341 -2.298501 0
M  V30 33 H -2.071690 3.742133 -0.576661 0
M  V30 34 H -1.458605 1.858138 0.761560 0
M  V30 35 H 0.158675 0.330694 2.351612 0
M  V30 36 H 0.728596 -1.803103 -0.598412 0
M  V30 37 H -0.887265 -3.082359 -1.815974 0
M  V30 38 H -3.907738 -1.955531 0.976845 0
M  V30 39 H -2.223591 -0.628611 2.224674 0
M  V30 END ATOM
M  V30 BEGIN BOND
M  V30 1 1 1 2
M  V30 2 2 2 3
M  V30 3 1 2 4
M  V30 4 2 4 5
M  V30 5 1 5 6
M  V30 6 1 5 7
M  V30 7 2 7 8
M  V30 8 1 8 9
M  V30 9 1 9 10
M  V30 10 2 10 11
M  V30 11 1 11 12
M  V30 12 2 12 13
M  V30 13 1 13 14
M  V30 14 2 14 15
M  V30 15 1 15 16
M  V30 16 1 16 17
M  V30 17 1 17 18
M  V30 18 2 18 19
M  V30 19 1 19 20
M  V30 20 2 20 21
M  V30 21 1 21 22
M  V30 22 1 21 23
M  V30 23 2 23 24
M  V30 24 1 17 4
M  V30 25 1 24 18
M  V30 26 1 16 8
M  V30 27 1 15 10
M  V30 28 1 1 25
M  V30 29 1 1 26
M  V30 30 1 1 27
M  V30 31 1 6 28
M  V30 32 1 6 29
M  V30 33 1 6 30
M  V30 34 1 11 31
M  V30 35 1 12 32
M  V30 36 1 13 33
M  V30 37 1 14 34
M  V30 38 1 17 35
M  V30 39 1 19 36
M  V30 40 1 20 37
M  V30 41 1 23 38
M  V30 42 1 24 39
M  V30 END BOND
M  V30 END CTAB
M  END
>  <Dataset>  (718) 
ChEMBL_Kinases

>  <Ligand_Instance>  (718) 
nan

>  <PDB_ID>  (718) 
nan

>  <Standardized_SMILES>  (718) 
CC(=O)C1=C(C)N=C2Sc3ccccc3N2C1c1ccc(F)cc1

>  <Name>  (718) 
nan

>  <Pocket>  (718) 
nan

>  <ATP_Site>  (718) 
nan

>  <Peripheral>  (718) 
nan

>  <Num_H_Atoms_ProtBoundConf>  (718) 
nan

>  <Num_Resolved_Atoms>  (718) 
nan

>  <Num_Not_Resolved_Atoms>  (718) 
nan

$$$$
CHEMBL3618282
     RDKit          3D

  0  0  0  0  0  0  0  0  0  0999 V3000
M  V30 BEGIN CTAB
M  V30 COUNTS 39 42 0 0 0
M  V30 BEGIN ATOM
M  V30 1 C -0.288693 -1.824634 4.069244 0
M  V30 2 C 0.960480 -2.024272 3.294386 0
M  V30 3 O 1.637095 -2.924785 3.842537 0
M  V30 4 C 1.432220 -1.352597 2.092674 0
M  V30 5 C 2.623749 -1.765511 1.654814 0
M  V30 6 C 3.452256 -2.816404 2.283489 0
M  V30 7 N 3.126693 -1.095620 0.508282 0
M  V30 8 C 2.435574 -0.175502 -0.010365 0
M  V30 9 S 2.917341 0.786185 -1.469243 0
M  V30 10 C 1.443577 1.844083 -1.379692 0
M  V30 11 C 1.187854 2.873054 -2.227964 0
M  V30 12 C 0.025594 3.578919 -2.070874 0
M  V30 13 C -0.798418 3.180221 -1.050991 0
M  V30 14 C -0.505491 2.134722 -0.213237 0
M  V30 15 C 0.655549 1.401337 -0.340764 0
M  V30 16 N 1.177711 0.324424 0.390949 0
M  V30 17 C 0.528333 -0.352685 1.531941 0
M  V30 18 C -0.754721 -0.954654 1.061485 0
M  V30 19 C -0.468071 -1.720014 -0.080303 0
M  V30 20 C -1.465864 -2.403195 -0.764128 0
M  V30 21 C -2.773136 -2.333566 -0.317528 0
M  V30 22 Cl -4.164918 -3.109655 -1.024904 0
M  V30 23 C -3.040637 -1.581794 0.799927 0
M  V30 24 C -2.063828 -0.900873 1.485936 0
M  V30 25 H -0.502516 -0.716332 4.003736 0
M  V30 26 H -0.159967 -2.001031 5.164184 0
M  V30 27 H -1.133309 -2.446658 3.725571 0
M  V30 28 H 2.987650 -3.831522 2.224638 0
M  V30 29 H 4.384397 -2.931539 1.652136 0
M  V30 30 H 3.832866 -2.552801 3.283760 0
M  V30 31 H 1.844403 3.176878 -3.026360 0
M  V30 32 H -0.276407 4.412198 -2.686696 0
M  V30 33 H -1.739684 3.736665 -0.908944 0
M  V30 34 H -1.253796 1.918255 0.565692 0
M  V30 35 H 0.309791 0.418618 2.273068 0
M  V30 36 H 0.492287 -1.893817 -0.579057 0
M  V30 37 H -1.336402 -3.009841 -1.642988 0
M  V30 38 H -4.023003 -1.431137 1.272328 0
M  V30 39 H -2.119595 -0.275922 2.359372 0
M  V30 END ATOM
M  V30 BEGIN BOND
M  V30 1 1 1 2
M  V30 2 2 2 3
M  V30 3 1 2 4
M  V30 4 2 4 5
M  V30 5 1 5 6
M  V30 6 1 5 7
M  V30 7 2 7 8
M  V30 8 1 8 9
M  V30 9 1 9 10
M  V30 10 2 10 11
M  V30 11 1 11 12
M  V30 12 2 12 13
M  V30 13 1 13 14
M  V30 14 2 14 15
M  V30 15 1 15 16
M  V30 16 1 16 17
M  V30 17 1 17 18
M  V30 18 2 18 19
M  V30 19 1 19 20
M  V30 20 2 20 21
M  V30 21 1 21 22
M  V30 22 1 21 23
M  V30 23 2 23 24
M  V30 24 1 17 4
M  V30 25 1 24 18
M  V30 26 1 16 8
M  V30 27 1 15 10
M  V30 28 1 1 25
M  V30 29 1 1 26
M  V30 30 1 1 27
M  V30 31 1 6 28
M  V30 32 1 6 29
M  V30 33 1 6 30
M  V30 34 1 11 31
M  V30 35 1 12 32
M  V30 36 1 13 33
M  V30 37 1 14 34
M  V30 38 1 17 35
M  V30 39 1 19 36
M  V30 40 1 20 37
M  V30 41 1 23 38
M  V30 42 1 24 39
M  V30 END BOND
M  V30 END CTAB
M  END
>  <Dataset>  (719) 
ChEMBL_Kinases

>  <Ligand_Instance>  (719) 
nan

>  <PDB_ID>  (719) 
nan

>  <Standardized_SMILES>  (719) 
CC(=O)C1=C(C)N=C2Sc3ccccc3N2C1c1ccc(Cl)cc1

>  <Name>  (719) 
nan

>  <Pocket>  (719) 
nan

>  <ATP_Site>  (719) 
nan

>  <Peripheral>  (719) 
nan

>  <Num_H_Atoms_ProtBoundConf>  (719) 
nan

>  <Num_Resolved_Atoms>  (719) 
nan

>  <Num_Not_Resolved_Atoms>  (719) 
nan

$$$$
CHEMBL3618203
     RDKit          3D

  0  0  0  0  0  0  0  0  0  0999 V3000
M  V30 BEGIN CTAB
M  V30 COUNTS 39 42 0 0 0
M  V30 BEGIN ATOM
M  V30 1 C -0.269453 -2.487477 3.596814 0
M  V30 2 C 0.915937 -2.555542 2.705604 0
M  V30 3 O 1.513690 -3.643994 2.976320 0
M  V30 4 C 1.475666 -1.685739 1.669499 0
M  V30 5 C 2.579907 -2.168773 1.140888 0
M  V30 6 C 3.310182 -3.422455 1.439286 0
M  V30 7 N 3.090333 -1.306838 0.098715 0
M  V30 8 C 2.459398 -0.253335 -0.176203 0
M  V30 9 S 3.107104 0.824544 -1.485874 0
M  V30 10 C 1.653979 1.911983 -1.394268 0
M  V30 11 C 1.444476 2.982580 -2.203019 0
M  V30 12 C 0.312783 3.730300 -1.992559 0
M  V30 13 C -0.522762 3.332858 -0.973698 0
M  V30 14 C -0.229385 2.250564 -0.221174 0
M  V30 15 C 0.876898 1.447557 -0.362172 0
M  V30 16 N 1.250182 0.287786 0.342602 0
M  V30 17 C 0.691589 -0.451049 1.457202 0
M  V30 18 C -0.757739 -0.763085 1.285370 0
M  V30 19 C -0.961241 -1.768229 0.334714 0
M  V30 20 C -2.243015 -2.173214 0.028366 0
M  V30 21 C -3.307361 -1.576473 0.668507 0
M  V30 22 C -3.118249 -0.585513 1.607017 0
M  V30 23 C -1.848712 -0.164414 1.930153 0
M  V30 24 Cl -1.453705 1.073993 3.128290 0
M  V30 25 H -0.307615 -1.452327 4.010991 0
M  V30 26 H -1.222065 -2.702904 3.093783 0
M  V30 27 H -0.201439 -3.184560 4.467686 0
M  V30 28 H 4.251890 -3.402949 0.805420 0
M  V30 29 H 3.718132 -3.471835 2.474401 0
M  V30 30 H 2.747890 -4.346026 1.199906 0
M  V30 31 H 2.128865 3.253058 -2.987904 0
M  V30 32 H 0.150653 4.580329 -2.638200 0
M  V30 33 H -1.399043 3.997228 -0.887742 0
M  V30 34 H -1.013233 2.124463 0.503394 0
M  V30 35 H 0.755658 0.236542 2.341605 0
M  V30 36 H -0.194563 -2.279800 -0.204748 0
M  V30 37 H -2.514261 -2.938868 -0.688351 0
M  V30 38 H -4.352128 -1.806879 0.513994 0
M  V30 39 H -3.932279 -0.082311 2.141499 0
M  V30 END ATOM
M  V30 BEGIN BOND
M  V30 1 1 1 2
M  V30 2 2 2 3
M  V30 3 1 2 4
M  V30 4 2 4 5
M  V30 5 1 5 6
M  V30 6 1 5 7
M  V30 7 2 7 8
M  V30 8 1 8 9
M  V30 9 1 9 10
M  V30 10 2 10 11
M  V30 11 1 11 12
M  V30 12 2 12 13
M  V30 13 1 13 14
M  V30 14 2 14 15
M  V30 15 1 15 16
M  V30 16 1 16 17
M  V30 17 1 17 18
M  V30 18 2 18 19
M  V30 19 1 19 20
M  V30 20 2 20 21
M  V30 21 1 21 22
M  V30 22 2 22 23
M  V30 23 1 23 24
M  V30 24 1 17 4
M  V30 25 1 23 18
M  V30 26 1 16 8
M  V30 27 1 15 10
M  V30 28 1 1 25
M  V30 29 1 1 26
M  V30 30 1 1 27
M  V30 31 1 6 28
M  V30 32 1 6 29
M  V30 33 1 6 30
M  V30 34 1 11 31
M  V30 35 1 12 32
M  V30 36 1 13 33
M  V30 37 1 14 34
M  V30 38 1 17 35
M  V30 39 1 19 36
M  V30 40 1 20 37
M  V30 41 1 21 38
M  V30 42 1 22 39
M  V30 END BOND
M  V30 END CTAB
M  END
>  <Dataset>  (720) 
ChEMBL_Kinases

>  <Ligand_Instance>  (720) 
nan

>  <PDB_ID>  (720) 
nan

>  <Standardized_SMILES>  (720) 
CC(=O)C1=C(C)N=C2Sc3ccccc3N2C1c1ccccc1Cl

>  <Name>  (720) 
nan

>  <Pocket>  (720) 
nan

>  <ATP_Site>  (720) 
nan

>  <Peripheral>  (720) 
nan

>  <Num_H_Atoms_ProtBoundConf>  (720) 
nan

>  <Num_Resolved_Atoms>  (720) 
nan

>  <Num_Not_Resolved_Atoms>  (720) 
nan

$$$$
CHEMBL361723
     RDKit          3D

  0  0  0  0  0  0  0  0  0  0999 V3000
M  V30 BEGIN CTAB
M  V30 COUNTS 53 58 0 0 0
M  V30 BEGIN ATOM
M  V30 1 C 5.308236 -6.464824 0.662871 0
M  V30 2 C 4.389081 -5.294926 0.702417 0
M  V30 3 C 4.908719 -4.062517 1.111698 0
M  V30 4 C 3.998922 -3.018731 1.145990 0
M  V30 5 C 2.675217 -3.229276 0.790494 0
M  V30 6 C 1.578715 -2.372206 0.738183 0
M  V30 7 C 1.684670 -0.972231 1.106101 0
M  V30 8 C 2.311257 -0.711148 2.320735 0
M  V30 9 C 2.513979 0.552983 2.826987 0
M  V30 10 N 2.087804 1.631642 2.126631 0
M  V30 11 C 1.471672 1.375816 0.938810 0
M  V30 12 N 0.864262 2.179828 -0.096539 0
M  V30 13 C -0.423675 2.587169 0.325554 0
M  V30 14 C -0.770190 2.731712 1.663434 0
M  V30 15 C -2.049648 3.096655 2.098175 0
M  V30 16 C -2.957045 3.304247 1.096292 0
M  V30 17 C -2.672220 3.174523 -0.262288 0
M  V30 18 C -1.388102 2.812037 -0.647693 0
M  V30 19 O -3.740616 3.430041 -1.128638 0
M  V30 20 C -5.017723 2.867314 -0.803666 0
M  V30 21 C -5.362729 3.086628 0.655610 0
M  V30 22 O -4.272523 3.671559 1.352274 0
M  V30 23 N 1.273842 0.130082 0.440470 0
M  V30 24 C 0.478120 -3.119559 0.307932 0
M  V30 25 C -0.882036 -2.609600 0.100498 0
M  V30 26 C -1.186670 -2.570043 -1.263814 0
M  V30 27 C -2.449250 -2.118346 -1.678985 0
M  V30 28 C -3.329117 -1.732182 -0.696735 0
M  V30 29 C -3.008402 -1.778601 0.638494 0
M  V30 30 C -1.773810 -2.220572 1.063627 0
M  V30 31 N 0.924498 -4.376862 0.116074 0
M  V30 32 N 2.231734 -4.435159 0.404134 0
M  V30 33 N 3.089983 -5.469184 0.360228 0
M  V30 34 H 6.203497 -6.241960 1.289575 0
M  V30 35 H 5.584410 -6.639471 -0.387945 0
M  V30 36 H 4.770973 -7.346784 1.074272 0
M  V30 37 H 5.946600 -3.924033 1.390410 0
M  V30 38 H 4.398871 -2.086620 1.456029 0
M  V30 39 H 2.690083 -1.475714 2.975551 0
M  V30 40 H 2.992597 0.787837 3.749709 0
M  V30 41 H 1.228541 2.458941 -1.011016 0
M  V30 42 H -0.045403 2.565247 2.449620 0
M  V30 43 H -2.304129 3.207592 3.139032 0
M  V30 44 H -1.182624 2.721405 -1.689726 0
M  V30 45 H -5.796284 3.296044 -1.465420 0
M  V30 46 H -4.956071 1.786221 -1.040980 0
M  V30 47 H -5.560169 2.095381 1.108317 0
M  V30 48 H -6.205960 3.788715 0.716201 0
M  V30 49 H -0.525408 -2.862798 -2.076436 0
M  V30 50 H -2.744966 -2.060560 -2.725669 0
M  V30 51 H -4.333588 -1.370267 -0.957739 0
M  V30 52 H -3.662294 -1.491213 1.462167 0
M  V30 53 H -1.419565 -2.298214 2.096296 0
M  V30 END ATOM
M  V30 BEGIN BOND
M  V30 1 1 1 2
M  V30 2 1 2 3
M  V30 3 2 3 4
M  V30 4 1 4 5
M  V30 5 2 5 6
M  V30 6 1 6 7
M  V30 7 2 7 8
M  V30 8 1 8 9
M  V30 9 2 9 10
M  V30 10 1 10 11
M  V30 11 1 11 12
M  V30 12 1 12 13
M  V30 13 2 13 14
M  V30 14 1 14 15
M  V30 15 2 15 16
M  V30 16 1 16 17
M  V30 17 2 17 18
M  V30 18 1 17 19
M  V30 19 1 19 20
M  V30 20 1 20 21
M  V30 21 1 21 22
M  V30 22 2 11 23
M  V30 23 1 6 24
M  V30 24 1 24 25
M  V30 25 2 25 26
M  V30 26 1 26 27
M  V30 27 2 27 28
M  V30 28 1 28 29
M  V30 29 2 29 30
M  V30 30 2 24 31
M  V30 31 1 31 32
M  V30 32 1 32 33
M  V30 33 2 33 2
M  V30 34 1 32 5
M  V30 35 1 23 7
M  V30 36 1 30 25
M  V30 37 1 18 13
M  V30 38 1 22 16
M  V30 39 1 1 34
M  V30 40 1 1 35
M  V30 41 1 1 36
M  V30 42 1 3 37
M  V30 43 1 4 38
M  V30 44 1 8 39
M  V30 45 1 9 40
M  V30 46 1 12 41
M  V30 47 1 14 42
M  V30 48 1 15 43
M  V30 49 1 18 44
M  V30 50 1 20 45
M  V30 51 1 20 46
M  V30 52 1 21 47
M  V30 53 1 21 48
M  V30 54 1 26 49
M  V30 55 1 27 50
M  V30 56 1 28 51
M  V30 57 1 29 52
M  V30 58 1 30 53
M  V30 END BOND
M  V30 END CTAB
M  END
>  <Dataset>  (721) 
ChEMBL_Kinases

>  <Ligand_Instance>  (721) 
nan

>  <PDB_ID>  (721) 
nan

>  <Standardized_SMILES>  (721) 
Cc1ccc2c(-c3ccnc(Nc4ccc5c(c4)OCCO5)n3)c(-c3ccccc3)nn2n1

>  <Name>  (721) 
nan

>  <Pocket>  (721) 
nan

>  <ATP_Site>  (721) 
nan

>  <Peripheral>  (721) 
nan

>  <Num_H_Atoms_ProtBoundConf>  (721) 
nan

>  <Num_Resolved_Atoms>  (721) 
nan

>  <Num_Not_Resolved_Atoms>  (721) 
nan

$$$$
CHEMBL3616960
     RDKit          3D

  0  0  0  0  0  0  0  0  0  0999 V3000
M  V30 BEGIN CTAB
M  V30 COUNTS 62 65 0 0 0
M  V30 BEGIN ATOM
M  V30 1 C 5.115555 -0.762191 4.325532 0
M  V30 2 C 3.969384 -1.420080 3.644570 0
M  V30 3 C 4.252645 -2.241756 2.572540 0
M  V30 4 C 3.162494 -2.852850 1.942799 0
M  V30 5 C 1.884211 -2.618825 2.402372 0
M  V30 6 N 0.884472 -3.308489 1.656340 0
M  V30 7 C 0.477390 -2.453502 0.606758 0
M  V30 8 O 1.086532 -1.351680 0.614390 0
M  V30 9 C -0.540899 -2.759491 -0.413777 0
M  V30 10 C -0.801237 -1.770384 -1.345277 0
M  V30 11 C -1.738688 -1.984815 -2.327703 0
M  V30 12 N -2.052983 -1.014014 -3.307143 0
M  V30 13 C -1.478777 0.309875 -3.399006 0
M  V30 14 C -2.540568 1.375857 -3.231965 0
M  V30 15 N -3.696973 1.196539 -4.042357 0
M  V30 16 C -3.776583 2.005531 -5.216745 0
M  V30 17 C -4.125037 -0.146143 -4.255457 0
M  V30 18 C -2.996942 -1.149904 -4.394114 0
M  V30 19 C -2.372682 -3.203267 -2.317748 0
M  V30 20 C -2.103586 -4.179705 -1.384163 0
M  V30 21 C -2.804300 -5.502802 -1.388016 0
M  V30 22 F -3.694459 -5.597872 -2.435233 0
M  V30 23 F -1.825745 -6.477862 -1.503691 0
M  V30 24 F -3.380800 -5.646203 -0.152389 0
M  V30 25 C -1.163272 -3.984995 -0.385749 0
M  V30 26 C 1.604406 -1.795983 3.475591 0
M  V30 27 C 2.670844 -1.200049 4.089180 0
M  V30 28 N 2.402657 -0.348450 5.194564 0
M  V30 29 C 2.210212 0.982910 4.689593 0
M  V30 30 O 2.283423 1.261300 3.464959 0
M  V30 31 C 1.911737 2.180516 5.468104 0
M  V30 32 C 2.580095 2.845303 6.460599 0
M  V30 33 N 1.880623 3.915180 6.865393 0
M  V30 34 O 0.795210 3.942566 6.158835 0
M  V30 35 C 0.756767 2.952397 5.323430 0
M  V30 36 C -0.390204 2.732653 4.373443 0
M  V30 37 H 5.945190 -1.476156 4.497436 0
M  V30 38 H 4.824387 -0.416801 5.349464 0
M  V30 39 H 5.539535 0.059316 3.719703 0
M  V30 40 H 5.257570 -2.413914 2.226210 0
M  V30 41 H 3.405947 -3.493927 1.103508 0
M  V30 42 H 0.415858 -4.257805 1.717585 0
M  V30 43 H -0.256227 -0.841222 -1.279273 0
M  V30 44 H -1.039990 0.459243 -4.412271 0
M  V30 45 H -0.690414 0.526284 -2.672634 0
M  V30 46 H -2.840403 1.399896 -2.153141 0
M  V30 47 H -2.065300 2.343993 -3.498580 0
M  V30 48 H -4.847124 2.348335 -5.323925 0
M  V30 49 H -3.537469 1.461173 -6.141594 0
M  V30 50 H -3.189825 2.935678 -5.154156 0
M  V30 51 H -4.852867 -0.453061 -3.471955 0
M  V30 52 H -4.636393 -0.158231 -5.262349 0
M  V30 53 H -2.506547 -0.881845 -5.378872 0
M  V30 54 H -3.464119 -2.134956 -4.446754 0
M  V30 55 H -3.127646 -3.502819 -3.028975 0
M  V30 56 H -0.971494 -4.753887 0.325581 0
M  V30 57 H 0.562168 -1.689655 3.744164 0
M  V30 58 H 2.312729 -0.433479 6.231724 0
M  V30 59 H 3.556998 2.496478 6.831636 0
M  V30 60 H -1.366700 2.820743 4.902994 0
M  V30 61 H -0.304533 1.781242 3.832346 0
M  V30 62 H -0.369431 3.523825 3.597373 0
M  V30 END ATOM
M  V30 BEGIN BOND
M  V30 1 1 1 2
M  V30 2 2 2 3
M  V30 3 1 3 4
M  V30 4 2 4 5
M  V30 5 1 5 6
M  V30 6 1 6 7
M  V30 7 2 7 8
M  V30 8 1 7 9
M  V30 9 2 9 10
M  V30 10 1 10 11
M  V30 11 1 11 12
M  V30 12 1 12 13
M  V30 13 1 13 14
M  V30 14 1 14 15
M  V30 15 1 15 16
M  V30 16 1 15 17
M  V30 17 1 17 18
M  V30 18 2 11 19
M  V30 19 1 19 20
M  V30 20 1 20 21
M  V30 21 1 21 22
M  V30 22 1 21 23
M  V30 23 1 21 24
M  V30 24 2 20 25
M  V30 25 1 5 26
M  V30 26 2 26 27
M  V30 27 1 27 28
M  V30 28 1 28 29
M  V30 29 2 29 30
M  V30 30 1 29 31
M  V30 31 1 31 32
M  V30 32 2 32 33
M  V30 33 1 33 34
M  V30 34 1 34 35
M  V30 35 1 35 36
M  V30 36 1 27 2
M  V30 37 2 35 31
M  V30 38 1 25 9
M  V30 39 1 18 12
M  V30 40 1 1 37
M  V30 41 1 1 38
M  V30 42 1 1 39
M  V30 43 1 3 40
M  V30 44 1 4 41
M  V30 45 1 6 42
M  V30 46 1 10 43
M  V30 47 1 13 44
M  V30 48 1 13 45
M  V30 49 1 14 46
M  V30 50 1 14 47
M  V30 51 1 16 48
M  V30 52 1 16 49
M  V30 53 1 16 50
M  V30 54 1 17 51
M  V30 55 1 17 52
M  V30 56 1 18 53
M  V30 57 1 18 54
M  V30 58 1 19 55
M  V30 59 1 25 56
M  V30 60 1 26 57
M  V30 61 1 28 58
M  V30 62 1 32 59
M  V30 63 1 36 60
M  V30 64 1 36 61
M  V30 65 1 36 62
M  V30 END BOND
M  V30 END CTAB
M  END
>  <Dataset>  (722) 
ChEMBL_Kinases

>  <Ligand_Instance>  (722) 
nan

>  <PDB_ID>  (722) 
nan

>  <Standardized_SMILES>  (722) 
Cc1ccc(NC(=O)c2cc(N3CCN(C)CC3)cc(C(F)(F)F)c2)cc1NC(=O)c1cnoc1C

>  <Name>  (722) 
nan

>  <Pocket>  (722) 
nan

>  <ATP_Site>  (722) 
nan

>  <Peripheral>  (722) 
nan

>  <Num_H_Atoms_ProtBoundConf>  (722) 
nan

>  <Num_Resolved_Atoms>  (722) 
nan

>  <Num_Not_Resolved_Atoms>  (722) 
nan

$$$$
CHEMBL361690
     RDKit          3D

  0  0  0  0  0  0  0  0  0  0999 V3000
M  V30 BEGIN CTAB
M  V30 COUNTS 21 23 0 0 0
M  V30 BEGIN ATOM
M  V30 1 N 1.162635 -2.420413 3.065140 0
M  V30 2 C 2.443481 -1.799690 2.862917 0
M  V30 3 N 3.658865 -2.042786 3.390458 0
M  V30 4 O 4.500121 -1.203529 2.884475 0
M  V30 5 N 3.881435 -0.407962 2.035062 0
M  V30 6 C 2.578699 -0.742271 1.983954 0
M  V30 7 C 1.573546 -0.084189 1.152431 0
M  V30 8 N 1.766276 0.961251 0.298881 0
M  V30 9 C 0.590409 1.272281 -0.277235 0
M  V30 10 C 0.122793 2.180497 -1.184661 0
M  V30 11 C -1.205747 2.224114 -1.569468 0
M  V30 12 N -2.134030 1.365680 -1.069779 0
M  V30 13 C -1.704278 0.459460 -0.173969 0
M  V30 14 C -0.404655 0.347113 0.262711 0
M  V30 15 N 0.258395 -0.449876 1.125024 0
M  V30 16 H 0.557334 -2.209002 3.888402 0
M  V30 17 H 0.666562 -3.125199 2.473975 0
M  V30 18 H 0.858934 2.876484 -1.594087 0
M  V30 19 H -1.563140 2.947952 -2.288659 0
M  V30 20 H -3.140922 1.383540 -1.348301 0
M  V30 21 H -2.418875 -0.248291 0.251288 0
M  V30 END ATOM
M  V30 BEGIN BOND
M  V30 1 1 1 2
M  V30 2 2 2 3
M  V30 3 1 3 4
M  V30 4 1 4 5
M  V30 5 2 5 6
M  V30 6 1 6 7
M  V30 7 1 7 8
M  V30 8 2 8 9
M  V30 9 1 9 10
M  V30 10 2 10 11
M  V30 11 1 11 12
M  V30 12 1 12 13
M  V30 13 2 13 14
M  V30 14 1 14 15
M  V30 15 1 6 2
M  V30 16 2 15 7
M  V30 17 1 14 9
M  V30 18 1 1 16
M  V30 19 1 1 17
M  V30 20 1 10 18
M  V30 21 1 11 19
M  V30 22 1 12 20
M  V30 23 1 13 21
M  V30 END BOND
M  V30 END CTAB
M  END
>  <Dataset>  (723) 
ChEMBL_Kinases

>  <Ligand_Instance>  (723) 
nan

>  <PDB_ID>  (723) 
nan

>  <Standardized_SMILES>  (723) 
Nc1nonc1-c1nc2cc[nH]cc-2n1

>  <Name>  (723) 
nan

>  <Pocket>  (723) 
nan

>  <ATP_Site>  (723) 
nan

>  <Peripheral>  (723) 
nan

>  <Num_H_Atoms_ProtBoundConf>  (723) 
nan

>  <Num_Resolved_Atoms>  (723) 
nan

>  <Num_Not_Resolved_Atoms>  (723) 
nan

$$$$
CHEMBL361678
     RDKit          3D

  0  0  0  0  0  0  0  0  0  0999 V3000
M  V30 BEGIN CTAB
M  V30 COUNTS 32 34 0 0 0
M  V30 BEGIN ATOM
M  V30 1 C -2.038690 -1.691794 2.185758 0
M  V30 2 C -1.761642 -1.247919 0.742708 0
M  V30 3 N -0.701238 -0.325732 0.616345 0
M  V30 4 C 0.580466 -0.571202 0.411782 0
M  V30 5 C 1.440226 -1.694828 0.230252 0
M  V30 6 C 1.427446 -3.043963 0.196437 0
M  V30 7 C 0.228189 -3.860395 0.387069 0
M  V30 8 N 2.662532 -3.574595 -0.025256 0
M  V30 9 N 3.500188 -2.563729 -0.138512 0
M  V30 10 C 2.807400 -1.450703 0.007858 0
M  V30 11 N 3.679905 -0.296245 -0.107038 0
M  V30 12 N 1.091240 0.669381 0.376890 0
M  V30 13 C 0.185997 1.627020 0.549299 0
M  V30 14 C 0.385679 2.981791 0.566643 0
M  V30 15 N -0.733829 3.727081 0.764598 0
M  V30 16 C -1.946561 3.156355 0.930264 0
M  V30 17 C -2.117396 1.780138 0.907748 0
M  V30 18 C -1.008372 0.985569 0.709667 0
M  V30 19 H -1.071994 -1.697089 2.769645 0
M  V30 20 H -2.798392 -1.067187 2.680531 0
M  V30 21 H -2.396287 -2.744893 2.231179 0
M  V30 22 H -1.728318 -2.122685 0.118963 0
M  V30 23 H -2.754071 -0.765659 0.446567 0
M  V30 24 H -0.345434 -3.793872 -0.584414 0
M  V30 25 H 0.552974 -4.950072 0.371410 0
M  V30 26 H -0.350077 -3.675431 1.284358 0
M  V30 27 H 4.467946 -2.870771 -0.310018 0
M  V30 28 H 3.485993 0.677872 0.267341 0
M  V30 29 H 3.469170 0.654220 0.269163 0
M  V30 30 H 1.370217 3.396745 0.430455 0
M  V30 31 H -2.829649 3.757546 1.086878 0
M  V30 32 H -3.055732 1.250750 1.032804 0
M  V30 END ATOM
M  V30 BEGIN BOND
M  V30 1 1 1 2
M  V30 2 1 2 3
M  V30 3 1 3 4
M  V30 4 1 4 5
M  V30 5 1 5 6
M  V30 6 1 6 7
M  V30 7 2 6 8
M  V30 8 1 8 9
M  V30 9 1 9 10
M  V30 10 1 10 11
M  V30 11 2 4 12
M  V30 12 1 12 13
M  V30 13 2 13 14
M  V30 14 1 14 15
M  V30 15 2 15 16
M  V30 16 1 16 17
M  V30 17 2 17 18
M  V30 18 1 18 3
M  V30 19 2 10 5
M  V30 20 1 18 13
M  V30 21 1 1 19
M  V30 22 1 1 20
M  V30 23 1 1 21
M  V30 24 1 2 22
M  V30 25 1 2 23
M  V30 26 1 7 24
M  V30 27 1 7 25
M  V30 28 1 7 26
M  V30 29 1 9 27
M  V30 30 1 11 28
M  V30 31 1 11 29
M  V30 32 1 14 30
M  V30 33 1 16 31
M  V30 34 1 17 32
M  V30 END BOND
M  V30 END CTAB
M  END
>  <Dataset>  (724) 
ChEMBL_Kinases

>  <Ligand_Instance>  (724) 
nan

>  <PDB_ID>  (724) 
nan

>  <Standardized_SMILES>  (724) 
CCn1c(-c2c(C)n[nH]c2N)nc2cnccc21

>  <Name>  (724) 
nan

>  <Pocket>  (724) 
nan

>  <ATP_Site>  (724) 
nan

>  <Peripheral>  (724) 
nan

>  <Num_H_Atoms_ProtBoundConf>  (724) 
nan

>  <Num_Resolved_Atoms>  (724) 
nan

>  <Num_Not_Resolved_Atoms>  (724) 
nan

$$$$
CHEMBL361652
     RDKit          3D

  0  0  0  0  0  0  0  0  0  0999 V3000
M  V30 BEGIN CTAB
M  V30 COUNTS 42 43 0 0 0
M  V30 BEGIN ATOM
M  V30 1 C -1.177943 -4.171505 -1.189832 0
M  V30 2 C -1.410652 -2.926383 -2.019890 0
M  V30 3 C -1.117370 -1.668497 -1.193262 0
M  V30 4 C -2.052471 -1.709901 -0.031693 0
M  V30 5 C -1.943079 -0.561479 0.926373 0
M  V30 6 N -2.916951 -0.750346 1.996657 0
M  V30 7 C -0.631423 -0.427842 1.559922 0
M  V30 8 C 0.372472 0.334154 1.001680 0
M  V30 9 C 1.615719 0.519558 1.509384 0
M  V30 10 C 2.716483 1.299432 0.985348 0
M  V30 11 C 3.894301 1.325128 1.703819 0
M  V30 12 C 5.005219 2.034214 1.298282 0
M  V30 13 C 4.985251 2.764742 0.129968 0
M  V30 14 C 3.824275 2.760537 -0.611638 0
M  V30 15 C 2.761296 2.042387 -0.160869 0
M  V30 16 O 1.635120 2.090273 -0.962446 0
M  V30 17 N 1.814534 -0.132930 2.669230 0
M  V30 18 C 0.883988 -0.893943 3.273166 0
M  V30 19 N 1.240466 -1.523074 4.497644 0
M  V30 20 C -0.377616 -1.076247 2.748733 0
M  V30 21 C -1.347364 -1.893226 3.415902 0
M  V30 22 N -2.126449 -2.569825 3.944857 0
M  V30 23 H -2.090702 -4.467723 -0.632622 0
M  V30 24 H -0.323505 -4.062238 -0.508911 0
M  V30 25 H -0.913686 -5.029283 -1.857368 0
M  V30 26 H -2.506266 -2.893024 -2.211103 0
M  V30 27 H -0.905720 -2.928246 -2.989011 0
M  V30 28 H -1.303197 -0.811547 -1.878023 0
M  V30 29 H -0.059799 -1.695114 -0.927638 0
M  V30 30 H -3.092270 -1.743076 -0.416872 0
M  V30 31 H -1.886262 -2.683389 0.490730 0
M  V30 32 H -2.232037 0.369405 0.405382 0
M  V30 33 H -2.919935 0.094308 2.626410 0
M  V30 34 H -3.837741 -0.914416 1.542527 0
M  V30 35 H 0.124493 0.817013 0.078403 0
M  V30 36 H 4.023294 0.778887 2.650919 0
M  V30 37 H 5.906310 2.036860 1.874868 0
M  V30 38 H 5.858940 3.318732 -0.183142 0
M  V30 39 H 3.810790 3.328533 -1.518701 0
M  V30 40 H 1.706780 1.708850 -1.898830 0
M  V30 41 H 1.327831 -1.360412 5.529370 0
M  V30 42 H 1.529768 -2.521892 4.363990 0
M  V30 END ATOM
M  V30 BEGIN BOND
M  V30 1 1 1 2
M  V30 2 1 2 3
M  V30 3 1 3 4
M  V30 4 1 4 5
M  V30 5 1 5 6
M  V30 6 1 5 7
M  V30 7 2 7 8
M  V30 8 1 8 9
M  V30 9 1 9 10
M  V30 10 2 10 11
M  V30 11 1 11 12
M  V30 12 2 12 13
M  V30 13 1 13 14
M  V30 14 2 14 15
M  V30 15 1 15 16
M  V30 16 2 9 17
M  V30 17 1 17 18
M  V30 18 1 18 19
M  V30 19 2 18 20
M  V30 20 1 20 21
M  V30 21 3 21 22
M  V30 22 1 20 7
M  V30 23 1 15 10
M  V30 24 1 1 23
M  V30 25 1 1 24
M  V30 26 1 1 25
M  V30 27 1 2 26
M  V30 28 1 2 27
M  V30 29 1 3 28
M  V30 30 1 3 29
M  V30 31 1 4 30
M  V30 32 1 4 31
M  V30 33 1 5 32
M  V30 34 1 6 33
M  V30 35 1 6 34
M  V30 36 1 8 35
M  V30 37 1 11 36
M  V30 38 1 12 37
M  V30 39 1 13 38
M  V30 40 1 14 39
M  V30 41 1 16 40
M  V30 42 1 19 41
M  V30 43 1 19 42
M  V30 END BOND
M  V30 END CTAB
M  END
>  <Dataset>  (725) 
ChEMBL_Kinases

>  <Ligand_Instance>  (725) 
nan

>  <PDB_ID>  (725) 
nan

>  <Standardized_SMILES>  (725) 
CCCCC(N)c1cc(-c2ccccc2O)nc(N)c1C#N

>  <Name>  (725) 
nan

>  <Pocket>  (725) 
nan

>  <ATP_Site>  (725) 
nan

>  <Peripheral>  (725) 
nan

>  <Num_H_Atoms_ProtBoundConf>  (725) 
nan

>  <Num_Resolved_Atoms>  (725) 
nan

>  <Num_Not_Resolved_Atoms>  (725) 
nan

$$$$
CHEMBL361567
     RDKit          3D

  0  0  0  0  0  0  0  0  0  0999 V3000
M  V30 BEGIN CTAB
M  V30 COUNTS 38 41 0 0 0
M  V30 BEGIN ATOM
M  V30 1 C -0.564768 -5.556412 3.268920 0
M  V30 2 O 0.570741 -4.739598 3.344177 0
M  V30 3 C 0.833478 -3.674789 2.479323 0
M  V30 4 C 2.010978 -2.957594 2.688285 0
M  V30 5 C 2.339509 -1.891205 1.873868 0
M  V30 6 C 1.492777 -1.536497 0.846697 0
M  V30 7 C 1.685312 -0.445360 -0.100376 0
M  V30 8 O 2.581073 -0.151245 -0.999651 0
M  V30 9 C 2.304742 0.966039 -1.608101 0
M  V30 10 N 2.912838 1.671317 -2.589659 0
M  V30 11 C 2.412647 2.833791 -3.060755 0
M  V30 12 N 1.273299 3.365530 -2.581142 0
M  V30 13 C 0.634529 2.701625 -1.606432 0
M  V30 14 N -0.583392 3.216987 -1.054908 0
M  V30 15 C 1.135972 1.512205 -1.116683 0
M  V30 16 C 0.746994 0.589988 -0.143431 0
M  V30 17 C -0.478636 0.770753 0.661057 0
M  V30 18 C -1.706727 0.803078 0.018608 0
M  V30 19 C -2.785489 0.979573 0.890073 0
M  V30 20 C -2.590333 1.104246 2.251490 0
M  V30 21 N -1.357163 1.060930 2.791638 0
M  V30 22 C -0.264092 0.892266 2.007013 0
M  V30 23 C 0.305211 -2.241412 0.617597 0
M  V30 24 C -0.011800 -3.318582 1.451961 0
M  V30 25 H -0.635011 -6.085516 4.263612 0
M  V30 26 H -1.496557 -5.020474 3.032388 0
M  V30 27 H -0.432744 -6.358579 2.519183 0
M  V30 28 H 2.706009 -3.192116 3.474188 0
M  V30 29 H 3.221464 -1.292280 1.968186 0
M  V30 30 H 2.900020 3.400782 -3.849055 0
M  V30 31 H -0.444036 3.412302 -0.031957 0
M  V30 32 H -1.555160 3.449021 -1.382385 0
M  V30 33 H -1.798964 0.699880 -1.054993 0
M  V30 34 H -3.769483 1.008168 0.399777 0
M  V30 35 H -3.481857 1.236775 2.846660 0
M  V30 36 H 0.705623 0.860323 2.454092 0
M  V30 37 H -0.404206 -2.005200 -0.181122 0
M  V30 38 H -0.938075 -3.889853 1.294037 0
M  V30 END ATOM
M  V30 BEGIN BOND
M  V30 1 1 1 2
M  V30 2 1 2 3
M  V30 3 2 3 4
M  V30 4 1 4 5
M  V30 5 2 5 6
M  V30 6 1 6 7
M  V30 7 1 7 8
M  V30 8 1 8 9
M  V30 9 2 9 10
M  V30 10 1 10 11
M  V30 11 2 11 12
M  V30 12 1 12 13
M  V30 13 1 13 14
M  V30 14 2 13 15
M  V30 15 1 15 16
M  V30 16 1 16 17
M  V30 17 2 17 18
M  V30 18 1 18 19
M  V30 19 2 19 20
M  V30 20 1 20 21
M  V30 21 2 21 22
M  V30 22 1 6 23
M  V30 23 2 23 24
M  V30 24 1 24 3
M  V30 25 2 16 7
M  V30 26 1 22 17
M  V30 27 1 15 9
M  V30 28 1 1 25
M  V30 29 1 1 26
M  V30 30 1 1 27
M  V30 31 1 4 28
M  V30 32 1 5 29
M  V30 33 1 11 30
M  V30 34 1 14 31
M  V30 35 1 14 32
M  V30 36 1 18 33
M  V30 37 1 19 34
M  V30 38 1 20 35
M  V30 39 1 22 36
M  V30 40 1 23 37
M  V30 41 1 24 38
M  V30 END BOND
M  V30 END CTAB
M  END
>  <Dataset>  (726) 
ChEMBL_Kinases

>  <Ligand_Instance>  (726) 
nan

>  <PDB_ID>  (726) 
nan

>  <Standardized_SMILES>  (726) 
COc1ccc(-c2oc3ncnc(N)c3c2-c2cccnc2)cc1

>  <Name>  (726) 
nan

>  <Pocket>  (726) 
nan

>  <ATP_Site>  (726) 
nan

>  <Peripheral>  (726) 
nan

>  <Num_H_Atoms_ProtBoundConf>  (726) 
nan

>  <Num_Resolved_Atoms>  (726) 
nan

>  <Num_Not_Resolved_Atoms>  (726) 
nan

$$$$
CHEMBL361548
     RDKit          3D

  0  0  0  0  0  0  0  0  0  0999 V3000
M  V30 BEGIN CTAB
M  V30 COUNTS 56 58 0 0 0
M  V30 BEGIN ATOM
M  V30 1 C -0.070482 0.152238 3.148319 0
M  V30 2 C 0.423250 -0.811585 4.181434 0
M  V30 3 C 1.746742 -0.512738 4.765647 0
M  V30 4 C 2.983238 -0.589337 3.992500 0
M  V30 5 C 3.140718 0.206120 2.764111 0
M  V30 6 O 2.324905 -0.226478 1.718713 0
M  V30 7 C 2.355797 0.411274 0.468796 0
M  V30 8 C 3.211194 1.506774 0.313790 0
M  V30 9 C 3.387286 2.265340 -0.823041 0
M  V30 10 C 2.634218 1.894905 -1.917881 0
M  V30 11 C 1.774834 0.821152 -1.818324 0
M  V30 12 O 1.011429 0.447897 -2.932906 0
M  V30 13 C 1.641070 0.098941 -0.652666 0
M  V30 14 C 0.722904 -1.019102 -0.637882 0
M  V30 15 C -0.640813 -0.883967 -0.531072 0
M  V30 16 C -1.511200 -1.945142 -0.550599 0
M  V30 17 C -2.976942 -1.976182 -0.445893 0
M  V30 18 C -3.672121 -1.949294 -1.781873 0
M  V30 19 C -3.182580 -0.810296 -2.621966 0
M  V30 20 N -3.395143 0.410195 -1.901715 0
M  V30 21 C -4.054185 0.228804 -0.645032 0
M  V30 22 C -3.412290 -0.745989 0.298369 0
M  V30 23 C -0.929510 -3.204097 -0.687835 0
M  V30 24 C -1.688782 -4.422846 -0.727214 0
M  V30 25 N -2.288347 -5.406594 -0.750168 0
M  V30 26 C 0.440664 -3.324954 -0.793984 0
M  V30 27 N 1.080615 -4.603643 -0.936806 0
M  V30 28 N 1.248199 -2.249934 -0.769025 0
M  V30 29 H 0.542755 1.068487 3.120381 0
M  V30 30 H -1.077908 0.554994 3.538260 0
M  V30 31 H -0.253169 -0.303747 2.167705 0
M  V30 32 H 0.390876 -1.845782 3.716760 0
M  V30 33 H -0.313739 -0.869703 5.030423 0
M  V30 34 H 1.738072 0.540281 5.230923 0
M  V30 35 H 1.894939 -1.154262 5.704376 0
M  V30 36 H 3.196734 -1.711365 3.738755 0
M  V30 37 H 3.844290 -0.374422 4.720646 0
M  V30 38 H 2.984374 1.294325 2.998221 0
M  V30 39 H 4.225371 0.162701 2.474038 0
M  V30 40 H 3.809668 1.798869 1.188700 0
M  V30 41 H 4.084328 3.091501 -0.811423 0
M  V30 42 H 2.730325 2.454431 -2.839476 0
M  V30 43 H 0.436722 1.147606 -3.396376 0
M  V30 44 H -1.085349 0.091842 -0.423181 0
M  V30 45 H -3.324853 -2.882938 0.125388 0
M  V30 46 H -4.753083 -1.795769 -1.592246 0
M  V30 47 H -3.619539 -2.926811 -2.306683 0
M  V30 48 H -3.677918 -0.759997 -3.607450 0
M  V30 49 H -2.088575 -0.918074 -2.779860 0
M  V30 50 H -3.990266 1.037158 -2.469943 0
M  V30 51 H -4.047848 1.256854 -0.161667 0
M  V30 52 H -5.130652 0.020075 -0.835693 0
M  V30 53 H -2.578940 -0.287969 0.876217 0
M  V30 54 H -4.213039 -1.055502 1.045688 0
M  V30 55 H 1.849968 -4.984740 -0.326484 0
M  V30 56 H 0.745290 -5.215371 -1.728947 0
M  V30 END ATOM
M  V30 BEGIN BOND
M  V30 1 1 1 2
M  V30 2 1 2 3
M  V30 3 1 3 4
M  V30 4 1 4 5
M  V30 5 1 5 6
M  V30 6 1 6 7
M  V30 7 2 7 8
M  V30 8 1 8 9
M  V30 9 2 9 10
M  V30 10 1 10 11
M  V30 11 1 11 12
M  V30 12 2 11 13
M  V30 13 1 13 14
M  V30 14 2 14 15
M  V30 15 1 15 16
M  V30 16 1 16 17
M  V30 17 1 17 18
M  V30 18 1 18 19
M  V30 19 1 19 20
M  V30 20 1 20 21
M  V30 21 1 21 22
M  V30 22 2 16 23
M  V30 23 1 23 24
M  V30 24 3 24 25
M  V30 25 1 23 26
M  V30 26 1 26 27
M  V30 27 2 26 28
M  V30 28 1 13 7
M  V30 29 1 28 14
M  V30 30 1 22 17
M  V30 31 1 1 29
M  V30 32 1 1 30
M  V30 33 1 1 31
M  V30 34 1 2 32
M  V30 35 1 2 33
M  V30 36 1 3 34
M  V30 37 1 3 35
M  V30 38 1 4 36
M  V30 39 1 4 37
M  V30 40 1 5 38
M  V30 41 1 5 39
M  V30 42 1 8 40
M  V30 43 1 9 41
M  V30 44 1 10 42
M  V30 45 1 12 43
M  V30 46 1 15 44
M  V30 47 1 17 45
M  V30 48 1 18 46
M  V30 49 1 18 47
M  V30 50 1 19 48
M  V30 51 1 19 49
M  V30 52 1 20 50
M  V30 53 1 21 51
M  V30 54 1 21 52
M  V30 55 1 22 53
M  V30 56 1 22 54
M  V30 57 1 27 55
M  V30 58 1 27 56
M  V30 END BOND
M  V30 END CTAB
M  END
>  <Dataset>  (727) 
ChEMBL_Kinases

>  <Ligand_Instance>  (727) 
nan

>  <PDB_ID>  (727) 
nan

>  <Standardized_SMILES>  (727) 
CCCCCOc1cccc(O)c1-c1cc(C2CCNCC2)c(C#N)c(N)n1

>  <Name>  (727) 
nan

>  <Pocket>  (727) 
nan

>  <ATP_Site>  (727) 
nan

>  <Peripheral>  (727) 
nan

>  <Num_H_Atoms_ProtBoundConf>  (727) 
nan

>  <Num_Resolved_Atoms>  (727) 
nan

>  <Num_Not_Resolved_Atoms>  (727) 
nan

$$$$
CHEMBL361431
     RDKit          3D

  0  0  0  0  0  0  0  0  0  0999 V3000
M  V30 BEGIN CTAB
M  V30 COUNTS 77 81 0 0 0
M  V30 BEGIN ATOM
M  V30 1 C 3.607264 -1.332627 6.679718 0
M  V30 2 C 2.146343 -0.926055 6.652485 0
M  V30 3 C 1.566929 -1.522486 5.378707 0
M  V30 4 N 2.324128 -0.946729 4.267214 0
M  V30 5 C 1.852272 -1.470177 2.997185 0
M  V30 6 C 2.823159 -1.008535 1.917166 0
M  V30 7 C 2.793790 0.499077 1.839822 0
M  V30 8 O 2.255822 0.876938 0.598614 0
M  V30 9 C 2.932328 1.743725 -0.257990 0
M  V30 10 N 4.130096 2.334761 -0.076968 0
M  V30 11 C 4.568221 3.135252 -1.060532 0
M  V30 12 C 3.824845 3.338210 -2.197055 0
M  V30 13 C 2.583850 2.733392 -2.398893 0
M  V30 14 N 1.853499 2.979394 -3.588944 0
M  V30 15 C 0.599143 2.434718 -3.959074 0
M  V30 16 C -0.137523 1.552702 -3.218460 0
M  V30 17 C -1.356949 1.010181 -3.555669 0
M  V30 18 N -2.041567 0.082873 -2.682819 0
M  V30 19 C -1.583879 -1.215384 -3.044539 0
M  V30 20 O -0.747912 -1.203033 -3.983016 0
M  V30 21 C -1.985787 -2.482588 -2.445401 0
M  V30 22 C -1.372175 -3.602897 -2.968423 0
M  V30 23 C -1.711021 -4.832694 -2.435826 0
M  V30 24 C -2.636234 -4.900947 -1.416008 0
M  V30 25 C -3.262984 -3.803285 -0.875748 0
M  V30 26 N -4.212450 -3.842911 0.179978 0
M  V30 27 C -5.023303 -2.740290 0.622827 0
M  V30 28 C -4.663480 -2.473088 2.085703 0
M  V30 29 O -4.810782 -3.619342 2.853327 0
M  V30 30 C -4.004411 -4.645748 2.397008 0
M  V30 31 C -4.508962 -5.005240 0.992839 0
M  V30 32 C -2.905233 -2.601627 -1.425046 0
M  V30 33 C -1.893533 1.406072 -4.782847 0
M  V30 34 C -1.193107 2.293702 -5.569952 0
M  V30 35 C 0.019253 2.785247 -5.154643 0
M  V30 36 C 0.738363 3.747061 -6.045948 0
M  V30 37 N 2.234849 1.957804 -1.367052 0
M  V30 38 C 1.871601 1.072774 2.914870 0
M  V30 39 C 2.129748 0.471442 4.269309 0
M  V30 40 H 3.776124 -2.234341 6.056934 0
M  V30 41 H 4.200755 -0.523884 6.210507 0
M  V30 42 H 3.947697 -1.557921 7.716423 0
M  V30 43 H 1.612717 -1.332956 7.554090 0
M  V30 44 H 2.110795 0.171535 6.659831 0
M  V30 45 H 0.480051 -1.228319 5.300549 0
M  V30 46 H 1.681026 -2.609171 5.458864 0
M  V30 47 H 1.750932 -2.556849 2.993319 0
M  V30 48 H 0.866409 -1.039394 2.804918 0
M  V30 49 H 3.846673 -1.369916 2.139339 0
M  V30 50 H 2.531695 -1.477457 0.954639 0
M  V30 51 H 3.784924 0.917273 2.054937 0
M  V30 52 H 5.517640 3.598704 -0.906081 0
M  V30 53 H 4.278275 4.004944 -2.925704 0
M  V30 54 H 2.301509 3.642107 -4.262925 0
M  V30 55 H 0.230311 1.213440 -2.263191 0
M  V30 56 H -2.738335 0.138308 -1.909190 0
M  V30 57 H -0.643843 -3.577070 -3.766015 0
M  V30 58 H -1.242973 -5.729542 -2.830342 0
M  V30 59 H -2.859200 -5.886153 -1.044307 0
M  V30 60 H -4.900224 -1.806776 0.081857 0
M  V30 61 H -6.104674 -3.064005 0.669130 0
M  V30 62 H -5.417428 -1.735078 2.432149 0
M  V30 63 H -3.625942 -2.094011 2.085721 0
M  V30 64 H -4.040554 -5.503814 3.071866 0
M  V30 65 H -2.970738 -4.235481 2.299513 0
M  V30 66 H -3.951948 -5.873785 0.640493 0
M  V30 67 H -5.606635 -5.174733 1.030210 0
M  V30 68 H -3.295031 -1.642332 -1.123254 0
M  V30 69 H -2.849332 1.003330 -5.086846 0
M  V30 70 H -1.613497 2.600091 -6.523205 0
M  V30 71 H 1.791535 3.413171 -6.225228 0
M  V30 72 H 0.254701 3.745489 -7.039391 0
M  V30 73 H 0.787803 4.732669 -5.582299 0
M  V30 74 H 0.818391 1.034651 2.604057 0
M  V30 75 H 2.140946 2.167316 2.955207 0
M  V30 76 H 1.230570 0.714692 4.898298 0
M  V30 77 H 2.976403 0.962639 4.784884 0
M  V30 END ATOM
M  V30 BEGIN BOND
M  V30 1 1 1 2
M  V30 2 1 2 3
M  V30 3 1 3 4
M  V30 4 1 4 5
M  V30 5 1 5 6
M  V30 6 1 6 7
M  V30 7 1 7 8
M  V30 8 1 8 9
M  V30 9 2 9 10
M  V30 10 1 10 11
M  V30 11 2 11 12
M  V30 12 1 12 13
M  V30 13 1 13 14
M  V30 14 1 14 15
M  V30 15 2 15 16
M  V30 16 1 16 17
M  V30 17 1 17 18
M  V30 18 1 18 19
M  V30 19 2 19 20
M  V30 20 1 19 21
M  V30 21 2 21 22
M  V30 22 1 22 23
M  V30 23 2 23 24
M  V30 24 1 24 25
M  V30 25 1 25 26
M  V30 26 1 26 27
M  V30 27 1 27 28
M  V30 28 1 28 29
M  V30 29 1 29 30
M  V30 30 1 30 31
M  V30 31 2 25 32
M  V30 32 2 17 33
M  V30 33 1 33 34
M  V30 34 2 34 35
M  V30 35 1 35 36
M  V30 36 2 13 37
M  V30 37 1 7 38
M  V30 38 1 38 39
M  V30 39 1 39 4
M  V30 40 1 37 9
M  V30 41 1 35 15
M  V30 42 1 32 21
M  V30 43 1 31 26
M  V30 44 1 1 40
M  V30 45 1 1 41
M  V30 46 1 1 42
M  V30 47 1 2 43
M  V30 48 1 2 44
M  V30 49 1 3 45
M  V30 50 1 3 46
M  V30 51 1 5 47
M  V30 52 1 5 48
M  V30 53 1 6 49
M  V30 54 1 6 50
M  V30 55 1 7 51
M  V30 56 1 11 52
M  V30 57 1 12 53
M  V30 58 1 14 54
M  V30 59 1 16 55
M  V30 60 1 18 56
M  V30 61 1 22 57
M  V30 62 1 23 58
M  V30 63 1 24 59
M  V30 64 1 27 60
M  V30 65 1 27 61
M  V30 66 1 28 62
M  V30 67 1 28 63
M  V30 68 1 30 64
M  V30 69 1 30 65
M  V30 70 1 31 66
M  V30 71 1 31 67
M  V30 72 1 32 68
M  V30 73 1 33 69
M  V30 74 1 34 70
M  V30 75 1 36 71
M  V30 76 1 36 72
M  V30 77 1 36 73
M  V30 78 1 38 74
M  V30 79 1 38 75
M  V30 80 1 39 76
M  V30 81 1 39 77
M  V30 END BOND
M  V30 END CTAB
M  END
>  <Dataset>  (728) 
ChEMBL_Kinases

>  <Ligand_Instance>  (728) 
nan

>  <PDB_ID>  (728) 
nan

>  <Standardized_SMILES>  (728) 
CCCN1CCC(Oc2nccc(Nc3cc(NC(=O)c4cccc(N5CCOCC5)c4)ccc3C)n2)CC1

>  <Name>  (728) 
nan

>  <Pocket>  (728) 
nan

>  <ATP_Site>  (728) 
nan

>  <Peripheral>  (728) 
nan

>  <Num_H_Atoms_ProtBoundConf>  (728) 
nan

>  <Num_Resolved_Atoms>  (728) 
nan

>  <Num_Not_Resolved_Atoms>  (728) 
nan

$$$$
CHEMBL361391
     RDKit          3D

  0  0  0  0  0  0  0  0  0  0999 V3000
M  V30 BEGIN CTAB
M  V30 COUNTS 63 68 0 0 0
M  V30 BEGIN ATOM
M  V30 1 N 4.403874 -2.959921 7.755286 0
M  V30 2 C 3.998392 -2.621440 6.728567 0
M  V30 3 C 3.488825 -2.219862 5.431279 0
M  V30 4 C 3.979446 -2.771522 4.254558 0
M  V30 5 N 3.488111 -2.381396 3.048591 0
M  V30 6 C 2.512800 -1.450123 2.959635 0
M  V30 7 C 2.070467 -1.117849 1.618279 0
M  V30 8 C 2.195058 0.155406 1.074619 0
M  V30 9 C 1.763369 0.424324 -0.199992 0
M  V30 10 C 1.184517 -0.539865 -1.015086 0
M  V30 11 C 0.689026 -0.359030 -2.387698 0
M  V30 12 N -0.699111 -0.003180 -2.355778 0
M  V30 13 C -0.915881 1.230700 -1.632904 0
M  V30 14 C -2.364036 1.663425 -1.631638 0
M  V30 15 C -3.121575 0.541493 -2.383870 0
M  V30 16 N -2.894171 -0.645251 -1.642481 0
M  V30 17 C -2.828245 -0.649814 -0.274865 0
M  V30 18 N -2.604542 -1.882752 0.204672 0
M  V30 19 C -2.512344 -2.750005 -0.818630 0
M  V30 20 C -2.300065 -4.101735 -0.957480 0
M  V30 21 C -2.260955 -4.715519 -2.198316 0
M  V30 22 C -2.446784 -3.900409 -3.301672 0
M  V30 23 C -2.656017 -2.563181 -3.149834 0
M  V30 24 C -2.696255 -1.944136 -1.920657 0
M  V30 25 C -2.512979 0.614315 -3.762162 0
M  V30 26 C -1.057528 0.268694 -3.758019 0
M  V30 27 C 1.089067 -1.792280 -0.411609 0
M  V30 28 C 1.504076 -2.123915 0.862686 0
M  V30 29 C 2.017760 -0.895255 4.120334 0
M  V30 30 C 0.971633 0.102408 3.992295 0
M  V30 31 C 1.323540 1.342816 4.491958 0
M  V30 32 C 0.447678 2.420170 4.455348 0
M  V30 33 C -0.782730 2.156362 3.888678 0
M  V30 34 C -1.178396 0.936538 3.377507 0
M  V30 35 C -0.276537 -0.095218 3.437807 0
M  V30 36 C 2.485411 -1.259415 5.375385 0
M  V30 37 H 4.765120 -3.518546 4.379471 0
M  V30 38 H 2.639843 0.916723 1.686166 0
M  V30 39 H 1.854254 1.411033 -0.636284 0
M  V30 40 H 1.301879 0.349860 -2.981618 0
M  V30 41 H 0.763258 -1.360847 -2.898415 0
M  V30 42 H -0.292337 2.055004 -2.076631 0
M  V30 43 H -0.560354 1.080046 -0.592991 0
M  V30 44 H -2.516275 2.625773 -2.149339 0
M  V30 45 H -2.691147 1.758002 -0.591430 0
M  V30 46 H -4.166298 0.861977 -2.467884 0
M  V30 47 H -2.911939 0.086558 0.511216 0
M  V30 48 H -2.173292 -4.605383 -0.023003 0
M  V30 49 H -2.085712 -5.790686 -2.174525 0
M  V30 50 H -2.409501 -4.418520 -4.249161 0
M  V30 51 H -2.790082 -2.021816 -4.047178 0
M  V30 52 H -3.111065 0.206839 -4.572487 0
M  V30 53 H -2.522084 1.733399 -3.994818 0
M  V30 54 H -0.801124 -0.588958 -4.406729 0
M  V30 55 H -0.380800 1.091564 -4.064066 0
M  V30 56 H 0.640863 -2.591968 -1.006696 0
M  V30 57 H 1.371725 -3.140378 1.212802 0
M  V30 58 H 2.297701 1.564557 4.945152 0
M  V30 59 H 0.692827 3.403733 4.837804 0
M  V30 60 H -1.503809 2.971377 3.837957 0
M  V30 61 H -2.156022 0.778506 2.942230 0
M  V30 62 H -0.485187 -1.105273 3.062673 0
M  V30 63 H 2.069195 -0.798718 6.263282 0
M  V30 END ATOM
M  V30 BEGIN BOND
M  V30 1 3 1 2
M  V30 2 1 2 3
M  V30 3 2 3 4
M  V30 4 1 4 5
M  V30 5 2 5 6
M  V30 6 1 6 7
M  V30 7 2 7 8
M  V30 8 1 8 9
M  V30 9 2 9 10
M  V30 10 1 10 11
M  V30 11 1 11 12
M  V30 12 1 12 13
M  V30 13 1 13 14
M  V30 14 1 14 15
M  V30 15 1 15 16
M  V30 16 1 16 17
M  V30 17 2 17 18
M  V30 18 1 18 19
M  V30 19 2 19 20
M  V30 20 1 20 21
M  V30 21 2 21 22
M  V30 22 1 22 23
M  V30 23 2 23 24
M  V30 24 1 15 25
M  V30 25 1 25 26
M  V30 26 1 10 27
M  V30 27 2 27 28
M  V30 28 1 6 29
M  V30 29 1 29 30
M  V30 30 2 30 31
M  V30 31 1 31 32
M  V30 32 2 32 33
M  V30 33 1 33 34
M  V30 34 2 34 35
M  V30 35 2 29 36
M  V30 36 1 36 3
M  V30 37 1 28 7
M  V30 38 1 35 30
M  V30 39 1 26 12
M  V30 40 1 24 16
M  V30 41 1 24 19
M  V30 42 1 4 37
M  V30 43 1 8 38
M  V30 44 1 9 39
M  V30 45 1 11 40
M  V30 46 1 11 41
M  V30 47 1 13 42
M  V30 48 1 13 43
M  V30 49 1 14 44
M  V30 50 1 14 45
M  V30 51 1 15 46
M  V30 52 1 17 47
M  V30 53 1 20 48
M  V30 54 1 21 49
M  V30 55 1 22 50
M  V30 56 1 23 51
M  V30 57 1 25 52
M  V30 58 1 25 53
M  V30 59 1 26 54
M  V30 60 1 26 55
M  V30 61 1 27 56
M  V30 62 1 28 57
M  V30 63 1 31 58
M  V30 64 1 32 59
M  V30 65 1 33 60
M  V30 66 1 34 61
M  V30 67 1 35 62
M  V30 68 1 36 63
M  V30 END BOND
M  V30 END CTAB
M  END
>  <Dataset>  (729) 
ChEMBL_Kinases

>  <Ligand_Instance>  (729) 
nan

>  <PDB_ID>  (729) 
nan

>  <Standardized_SMILES>  (729) 
N#Cc1cnc(-c2ccc(CN3CCC(n4cnc5ccccc54)CC3)cc2)c(-c2ccccc2)c1

>  <Name>  (729) 
nan

>  <Pocket>  (729) 
nan

>  <ATP_Site>  (729) 
nan

>  <Peripheral>  (729) 
nan

>  <Num_H_Atoms_ProtBoundConf>  (729) 
nan

>  <Num_Resolved_Atoms>  (729) 
nan

>  <Num_Not_Resolved_Atoms>  (729) 
nan

$$$$
CHEMBL361378
     RDKit          3D

  0  0  0  0  0  0  0  0  0  0999 V3000
M  V30 BEGIN CTAB
M  V30 COUNTS 43 46 0 0 0
M  V30 BEGIN ATOM
M  V30 1 N 3.168516 -5.580800 6.629036 0
M  V30 2 C 3.936383 -4.390299 6.486035 0
M  V30 3 O 4.815722 -4.290882 7.351359 0
M  V30 4 C 3.682321 -3.421914 5.424146 0
M  V30 5 C 4.495204 -2.309434 5.394366 0
M  V30 6 C 4.234737 -1.394841 4.369363 0
M  V30 7 C 3.217806 -1.589581 3.432342 0
M  V30 8 N 2.772254 -0.891620 2.384295 0
M  V30 9 C 1.746261 -1.549392 1.814377 0
M  V30 10 C 0.972034 -1.139344 0.646800 0
M  V30 11 C 1.276798 0.044686 0.012766 0
M  V30 12 C 0.504901 0.391371 -1.100911 0
M  V30 13 C -0.536195 -0.420484 -1.562920 0
M  V30 14 O -1.162530 0.120237 -2.677504 0
M  V30 15 C -2.248313 0.982075 -2.594429 0
M  V30 16 C -1.937534 2.211646 -3.186940 0
M  V30 17 C -2.854869 3.245636 -3.234624 0
M  V30 18 C -2.583013 4.563162 -3.846120 0
M  V30 19 F -3.623992 4.862513 -4.721419 0
M  V30 20 F -2.521255 5.512584 -2.848801 0
M  V30 21 F -1.417240 4.544433 -4.591086 0
M  V30 22 C -4.107649 3.055516 -2.682459 0
M  V30 23 C -4.397324 1.858185 -2.110431 0
M  V30 24 C -3.506057 0.808399 -2.046709 0
M  V30 25 F -3.669519 -0.413168 -1.513662 0
M  V30 26 C -0.805103 -1.597917 -0.895589 0
M  V30 27 C -0.051581 -1.952137 0.204415 0
M  V30 28 N 1.578846 -2.667305 2.543900 0
M  V30 29 C 2.464191 -2.738752 3.555820 0
M  V30 30 C 2.658502 -3.694548 4.543113 0
M  V30 31 H 2.388968 -6.118292 6.219219 0
M  V30 32 H 2.377848 -6.109170 6.199489 0
M  V30 33 H 5.278073 -2.156017 6.112837 0
M  V30 34 H 4.857263 -0.507181 4.317448 0
M  V30 35 H 3.184993 0.033654 2.075826 0
M  V30 36 H 2.078970 0.667092 0.371236 0
M  V30 37 H 0.799170 1.331223 -1.547820 0
M  V30 38 H -0.985409 2.486724 -3.656859 0
M  V30 39 H -4.857939 3.821631 -2.690823 0
M  V30 40 H -5.359001 1.646445 -1.661228 0
M  V30 41 H -1.619252 -2.155621 -1.320279 0
M  V30 42 H -0.329326 -2.891092 0.668423 0
M  V30 43 H 2.058308 -4.586805 4.622794 0
M  V30 END ATOM
M  V30 BEGIN BOND
M  V30 1 1 1 2
M  V30 2 2 2 3
M  V30 3 1 2 4
M  V30 4 2 4 5
M  V30 5 1 5 6
M  V30 6 2 6 7
M  V30 7 1 7 8
M  V30 8 1 8 9
M  V30 9 1 9 10
M  V30 10 2 10 11
M  V30 11 1 11 12
M  V30 12 2 12 13
M  V30 13 1 13 14
M  V30 14 1 14 15
M  V30 15 2 15 16
M  V30 16 1 16 17
M  V30 17 1 17 18
M  V30 18 1 18 19
M  V30 19 1 18 20
M  V30 20 1 18 21
M  V30 21 2 17 22
M  V30 22 1 22 23
M  V30 23 2 23 24
M  V30 24 1 24 25
M  V30 25 1 13 26
M  V30 26 2 26 27
M  V30 27 2 9 28
M  V30 28 1 28 29
M  V30 29 2 29 30
M  V30 30 1 30 4
M  V30 31 1 29 7
M  V30 32 1 27 10
M  V30 33 1 24 15
M  V30 34 1 1 31
M  V30 35 1 1 32
M  V30 36 1 5 33
M  V30 37 1 6 34
M  V30 38 1 8 35
M  V30 39 1 11 36
M  V30 40 1 12 37
M  V30 41 1 16 38
M  V30 42 1 22 39
M  V30 43 1 23 40
M  V30 44 1 26 41
M  V30 45 1 27 42
M  V30 46 1 30 43
M  V30 END BOND
M  V30 END CTAB
M  END
>  <Dataset>  (730) 
ChEMBL_Kinases

>  <Ligand_Instance>  (730) 
nan

>  <PDB_ID>  (730) 
nan

>  <Standardized_SMILES>  (730) 
NC(=O)c1ccc2[nH]c(-c3ccc(Oc4cc(C(F)(F)F)ccc4F)cc3)nc2c1

>  <Name>  (730) 
nan

>  <Pocket>  (730) 
nan

>  <ATP_Site>  (730) 
nan

>  <Peripheral>  (730) 
nan

>  <Num_H_Atoms_ProtBoundConf>  (730) 
nan

>  <Num_Resolved_Atoms>  (730) 
nan

>  <Num_Not_Resolved_Atoms>  (730) 
nan

$$$$
CHEMBL3623134
     RDKit          3D

  0  0  0  0  0  0  0  0  0  0999 V3000
M  V30 BEGIN CTAB
M  V30 COUNTS 49 52 0 0 0
M  V30 BEGIN ATOM
M  V30 1 C 0.279026 -6.057165 -0.669543 0
M  V30 2 N 1.279873 -5.036725 -0.764886 0
M  V30 3 C 2.416139 -4.624110 0.004174 0
M  V30 4 O 2.774077 -5.189262 1.063993 0
M  V30 5 N 3.148385 -3.520814 -0.484934 0
M  V30 6 C 4.312505 -2.820161 -0.022746 0
M  V30 7 C 3.749842 -1.579755 -0.693076 0
M  V30 8 N 2.854994 -0.912653 0.215725 0
M  V30 9 C 2.966106 0.474284 0.501727 0
M  V30 10 O 3.885767 1.160059 -0.060134 0
M  V30 11 C 2.018952 1.075528 1.435083 0
M  V30 12 C 2.628077 1.678888 2.542343 0
M  V30 13 N 1.853067 2.266573 3.470417 0
M  V30 14 C 0.511618 2.319105 3.413788 0
M  V30 15 N -0.281638 2.946892 4.409389 0
M  V30 16 C -0.098229 1.726629 2.325397 0
M  V30 17 C -1.475846 1.719168 2.162086 0
M  V30 18 C -2.024455 1.103205 1.040517 0
M  V30 19 C -3.477840 1.126409 0.920932 0
M  V30 20 C -4.261932 2.154740 1.395286 0
M  V30 21 C -5.619210 2.008038 1.194254 0
M  V30 22 C -6.220480 0.950325 0.578561 0
M  V30 23 C -5.414336 -0.081558 0.104304 0
M  V30 24 F -6.000189 -1.137814 -0.508857 0
M  V30 25 C -4.052430 0.041135 0.293055 0
M  V30 26 C -1.243195 0.484874 0.060148 0
M  V30 27 C 0.121567 0.489083 0.216383 0
M  V30 28 C 0.641595 1.105705 1.335980 0
M  V30 29 C 3.117525 -2.600032 -1.602965 0
M  V30 30 H 0.371118 -6.694292 0.249626 0
M  V30 31 H 0.296390 -6.744415 -1.539644 0
M  V30 32 H -0.756831 -5.637995 -0.617749 0
M  V30 33 H 1.029498 -4.517828 -1.651366 0
M  V30 34 H 4.337459 -2.778503 1.093538 0
M  V30 35 H 5.273332 -3.143678 -0.465541 0
M  V30 36 H 4.528604 -0.977039 -1.163893 0
M  V30 37 H 2.141086 -1.556918 0.621103 0
M  V30 38 H 3.716921 1.704075 2.705542 0
M  V30 39 H -0.328208 2.235675 5.193676 0
M  V30 40 H -0.490771 3.859848 3.946911 0
M  V30 41 H -2.054799 2.194856 2.919052 0
M  V30 42 H -3.798034 2.997965 1.884681 0
M  V30 43 H -6.274647 2.806245 1.558370 0
M  V30 44 H -7.307142 0.914074 0.460708 0
M  V30 45 H -3.499700 -0.811145 -0.108826 0
M  V30 46 H -1.684836 0.010638 -0.805328 0
M  V30 47 H 0.740471 0.018684 -0.527132 0
M  V30 48 H 2.132531 -2.343910 -2.009376 0
M  V30 49 H 3.831125 -2.914378 -2.375155 0
M  V30 END ATOM
M  V30 BEGIN BOND
M  V30 1 1 1 2
M  V30 2 1 2 3
M  V30 3 2 3 4
M  V30 4 1 3 5
M  V30 5 1 5 6
M  V30 6 1 6 7
M  V30 7 1 7 8
M  V30 8 1 8 9
M  V30 9 2 9 10
M  V30 10 1 9 11
M  V30 11 2 11 12
M  V30 12 1 12 13
M  V30 13 2 13 14
M  V30 14 1 14 15
M  V30 15 1 14 16
M  V30 16 2 16 17
M  V30 17 1 17 18
M  V30 18 1 18 19
M  V30 19 2 19 20
M  V30 20 1 20 21
M  V30 21 2 21 22
M  V30 22 1 22 23
M  V30 23 1 23 24
M  V30 24 2 23 25
M  V30 25 2 18 26
M  V30 26 1 26 27
M  V30 27 2 27 28
M  V30 28 1 7 29
M  V30 29 1 29 5
M  V30 30 1 28 11
M  V30 31 1 28 16
M  V30 32 1 25 19
M  V30 33 1 1 30
M  V30 34 1 1 31
M  V30 35 1 1 32
M  V30 36 1 2 33
M  V30 37 1 6 34
M  V30 38 1 6 35
M  V30 39 1 7 36
M  V30 40 1 8 37
M  V30 41 1 12 38
M  V30 42 1 15 39
M  V30 43 1 15 40
M  V30 44 1 17 41
M  V30 45 1 20 42
M  V30 46 1 21 43
M  V30 47 1 22 44
M  V30 48 1 25 45
M  V30 49 1 26 46
M  V30 50 1 27 47
M  V30 51 1 29 48
M  V30 52 1 29 49
M  V30 END BOND
M  V30 END CTAB
M  END
>  <Dataset>  (731) 
ChEMBL_Kinases

>  <Ligand_Instance>  (731) 
nan

>  <PDB_ID>  (731) 
nan

>  <Standardized_SMILES>  (731) 
CNC(=O)N1CC(NC(=O)c2cnc(N)c3cc(-c4cccc(F)c4)ccc23)C1

>  <Name>  (731) 
nan

>  <Pocket>  (731) 
nan

>  <ATP_Site>  (731) 
nan

>  <Peripheral>  (731) 
nan

>  <Num_H_Atoms_ProtBoundConf>  (731) 
nan

>  <Num_Resolved_Atoms>  (731) 
nan

>  <Num_Not_Resolved_Atoms>  (731) 
nan

$$$$
CHEMBL3613602
     RDKit          3D

  0  0  0  0  0  0  0  0  0  0999 V3000
M  V30 BEGIN CTAB
M  V30 COUNTS 60 63 0 0 0
M  V30 BEGIN ATOM
M  V30 1 C 0.259383 -1.892860 7.646646 0
M  V30 2 O 0.944326 -1.780867 6.433390 0
M  V30 3 C 2.315221 -1.959957 6.284785 0
M  V30 4 O 3.118808 -2.243240 7.205660 0
M  V30 5 C 2.863979 -1.801674 4.925287 0
M  V30 6 C 4.219079 -1.966422 4.709277 0
M  V30 7 C 4.784687 -1.829012 3.453556 0
M  V30 8 C 3.965929 -1.513696 2.364253 0
M  V30 9 C 2.610217 -1.347488 2.572516 0
M  V30 10 N 1.716491 -1.025816 1.510606 0
M  V30 11 C 1.365703 0.288271 1.092498 0
M  V30 12 O 1.990130 1.120959 1.833097 0
M  V30 13 C 0.401525 0.458656 -0.052844 0
M  V30 14 N 0.228313 1.884083 -0.300743 0
M  V30 15 C 1.503633 2.453331 -0.649349 0
M  V30 16 C -0.305226 2.581761 0.824686 0
M  V30 17 C -0.874098 -0.193667 0.379368 0
M  V30 18 C -1.181543 -1.359600 -0.526159 0
M  V30 19 N -1.388829 -0.784004 -1.854465 0
M  V30 20 C -2.460292 -0.569405 -2.769296 0
M  V30 21 N -2.689406 0.744746 -3.002572 0
M  V30 22 C -3.665857 1.143651 -3.830717 0
M  V30 23 N -4.430545 0.234472 -4.440342 0
M  V30 24 C -4.259695 -1.086728 -4.255777 0
M  V30 25 N -4.832190 -2.243957 -4.699834 0
M  V30 26 C -4.195167 -3.310123 -4.136070 0
M  V30 27 C -3.175895 -2.858057 -3.297839 0
M  V30 28 C -2.244367 -3.674818 -2.500623 0
M  V30 29 C -3.262933 -1.486836 -3.410716 0
M  V30 30 C -0.128219 -0.298094 -2.383627 0
M  V30 31 C 0.918357 -0.180606 -1.299493 0
M  V30 32 C 2.089072 -1.494686 3.845927 0
M  V30 33 H -0.217376 -2.874914 7.738273 0
M  V30 34 H -0.589665 -1.151404 7.593862 0
M  V30 35 H 0.841988 -1.593087 8.532853 0
M  V30 36 H 4.867828 -2.210537 5.540036 0
M  V30 37 H 5.845276 -1.953252 3.257872 0
M  V30 38 H 4.352770 -1.393610 1.357901 0
M  V30 39 H 1.354683 -1.904194 1.081427 0
M  V30 40 H 1.559032 2.730497 -1.726700 0
M  V30 41 H 2.377019 1.828159 -0.349324 0
M  V30 42 H 1.643831 3.413539 -0.106788 0
M  V30 43 H 0.500895 3.075099 1.443579 0
M  V30 44 H -0.883435 1.993585 1.537372 0
M  V30 45 H -0.934696 3.437945 0.486651 0
M  V30 46 H -0.826340 -0.613873 1.405948 0
M  V30 47 H -1.670671 0.582891 0.292039 0
M  V30 48 H -2.137184 -1.871200 -0.191449 0
M  V30 49 H -0.359102 -2.070007 -0.572390 0
M  V30 50 H -3.943460 2.150326 -4.094623 0
M  V30 51 H -5.637105 -2.255935 -5.371981 0
M  V30 52 H -4.443207 -4.361846 -4.312200 0
M  V30 53 H -2.257073 -4.708451 -2.963309 0
M  V30 54 H -1.191255 -3.352019 -2.615915 0
M  V30 55 H -2.570049 -3.844445 -1.463563 0
M  V30 56 H -0.261207 0.671901 -2.906086 0
M  V30 57 H 0.260386 -1.009692 -3.141577 0
M  V30 58 H 1.700449 0.499654 -1.732773 0
M  V30 59 H 1.338195 -1.201147 -1.142996 0
M  V30 60 H 1.035556 -1.367264 4.017645 0
M  V30 END ATOM
M  V30 BEGIN BOND
M  V30 1 1 1 2
M  V30 2 1 2 3
M  V30 3 2 3 4
M  V30 4 1 3 5
M  V30 5 2 5 6
M  V30 6 1 6 7
M  V30 7 2 7 8
M  V30 8 1 8 9
M  V30 9 1 9 10
M  V30 10 1 10 11
M  V30 11 2 11 12
M  V30 12 1 11 13
M  V30 13 1 13 14
M  V30 14 1 14 15
M  V30 15 1 14 16
M  V30 16 1 13 17
M  V30 17 1 17 18
M  V30 18 1 18 19
M  V30 19 1 19 20
M  V30 20 2 20 21
M  V30 21 1 21 22
M  V30 22 2 22 23
M  V30 23 1 23 24
M  V30 24 1 24 25
M  V30 25 1 25 26
M  V30 26 2 26 27
M  V30 27 1 27 28
M  V30 28 1 27 29
M  V30 29 1 19 30
M  V30 30 1 30 31
M  V30 31 2 9 32
M  V30 32 1 32 5
M  V30 33 1 31 13
M  V30 34 1 29 20
M  V30 35 2 29 24
M  V30 36 1 1 33
M  V30 37 1 1 34
M  V30 38 1 1 35
M  V30 39 1 6 36
M  V30 40 1 7 37
M  V30 41 1 8 38
M  V30 42 1 10 39
M  V30 43 1 15 40
M  V30 44 1 15 41
M  V30 45 1 15 42
M  V30 46 1 16 43
M  V30 47 1 16 44
M  V30 48 1 16 45
M  V30 49 1 17 46
M  V30 50 1 17 47
M  V30 51 1 18 48
M  V30 52 1 18 49
M  V30 53 1 22 50
M  V30 54 1 25 51
M  V30 55 1 26 52
M  V30 56 1 28 53
M  V30 57 1 28 54
M  V30 58 1 28 55
M  V30 59 1 30 56
M  V30 60 1 30 57
M  V30 61 1 31 58
M  V30 62 1 31 59
M  V30 63 1 32 60
M  V30 END BOND
M  V30 END CTAB
M  END
>  <Dataset>  (732) 
ChEMBL_Kinases

>  <Ligand_Instance>  (732) 
nan

>  <PDB_ID>  (732) 
nan

>  <Standardized_SMILES>  (732) 
COC(=O)c1cccc(NC(=O)C2(N(C)C)CCN(c3ncnc4[nH]cc(C)c34)CC2)c1

>  <Name>  (732) 
nan

>  <Pocket>  (732) 
nan

>  <ATP_Site>  (732) 
nan

>  <Peripheral>  (732) 
nan

>  <Num_H_Atoms_ProtBoundConf>  (732) 
nan

>  <Num_Resolved_Atoms>  (732) 
nan

>  <Num_Not_Resolved_Atoms>  (732) 
nan

$$$$
CHEMBL3613603
     RDKit          3D

  0  0  0  0  0  0  0  0  0  0999 V3000
M  V30 BEGIN CTAB
M  V30 COUNTS 67 70 0 0 0
M  V30 BEGIN ATOM
M  V30 1 C 3.269073 -0.167402 4.964858 0
M  V30 2 O 3.573787 0.931435 4.145460 0
M  V30 3 C 4.170150 0.859263 2.901279 0
M  V30 4 O 4.316785 -0.375290 2.792357 0
M  V30 5 C 4.352796 2.225199 2.295562 0
M  V30 6 O 4.956913 2.140007 1.015498 0
M  V30 7 C 4.391790 1.454220 -0.035905 0
M  V30 8 C 5.132169 1.484704 -1.206025 0
M  V30 9 C 4.643096 0.819763 -2.326137 0
M  V30 10 C 3.446601 0.137785 -2.292669 0
M  V30 11 C 2.688147 0.100120 -1.112104 0
M  V30 12 N 1.462938 -0.548520 -0.937287 0
M  V30 13 C 0.314475 0.199520 -1.210422 0
M  V30 14 O 0.489464 1.406882 -1.611099 0
M  V30 15 C -1.171489 0.058355 -1.196160 0
M  V30 16 C -1.722698 1.164780 -2.096941 0
M  V30 17 N -3.109744 1.226484 -2.244927 0
M  V30 18 C -3.934741 1.639325 -1.173521 0
M  V30 19 C -3.597518 1.607018 -3.532335 0
M  V30 20 C -1.633920 -1.250364 -1.727802 0
M  V30 21 C -2.176057 -2.159962 -0.639272 0
M  V30 22 N -1.387946 -2.106652 0.577485 0
M  V30 23 C -0.857608 -3.091852 1.465860 0
M  V30 24 N 0.498620 -3.215803 1.411196 0
M  V30 25 C 1.148022 -4.110876 2.156586 0
M  V30 26 N 0.505502 -4.939806 3.002937 0
M  V30 27 C -0.851398 -4.871851 3.110118 0
M  V30 28 N -1.797893 -5.502157 3.821318 0
M  V30 29 C -2.990821 -5.008657 3.523108 0
M  V30 30 C -2.828447 -4.018238 2.582751 0
M  V30 31 C -3.929049 -3.212523 2.000852 0
M  V30 32 C -1.485052 -3.946667 2.335083 0
M  V30 33 C -1.007233 -0.800610 1.106984 0
M  V30 34 C -1.632866 0.246039 0.226028 0
M  V30 35 C 3.196862 0.764172 -0.027619 0
M  V30 36 H 2.423603 0.132267 5.640327 0
M  V30 37 H 4.122225 -0.444879 5.650095 0
M  V30 38 H 3.026860 -1.083310 4.384742 0
M  V30 39 H 4.968131 2.830475 2.990652 0
M  V30 40 H 3.366184 2.692337 2.219491 0
M  V30 41 H 6.073797 1.962686 -1.405990 0
M  V30 42 H 5.147220 0.785220 -3.284027 0
M  V30 43 H 3.002302 -0.401163 -3.118986 0
M  V30 44 H 1.130860 -1.498060 -0.661216 0
M  V30 45 H -1.286090 0.930487 -3.114110 0
M  V30 46 H -1.249518 2.144198 -1.839798 0
M  V30 47 H -3.405938 2.204377 -0.377698 0
M  V30 48 H -4.647482 2.415986 -1.625205 0
M  V30 49 H -4.631622 0.863578 -0.810157 0
M  V30 50 H -3.088153 1.064073 -4.354862 0
M  V30 51 H -4.672240 1.304612 -3.630414 0
M  V30 52 H -3.571444 2.693369 -3.730281 0
M  V30 53 H -2.411363 -1.191822 -2.515854 0
M  V30 54 H -0.747726 -1.761499 -2.204171 0
M  V30 55 H -2.108356 -3.198062 -1.022543 0
M  V30 56 H -3.240184 -1.950331 -0.436073 0
M  V30 57 H 2.236685 -4.158179 2.063525 0
M  V30 58 H -1.498026 -6.256481 4.482164 0
M  V30 59 H -3.926018 -5.329492 3.945900 0
M  V30 60 H -3.576856 -2.162056 1.910324 0
M  V30 61 H -4.818268 -3.285568 2.668372 0
M  V30 62 H -4.237817 -3.616858 1.016128 0
M  V30 63 H 0.066561 -0.767222 1.212129 0
M  V30 64 H -1.402815 -0.702385 2.166678 0
M  V30 65 H -1.407193 1.275607 0.573649 0
M  V30 66 H -2.737483 0.088025 0.323317 0
M  V30 67 H 2.668217 0.782015 0.923576 0
M  V30 END ATOM
M  V30 BEGIN BOND
M  V30 1 1 1 2
M  V30 2 1 2 3
M  V30 3 2 3 4
M  V30 4 1 3 5
M  V30 5 1 5 6
M  V30 6 1 6 7
M  V30 7 2 7 8
M  V30 8 1 8 9
M  V30 9 2 9 10
M  V30 10 1 10 11
M  V30 11 1 11 12
M  V30 12 1 12 13
M  V30 13 2 13 14
M  V30 14 1 13 15
M  V30 15 1 15 16
M  V30 16 1 16 17
M  V30 17 1 17 18
M  V30 18 1 17 19
M  V30 19 1 15 20
M  V30 20 1 20 21
M  V30 21 1 21 22
M  V30 22 1 22 23
M  V30 23 2 23 24
M  V30 24 1 24 25
M  V30 25 2 25 26
M  V30 26 1 26 27
M  V30 27 1 27 28
M  V30 28 1 28 29
M  V30 29 2 29 30
M  V30 30 1 30 31
M  V30 31 1 30 32
M  V30 32 1 22 33
M  V30 33 1 33 34
M  V30 34 2 11 35
M  V30 35 1 35 7
M  V30 36 1 34 15
M  V30 37 1 32 23
M  V30 38 2 32 27
M  V30 39 1 1 36
M  V30 40 1 1 37
M  V30 41 1 1 38
M  V30 42 1 5 39
M  V30 43 1 5 40
M  V30 44 1 8 41
M  V30 45 1 9 42
M  V30 46 1 10 43
M  V30 47 1 12 44
M  V30 48 1 16 45
M  V30 49 1 16 46
M  V30 50 1 18 47
M  V30 51 1 18 48
M  V30 52 1 18 49
M  V30 53 1 19 50
M  V30 54 1 19 51
M  V30 55 1 19 52
M  V30 56 1 20 53
M  V30 57 1 20 54
M  V30 58 1 21 55
M  V30 59 1 21 56
M  V30 60 1 25 57
M  V30 61 1 28 58
M  V30 62 1 29 59
M  V30 63 1 31 60
M  V30 64 1 31 61
M  V30 65 1 31 62
M  V30 66 1 33 63
M  V30 67 1 33 64
M  V30 68 1 34 65
M  V30 69 1 34 66
M  V30 70 1 35 67
M  V30 END BOND
M  V30 END CTAB
M  END
>  <Dataset>  (733) 
ChEMBL_Kinases

>  <Ligand_Instance>  (733) 
nan

>  <PDB_ID>  (733) 
nan

>  <Standardized_SMILES>  (733) 
COC(=O)COc1cccc(NC(=O)C2(CN(C)C)CCN(c3ncnc4[nH]cc(C)c34)CC2)c1

>  <Name>  (733) 
nan

>  <Pocket>  (733) 
nan

>  <ATP_Site>  (733) 
nan

>  <Peripheral>  (733) 
nan

>  <Num_H_Atoms_ProtBoundConf>  (733) 
nan

>  <Num_Resolved_Atoms>  (733) 
nan

>  <Num_Not_Resolved_Atoms>  (733) 
nan

$$$$
CHEMBL3613604
     RDKit          3D

  0  0  0  0  0  0  0  0  0  0999 V3000
M  V30 BEGIN CTAB
M  V30 COUNTS 66 69 0 0 0
M  V30 BEGIN ATOM
M  V30 1 C 6.019064 1.100796 5.912713 0
M  V30 2 O 5.502826 2.405155 5.808335 0
M  V30 3 C 4.900016 2.908932 4.672716 0
M  V30 4 O 4.865924 2.062393 3.737564 0
M  V30 5 C 4.220676 3.651915 3.567544 0
M  V30 6 C 4.101463 2.761228 2.356213 0
M  V30 7 C 5.114969 2.750103 1.401978 0
M  V30 8 C 5.014951 1.932767 0.288627 0
M  V30 9 C 3.873058 1.148648 0.188401 0
M  V30 10 C 2.848334 1.132274 1.112331 0
M  V30 11 N 1.773947 0.270294 0.841230 0
M  V30 12 C 0.628032 0.603866 0.109296 0
M  V30 13 O 0.643740 1.814158 -0.311616 0
M  V30 14 C -0.556543 -0.280693 -0.211555 0
M  V30 15 C -1.145125 -0.672599 1.078267 0
M  V30 16 N -0.356701 -1.403644 2.011870 0
M  V30 17 C -1.212198 -1.523125 3.222278 0
M  V30 18 C -0.111362 -2.791077 1.627156 0
M  V30 19 C -0.119574 -1.329255 -1.152430 0
M  V30 20 C -1.139053 -2.090785 -1.900593 0
M  V30 21 N -2.445910 -1.475206 -2.019458 0
M  V30 22 C -3.558287 -1.916092 -2.782377 0
M  V30 23 N -3.703650 -1.119054 -3.885432 0
M  V30 24 C -4.689897 -1.367751 -4.790174 0
M  V30 25 N -5.562999 -2.386193 -4.662228 0
M  V30 26 C -5.445453 -3.185536 -3.588409 0
M  V30 27 N -6.073384 -4.270141 -3.068555 0
M  V30 28 C -5.526284 -4.678352 -1.917752 0
M  V30 29 C -4.475830 -3.836255 -1.635651 0
M  V30 30 C -3.632903 -3.950770 -0.444971 0
M  V30 31 C -4.457008 -2.950449 -2.664701 0
M  V30 32 C -2.783880 -0.246720 -1.323451 0
M  V30 33 C -1.577114 0.565167 -0.949185 0
M  V30 34 C 2.976087 1.957436 2.211428 0
M  V30 35 H 7.109557 1.141660 6.194549 0
M  V30 36 H 5.870347 0.488807 5.005962 0
M  V30 37 H 5.543242 0.525683 6.734867 0
M  V30 38 H 3.200609 3.905504 3.877291 0
M  V30 39 H 4.822891 4.544653 3.341708 0
M  V30 40 H 5.968084 3.409400 1.585975 0
M  V30 41 H 5.799780 1.935795 -0.433244 0
M  V30 42 H 3.834326 0.521454 -0.700409 0
M  V30 43 H 1.824223 -0.701717 1.210416 0
M  V30 44 H -2.131623 -1.146080 0.909780 0
M  V30 45 H -1.411851 0.294331 1.607750 0
M  V30 46 H -0.719891 -2.159198 3.984960 0
M  V30 47 H -1.432769 -0.541602 3.657676 0
M  V30 48 H -2.171617 -2.004670 2.967261 0
M  V30 49 H 0.977716 -2.907396 1.460598 0
M  V30 50 H -0.744323 -3.152191 0.819449 0
M  V30 51 H -0.316899 -3.499894 2.487945 0
M  V30 52 H 0.677458 -2.004993 -0.720317 0
M  V30 53 H 0.482027 -0.777550 -1.946994 0
M  V30 54 H -0.827519 -2.247099 -2.994370 0
M  V30 55 H -1.189829 -3.114594 -1.519093 0
M  V30 56 H -4.819984 -0.742047 -5.675886 0
M  V30 57 H -6.907566 -4.731066 -3.539676 0
M  V30 58 H -5.846472 -5.518706 -1.311276 0
M  V30 59 H -4.228681 -4.390036 0.394709 0
M  V30 60 H -2.813722 -4.683068 -0.610851 0
M  V30 61 H -3.277137 -2.986050 -0.082204 0
M  V30 62 H -3.382541 0.437363 -1.998026 0
M  V30 63 H -3.440003 -0.407644 -0.455723 0
M  V30 64 H -1.900754 1.391182 -0.283886 0
M  V30 65 H -1.075402 1.013206 -1.818859 0
M  V30 66 H 2.175174 1.940829 2.927751 0
M  V30 END ATOM
M  V30 BEGIN BOND
M  V30 1 1 1 2
M  V30 2 1 2 3
M  V30 3 2 3 4
M  V30 4 1 3 5
M  V30 5 1 5 6
M  V30 6 2 6 7
M  V30 7 1 7 8
M  V30 8 2 8 9
M  V30 9 1 9 10
M  V30 10 1 10 11
M  V30 11 1 11 12
M  V30 12 2 12 13
M  V30 13 1 12 14
M  V30 14 1 14 15
M  V30 15 1 15 16
M  V30 16 1 16 17
M  V30 17 1 16 18
M  V30 18 1 14 19
M  V30 19 1 19 20
M  V30 20 1 20 21
M  V30 21 1 21 22
M  V30 22 2 22 23
M  V30 23 1 23 24
M  V30 24 2 24 25
M  V30 25 1 25 26
M  V30 26 1 26 27
M  V30 27 1 27 28
M  V30 28 2 28 29
M  V30 29 1 29 30
M  V30 30 1 29 31
M  V30 31 1 21 32
M  V30 32 1 32 33
M  V30 33 2 10 34
M  V30 34 1 34 6
M  V30 35 1 33 14
M  V30 36 1 31 22
M  V30 37 2 31 26
M  V30 38 1 1 35
M  V30 39 1 1 36
M  V30 40 1 1 37
M  V30 41 1 5 38
M  V30 42 1 5 39
M  V30 43 1 7 40
M  V30 44 1 8 41
M  V30 45 1 9 42
M  V30 46 1 11 43
M  V30 47 1 15 44
M  V30 48 1 15 45
M  V30 49 1 17 46
M  V30 50 1 17 47
M  V30 51 1 17 48
M  V30 52 1 18 49
M  V30 53 1 18 50
M  V30 54 1 18 51
M  V30 55 1 19 52
M  V30 56 1 19 53
M  V30 57 1 20 54
M  V30 58 1 20 55
M  V30 59 1 24 56
M  V30 60 1 27 57
M  V30 61 1 28 58
M  V30 62 1 30 59
M  V30 63 1 30 60
M  V30 64 1 30 61
M  V30 65 1 32 62
M  V30 66 1 32 63
M  V30 67 1 33 64
M  V30 68 1 33 65
M  V30 69 1 34 66
M  V30 END BOND
M  V30 END CTAB
M  END
>  <Dataset>  (734) 
ChEMBL_Kinases

>  <Ligand_Instance>  (734) 
nan

>  <PDB_ID>  (734) 
nan

>  <Standardized_SMILES>  (734) 
COC(=O)Cc1cccc(NC(=O)C2(CN(C)C)CCN(c3ncnc4[nH]cc(C)c34)CC2)c1

>  <Name>  (734) 
nan

>  <Pocket>  (734) 
nan

>  <ATP_Site>  (734) 
nan

>  <Peripheral>  (734) 
nan

>  <Num_H_Atoms_ProtBoundConf>  (734) 
nan

>  <Num_Resolved_Atoms>  (734) 
nan

>  <Num_Not_Resolved_Atoms>  (734) 
nan

$$$$
CHEMBL3613605
     RDKit          3D

  0  0  0  0  0  0  0  0  0  0999 V3000
M  V30 BEGIN CTAB
M  V30 COUNTS 63 66 0 0 0
M  V30 BEGIN ATOM
M  V30 1 C 7.030313 -1.367205 5.276063 0
M  V30 2 O 6.079223 -1.059646 4.268047 0
M  V30 3 C 5.155829 -0.014831 4.427045 0
M  V30 4 O 5.267393 0.586117 5.516348 0
M  V30 5 C 4.182789 0.288291 3.378376 0
M  V30 6 C 4.126617 -0.428789 2.196259 0
M  V30 7 C 3.194029 -0.119459 1.221898 0
M  V30 8 C 2.346069 0.933798 1.514926 0
M  V30 9 N 1.346251 1.307045 0.536664 0
M  V30 10 C 0.196446 0.506461 0.877702 0
M  V30 11 O 0.451124 -0.230569 1.893646 0
M  V30 12 C -1.126458 0.521583 0.152813 0
M  V30 13 C -1.758583 1.862749 0.153256 0
M  V30 14 N -2.090999 2.506323 1.360744 0
M  V30 15 C -2.625607 3.830938 0.954150 0
M  V30 16 C -3.254521 1.928501 2.058549 0
M  V30 17 C -0.800313 0.282040 -1.302845 0
M  V30 18 C -0.635757 -1.124793 -1.706052 0
M  V30 19 N -1.745173 -1.919238 -1.152215 0
M  V30 20 C -2.809856 -2.630897 -1.759839 0
M  V30 21 N -4.035794 -2.148228 -1.453770 0
M  V30 22 C -5.176549 -2.673506 -1.931961 0
M  V30 23 N -5.107689 -3.748646 -2.769756 0
M  V30 24 C -3.915389 -4.271040 -3.108729 0
M  V30 25 N -3.474083 -5.293994 -3.880905 0
M  V30 26 C -2.130518 -5.374722 -3.863062 0
M  V30 27 C -1.636786 -4.364153 -3.044266 0
M  V30 28 C -0.230651 -4.088395 -2.738843 0
M  V30 29 C -2.760175 -3.712215 -2.603277 0
M  V30 30 C -1.670041 -1.937129 0.295735 0
M  V30 31 C -1.924387 -0.537595 0.800593 0
M  V30 32 C 2.385428 1.662870 2.689227 0
M  V30 33 C 3.324436 1.337532 3.649045 0
M  V30 34 H 6.551207 -1.901855 6.115709 0
M  V30 35 H 7.588730 -0.471427 5.604326 0
M  V30 36 H 7.772925 -2.061590 4.832777 0
M  V30 37 H 4.827065 -1.250283 2.028450 0
M  V30 38 H 3.155300 -0.679454 0.306668 0
M  V30 39 H 1.233058 1.946127 -0.284037 0
M  V30 40 H -2.719982 1.743239 -0.431244 0
M  V30 41 H -1.151338 2.536804 -0.518623 0
M  V30 42 H -3.508296 3.633806 0.309623 0
M  V30 43 H -1.919706 4.421536 0.380699 0
M  V30 44 H -3.002177 4.323048 1.872015 0
M  V30 45 H -2.965636 1.162090 2.800063 0
M  V30 46 H -3.731311 2.728434 2.708969 0
M  V30 47 H -4.060877 1.652127 1.369661 0
M  V30 48 H 0.115608 0.847213 -1.569520 0
M  V30 49 H -1.584354 0.731064 -1.976635 0
M  V30 50 H 0.340095 -1.551837 -1.454348 0
M  V30 51 H -0.773852 -1.201025 -2.806941 0
M  V30 52 H -6.138970 -2.252384 -1.658426 0
M  V30 53 H -4.166739 -5.905360 -4.399934 0
M  V30 54 H -1.545715 -6.108639 -4.401028 0
M  V30 55 H 0.166160 -3.316499 -3.413643 0
M  V30 56 H -0.003416 -3.938525 -1.666939 0
M  V30 57 H 0.361668 -5.016465 -3.005792 0
M  V30 58 H -2.394859 -2.618562 0.734432 0
M  V30 59 H -0.637020 -2.282472 0.570796 0
M  V30 60 H -1.669431 -0.609071 1.901981 0
M  V30 61 H -3.001205 -0.388424 0.763967 0
M  V30 62 H 1.679016 2.479151 2.839864 0
M  V30 63 H 3.351968 1.907467 4.561837 0
M  V30 END ATOM
M  V30 BEGIN BOND
M  V30 1 1 1 2
M  V30 2 1 2 3
M  V30 3 2 3 4
M  V30 4 1 3 5
M  V30 5 2 5 6
M  V30 6 1 6 7
M  V30 7 2 7 8
M  V30 8 1 8 9
M  V30 9 1 9 10
M  V30 10 2 10 11
M  V30 11 1 10 12
M  V30 12 1 12 13
M  V30 13 1 13 14
M  V30 14 1 14 15
M  V30 15 1 14 16
M  V30 16 1 12 17
M  V30 17 1 17 18
M  V30 18 1 18 19
M  V30 19 1 19 20
M  V30 20 2 20 21
M  V30 21 1 21 22
M  V30 22 2 22 23
M  V30 23 1 23 24
M  V30 24 1 24 25
M  V30 25 1 25 26
M  V30 26 2 26 27
M  V30 27 1 27 28
M  V30 28 1 27 29
M  V30 29 1 19 30
M  V30 30 1 30 31
M  V30 31 1 8 32
M  V30 32 2 32 33
M  V30 33 1 33 5
M  V30 34 1 31 12
M  V30 35 1 29 20
M  V30 36 2 29 24
M  V30 37 1 1 34
M  V30 38 1 1 35
M  V30 39 1 1 36
M  V30 40 1 6 37
M  V30 41 1 7 38
M  V30 42 1 9 39
M  V30 43 1 13 40
M  V30 44 1 13 41
M  V30 45 1 15 42
M  V30 46 1 15 43
M  V30 47 1 15 44
M  V30 48 1 16 45
M  V30 49 1 16 46
M  V30 50 1 16 47
M  V30 51 1 17 48
M  V30 52 1 17 49
M  V30 53 1 18 50
M  V30 54 1 18 51
M  V30 55 1 22 52
M  V30 56 1 25 53
M  V30 57 1 26 54
M  V30 58 1 28 55
M  V30 59 1 28 56
M  V30 60 1 28 57
M  V30 61 1 30 58
M  V30 62 1 30 59
M  V30 63 1 31 60
M  V30 64 1 31 61
M  V30 65 1 32 62
M  V30 66 1 33 63
M  V30 END BOND
M  V30 END CTAB
M  END
>  <Dataset>  (735) 
ChEMBL_Kinases

>  <Ligand_Instance>  (735) 
nan

>  <PDB_ID>  (735) 
nan

>  <Standardized_SMILES>  (735) 
COC(=O)c1ccc(NC(=O)C2(CN(C)C)CCN(c3ncnc4[nH]cc(C)c34)CC2)cc1

>  <Name>  (735) 
nan

>  <Pocket>  (735) 
nan

>  <ATP_Site>  (735) 
nan

>  <Peripheral>  (735) 
nan

>  <Num_H_Atoms_ProtBoundConf>  (735) 
nan

>  <Num_Resolved_Atoms>  (735) 
nan

>  <Num_Not_Resolved_Atoms>  (735) 
nan

$$$$
CHEMBL3613606
     RDKit          3D

  0  0  0  0  0  0  0  0  0  0999 V3000
M  V30 BEGIN CTAB
M  V30 COUNTS 69 72 0 0 0
M  V30 BEGIN ATOM
M  V30 1 C 5.780187 -1.487453 5.514704 0
M  V30 2 C 4.915046 -0.739049 4.504451 0
M  V30 3 C 5.145470 -1.318988 3.125555 0
M  V30 4 O 4.385667 -0.689712 2.123885 0
M  V30 5 C 4.542491 0.662420 1.868028 0
M  V30 6 O 5.338276 1.418120 2.473962 0
M  V30 7 C 3.739140 1.287262 0.824273 0
M  V30 8 C 3.852160 2.627355 0.521290 0
M  V30 9 C 3.095167 3.258691 -0.471219 0
M  V30 10 C 2.198100 2.484837 -1.168648 0
M  V30 11 C 2.066352 1.130417 -0.880404 0
M  V30 12 N 1.082804 0.498884 -1.708167 0
M  V30 13 C -0.142614 0.626558 -0.964406 0
M  V30 14 O 0.117580 1.242722 0.130233 0
M  V30 15 C -1.523527 0.149345 -1.336109 0
M  V30 16 C -1.938115 0.849265 -2.595038 0
M  V30 17 N -1.149983 0.695835 -3.765604 0
M  V30 18 C -1.640314 1.632601 -4.821393 0
M  V30 19 C -1.185030 -0.585797 -4.425258 0
M  V30 20 C -1.650314 -1.308095 -1.458768 0
M  V30 21 C -1.489267 -2.118885 -0.198182 0
M  V30 22 N -2.085023 -1.394597 0.894197 0
M  V30 23 C -2.515468 -2.236275 1.954270 0
M  V30 24 N -1.659776 -2.181390 3.016724 0
M  V30 25 C -1.857183 -2.942110 4.129101 0
M  V30 26 N -2.932623 -3.779044 4.186926 0
M  V30 27 C -3.800371 -3.863010 3.163401 0
M  V30 28 N -4.935605 -4.540932 2.871699 0
M  V30 29 C -5.411552 -4.217311 1.654582 0
M  V30 30 C -4.557363 -3.269565 1.085265 0
M  V30 31 C -4.713019 -2.624396 -0.240362 0
M  V30 32 C -3.591303 -3.089363 2.044433 0
M  V30 33 C -2.299215 0.030029 1.049544 0
M  V30 34 C -2.425574 0.740672 -0.248730 0
M  V30 35 C 2.829657 0.548715 0.102810 0
M  V30 36 H 5.304624 -1.423472 6.502208 0
M  V30 37 H 5.879586 -2.540538 5.220475 0
M  V30 38 H 6.794825 -1.066937 5.548276 0
M  V30 39 H 3.827822 -0.893461 4.755059 0
M  V30 40 H 5.140797 0.345965 4.530672 0
M  V30 41 H 6.218460 -1.137506 2.900819 0
M  V30 42 H 4.924675 -2.400708 3.180710 0
M  V30 43 H 4.566875 3.258607 1.071505 0
M  V30 44 H 3.262433 4.333281 -0.634916 0
M  V30 45 H 1.654310 3.048456 -1.918694 0
M  V30 46 H 0.976596 0.003496 -2.624537 0
M  V30 47 H -2.036811 1.963314 -2.428107 0
M  V30 48 H -2.990798 0.562928 -2.892143 0
M  V30 49 H -2.683219 1.376096 -5.101813 0
M  V30 50 H -1.641186 2.664111 -4.470987 0
M  V30 51 H -0.928499 1.541125 -5.663806 0
M  V30 52 H -0.234143 -1.177082 -4.309764 0
M  V30 53 H -2.053526 -1.190358 -4.132824 0
M  V30 54 H -1.213990 -0.454065 -5.564407 0
M  V30 55 H -2.628914 -1.547452 -1.897441 0
M  V30 56 H -0.868331 -1.690131 -2.155147 0
M  V30 57 H -0.391154 -2.261404 -0.000716 0
M  V30 58 H -1.910157 -3.103662 -0.385721 0
M  V30 59 H -1.202688 -2.924205 4.987906 0
M  V30 60 H -5.383223 -5.238572 3.530118 0
M  V30 61 H -6.300073 -4.610551 1.177934 0
M  V30 62 H -4.249105 -3.266967 -0.988888 0
M  V30 63 H -4.364808 -1.568157 -0.245704 0
M  V30 64 H -5.805757 -2.561468 -0.486245 0
M  V30 65 H -1.453343 0.422044 1.645589 0
M  V30 66 H -3.232422 0.192627 1.635117 0
M  V30 67 H -2.137450 1.801633 -0.106408 0
M  V30 68 H -3.481014 0.740003 -0.589105 0
M  V30 69 H 2.663586 -0.500522 0.258265 0
M  V30 END ATOM
M  V30 BEGIN BOND
M  V30 1 1 1 2
M  V30 2 1 2 3
M  V30 3 1 3 4
M  V30 4 1 4 5
M  V30 5 2 5 6
M  V30 6 1 5 7
M  V30 7 2 7 8
M  V30 8 1 8 9
M  V30 9 2 9 10
M  V30 10 1 10 11
M  V30 11 1 11 12
M  V30 12 1 12 13
M  V30 13 2 13 14
M  V30 14 1 13 15
M  V30 15 1 15 16
M  V30 16 1 16 17
M  V30 17 1 17 18
M  V30 18 1 17 19
M  V30 19 1 15 20
M  V30 20 1 20 21
M  V30 21 1 21 22
M  V30 22 1 22 23
M  V30 23 2 23 24
M  V30 24 1 24 25
M  V30 25 2 25 26
M  V30 26 1 26 27
M  V30 27 1 27 28
M  V30 28 1 28 29
M  V30 29 2 29 30
M  V30 30 1 30 31
M  V30 31 1 30 32
M  V30 32 1 22 33
M  V30 33 1 33 34
M  V30 34 2 11 35
M  V30 35 1 35 7
M  V30 36 1 34 15
M  V30 37 1 32 23
M  V30 38 2 32 27
M  V30 39 1 1 36
M  V30 40 1 1 37
M  V30 41 1 1 38
M  V30 42 1 2 39
M  V30 43 1 2 40
M  V30 44 1 3 41
M  V30 45 1 3 42
M  V30 46 1 8 43
M  V30 47 1 9 44
M  V30 48 1 10 45
M  V30 49 1 12 46
M  V30 50 1 16 47
M  V30 51 1 16 48
M  V30 52 1 18 49
M  V30 53 1 18 50
M  V30 54 1 18 51
M  V30 55 1 19 52
M  V30 56 1 19 53
M  V30 57 1 19 54
M  V30 58 1 20 55
M  V30 59 1 20 56
M  V30 60 1 21 57
M  V30 61 1 21 58
M  V30 62 1 25 59
M  V30 63 1 28 60
M  V30 64 1 29 61
M  V30 65 1 31 62
M  V30 66 1 31 63
M  V30 67 1 31 64
M  V30 68 1 33 65
M  V30 69 1 33 66
M  V30 70 1 34 67
M  V30 71 1 34 68
M  V30 72 1 35 69
M  V30 END BOND
M  V30 END CTAB
M  END
>  <Dataset>  (736) 
ChEMBL_Kinases

>  <Ligand_Instance>  (736) 
nan

>  <PDB_ID>  (736) 
nan

>  <Standardized_SMILES>  (736) 
CCCOC(=O)c1cccc(NC(=O)C2(CN(C)C)CCN(c3ncnc4[nH]cc(C)c34)CC2)c1

>  <Name>  (736) 
nan

>  <Pocket>  (736) 
nan

>  <ATP_Site>  (736) 
nan

>  <Peripheral>  (736) 
nan

>  <Num_H_Atoms_ProtBoundConf>  (736) 
nan

>  <Num_Resolved_Atoms>  (736) 
nan

>  <Num_Not_Resolved_Atoms>  (736) 
nan

$$$$
CHEMBL3613607
     RDKit          3D

  0  0  0  0  0  0  0  0  0  0999 V3000
M  V30 BEGIN CTAB
M  V30 COUNTS 69 72 0 0 0
M  V30 BEGIN ATOM
M  V30 1 C 0.846035 0.355148 2.224257 0
M  V30 2 C 2.292923 0.333156 2.475412 0
M  V30 3 C 2.967457 0.057342 3.671372 0
M  V30 4 N 4.298105 0.136356 3.463082 0
M  V30 5 C 4.571484 0.453356 2.181286 0
M  V30 6 N 5.691348 0.650783 1.450610 0
M  V30 7 C 5.545440 0.964421 0.131432 0
M  V30 8 N 4.332056 1.081147 -0.453948 0
M  V30 9 C 3.187558 0.886055 0.266562 0
M  V30 10 N 2.031690 1.077918 -0.537089 0
M  V30 11 C 0.958909 2.045886 -0.551027 0
M  V30 12 C -0.393124 1.501921 -0.844255 0
M  V30 13 C -0.475310 0.517587 -1.981473 0
M  V30 14 C -1.448530 1.047781 -2.963296 0
M  V30 15 N -1.741038 0.333690 -4.133729 0
M  V30 16 C -0.730006 0.244647 -5.146843 0
M  V30 17 C -2.988546 0.716522 -4.761446 0
M  V30 18 C -0.837979 -0.847728 -1.502817 0
M  V30 19 O -0.290760 -2.002587 -1.537050 0
M  V30 20 N -2.115333 -0.853329 -0.844739 0
M  V30 21 C -2.656264 -2.057717 -0.308077 0
M  V30 22 C -3.463734 -2.968642 -0.956737 0
M  V30 23 C -3.915756 -4.098782 -0.302452 0
M  V30 24 C -3.538848 -4.291232 1.013629 0
M  V30 25 C -2.722073 -3.381199 1.688612 0
M  V30 26 C -2.365554 -3.650892 3.081458 0
M  V30 27 O -2.817326 -4.703588 3.611650 0
M  V30 28 O -1.572582 -2.812235 3.812594 0
M  V30 29 C -1.168832 -2.969681 5.148170 0
M  V30 30 C 0.340805 -2.902579 5.329537 0
M  V30 31 C -1.731466 -1.770721 5.923369 0
M  V30 32 C -2.280454 -2.262103 1.024617 0
M  V30 33 C 0.896438 0.413899 -2.595213 0
M  V30 34 C 1.951021 0.052232 -1.560507 0
M  V30 35 C 3.328652 0.568361 1.599455 0
M  V30 36 H 0.545007 -0.258878 1.352975 0
M  V30 37 H 0.380043 -0.183320 3.102656 0
M  V30 38 H 0.380239 1.358108 2.267923 0
M  V30 39 H 2.453781 -0.181213 4.609214 0
M  V30 40 H 5.016176 -0.029348 4.209656 0
M  V30 41 H 6.485545 1.110565 -0.400653 0
M  V30 42 H 1.246599 2.773136 -1.371808 0
M  V30 43 H 0.942709 2.676621 0.357019 0
M  V30 44 H -1.025235 2.413252 -1.090664 0
M  V30 45 H -0.920481 1.107302 0.073862 0
M  V30 46 H -2.431993 1.290801 -2.448261 0
M  V30 47 H -1.097914 2.081911 -3.285803 0
M  V30 48 H -0.336607 -0.786876 -5.278213 0
M  V30 49 H -1.175026 0.462961 -6.178464 0
M  V30 50 H 0.031772 1.024862 -5.035341 0
M  V30 51 H -3.534327 1.428772 -4.078027 0
M  V30 52 H -3.648445 -0.199694 -4.745039 0
M  V30 53 H -2.881121 1.105255 -5.785700 0
M  V30 54 H -2.759893 -0.020134 -0.692647 0
M  V30 55 H -3.700976 -2.718332 -1.996037 0
M  V30 56 H -4.549876 -4.793302 -0.846165 0
M  V30 57 H -3.887363 -5.174602 1.534730 0
M  V30 58 H -1.569837 -3.898312 5.613249 0
M  V30 59 H 0.875000 -3.712311 4.815347 0
M  V30 60 H 0.660368 -1.956556 4.809279 0
M  V30 61 H 0.532010 -2.847477 6.418812 0
M  V30 62 H -2.145216 -2.063140 6.905590 0
M  V30 63 H -2.552781 -1.286788 5.352587 0
M  V30 64 H -0.949185 -0.965465 6.038986 0
M  V30 65 H -1.653298 -1.595816 1.595964 0
M  V30 66 H 1.164517 1.416013 -2.981934 0
M  V30 67 H 0.978075 -0.367519 -3.384145 0
M  V30 68 H 1.835549 -0.954362 -1.159497 0
M  V30 69 H 2.914615 0.072911 -2.111532 0
M  V30 END ATOM
M  V30 BEGIN BOND
M  V30 1 1 1 2
M  V30 2 2 2 3
M  V30 3 1 3 4
M  V30 4 1 4 5
M  V30 5 2 5 6
M  V30 6 1 6 7
M  V30 7 2 7 8
M  V30 8 1 8 9
M  V30 9 1 9 10
M  V30 10 1 10 11
M  V30 11 1 11 12
M  V30 12 1 12 13
M  V30 13 1 13 14
M  V30 14 1 14 15
M  V30 15 1 15 16
M  V30 16 1 15 17
M  V30 17 1 13 18
M  V30 18 2 18 19
M  V30 19 1 18 20
M  V30 20 1 20 21
M  V30 21 2 21 22
M  V30 22 1 22 23
M  V30 23 2 23 24
M  V30 24 1 24 25
M  V30 25 1 25 26
M  V30 26 2 26 27
M  V30 27 1 26 28
M  V30 28 1 28 29
M  V30 29 1 29 30
M  V30 30 1 29 31
M  V30 31 2 25 32
M  V30 32 1 13 33
M  V30 33 1 33 34
M  V30 34 2 9 35
M  V30 35 1 35 2
M  V30 36 1 35 5
M  V30 37 1 34 10
M  V30 38 1 32 21
M  V30 39 1 1 36
M  V30 40 1 1 37
M  V30 41 1 1 38
M  V30 42 1 3 39
M  V30 43 1 4 40
M  V30 44 1 7 41
M  V30 45 1 11 42
M  V30 46 1 11 43
M  V30 47 1 12 44
M  V30 48 1 12 45
M  V30 49 1 14 46
M  V30 50 1 14 47
M  V30 51 1 16 48
M  V30 52 1 16 49
M  V30 53 1 16 50
M  V30 54 1 17 51
M  V30 55 1 17 52
M  V30 56 1 17 53
M  V30 57 1 20 54
M  V30 58 1 22 55
M  V30 59 1 23 56
M  V30 60 1 24 57
M  V30 61 1 29 58
M  V30 62 1 30 59
M  V30 63 1 30 60
M  V30 64 1 30 61
M  V30 65 1 31 62
M  V30 66 1 31 63
M  V30 67 1 31 64
M  V30 68 1 32 65
M  V30 69 1 33 66
M  V30 70 1 33 67
M  V30 71 1 34 68
M  V30 72 1 34 69
M  V30 END BOND
M  V30 END CTAB
M  END
>  <Dataset>  (737) 
ChEMBL_Kinases

>  <Ligand_Instance>  (737) 
nan

>  <PDB_ID>  (737) 
nan

>  <Standardized_SMILES>  (737) 
Cc1c[nH]c2ncnc(N3CCC(CN(C)C)(C(=O)Nc4cccc(C(=O)OC(C)C)c4)CC3)c12

>  <Name>  (737) 
nan

>  <Pocket>  (737) 
nan

>  <ATP_Site>  (737) 
nan

>  <Peripheral>  (737) 
nan

>  <Num_H_Atoms_ProtBoundConf>  (737) 
nan

>  <Num_Resolved_Atoms>  (737) 
nan

>  <Num_Not_Resolved_Atoms>  (737) 
nan

$$$$
CHEMBL3613608
     RDKit          3D

  0  0  0  0  0  0  0  0  0  0999 V3000
M  V30 BEGIN CTAB
M  V30 COUNTS 72 75 0 0 0
M  V30 BEGIN ATOM
M  V30 1 C 4.125419 -1.246518 5.964287 0
M  V30 2 C 3.666021 -0.667614 4.647580 0
M  V30 3 C 4.587299 -1.094637 3.514377 0
M  V30 4 C 4.603135 -2.604750 3.389897 0
M  V30 5 O 4.186158 -0.578300 2.284267 0
M  V30 6 C 4.942062 0.220490 1.440557 0
M  V30 7 O 6.119738 0.610339 1.651036 0
M  V30 8 C 4.325333 0.655669 0.189826 0
M  V30 9 C 5.053339 1.453766 -0.668897 0
M  V30 10 C 4.472028 1.870244 -1.858318 0
M  V30 11 C 3.185212 1.495193 -2.183189 0
M  V30 12 C 2.431068 0.698473 -1.347016 0
M  V30 13 N 1.098126 0.252530 -1.579627 0
M  V30 14 C -0.132170 0.902187 -1.195477 0
M  V30 15 O 0.258717 1.965967 -0.600463 0
M  V30 16 C -1.263786 0.078733 -1.643102 0
M  V30 17 C -1.389025 -0.151886 -3.100826 0
M  V30 18 N -1.555607 1.032357 -3.904001 0
M  V30 19 C -1.691622 0.539170 -5.288927 0
M  V30 20 C -0.435926 1.923014 -3.925317 0
M  V30 21 C -1.233116 -1.203189 -0.838051 0
M  V30 22 C -1.866442 -1.039763 0.513270 0
M  V30 23 N -3.320563 -0.924032 0.402322 0
M  V30 24 C -4.450809 -1.240297 1.199678 0
M  V30 25 N -5.111206 -0.109560 1.546874 0
M  V30 26 C -6.227897 -0.177927 2.327610 0
M  V30 27 N -6.695431 -1.357167 2.766905 0
M  V30 28 C -6.068075 -2.500312 2.443522 0
M  V30 29 N -6.224317 -3.818356 2.677424 0
M  V30 30 C -5.251901 -4.546330 2.071969 0
M  V30 31 C -4.390124 -3.676216 1.391126 0
M  V30 32 C -3.200442 -4.019973 0.591833 0
M  V30 33 C -4.940869 -2.442605 1.656386 0
M  V30 34 C -3.582783 -0.306121 -0.910161 0
M  V30 35 C -2.559481 0.784036 -1.212047 0
M  V30 36 C 3.030526 0.291990 -0.161592 0
M  V30 37 H 5.174381 -1.600926 5.920956 0
M  V30 38 H 3.444426 -2.067599 6.322079 0
M  V30 39 H 4.083665 -0.481112 6.745932 0
M  V30 40 H 2.635038 -0.970100 4.462008 0
M  V30 41 H 3.747911 0.449019 4.723182 0
M  V30 42 H 5.623805 -0.767309 3.725354 0
M  V30 43 H 3.548157 -2.992778 3.303126 0
M  V30 44 H 5.081903 -2.837677 2.411579 0
M  V30 45 H 5.130737 -3.108256 4.229341 0
M  V30 46 H 6.064690 1.790561 -0.488556 0
M  V30 47 H 5.011646 2.497509 -2.558497 0
M  V30 48 H 2.719811 1.805997 -3.095417 0
M  V30 49 H 1.359158 -0.632049 -2.082530 0
M  V30 50 H -0.626929 -0.843038 -3.519661 0
M  V30 51 H -2.356866 -0.720851 -3.244381 0
M  V30 52 H -2.689670 0.090342 -5.435084 0
M  V30 53 H -1.595740 1.375714 -6.016969 0
M  V30 54 H -0.879192 -0.196775 -5.519363 0
M  V30 55 H -0.430742 2.691736 -3.133215 0
M  V30 56 H -0.561786 2.526344 -4.877150 0
M  V30 57 H 0.555576 1.409385 -4.048847 0
M  V30 58 H -0.150799 -1.453394 -0.630880 0
M  V30 59 H -1.615501 -2.030483 -1.440938 0
M  V30 60 H -1.559010 -0.033626 0.938998 0
M  V30 61 H -1.525127 -1.764635 1.243495 0
M  V30 62 H -6.785805 0.698709 2.628551 0
M  V30 63 H -7.011883 -4.218374 3.261937 0
M  V30 64 H -5.141843 -5.624370 2.098249 0
M  V30 65 H -3.345117 -5.104513 0.299457 0
M  V30 66 H -3.153845 -3.492078 -0.371834 0
M  V30 67 H -2.254630 -4.036805 1.167250 0
M  V30 68 H -3.670835 -1.030330 -1.715015 0
M  V30 69 H -4.552316 0.227333 -0.844392 0
M  V30 70 H -2.955130 1.380012 -2.048535 0
M  V30 71 H -2.406335 1.419104 -0.332982 0
M  V30 72 H 2.477881 -0.341424 0.539651 0
M  V30 END ATOM
M  V30 BEGIN BOND
M  V30 1 1 1 2
M  V30 2 1 2 3
M  V30 3 1 3 4
M  V30 4 1 3 5
M  V30 5 1 5 6
M  V30 6 2 6 7
M  V30 7 1 6 8
M  V30 8 2 8 9
M  V30 9 1 9 10
M  V30 10 2 10 11
M  V30 11 1 11 12
M  V30 12 1 12 13
M  V30 13 1 13 14
M  V30 14 2 14 15
M  V30 15 1 14 16
M  V30 16 1 16 17
M  V30 17 1 17 18
M  V30 18 1 18 19
M  V30 19 1 18 20
M  V30 20 1 16 21
M  V30 21 1 21 22
M  V30 22 1 22 23
M  V30 23 1 23 24
M  V30 24 2 24 25
M  V30 25 1 25 26
M  V30 26 2 26 27
M  V30 27 1 27 28
M  V30 28 1 28 29
M  V30 29 1 29 30
M  V30 30 2 30 31
M  V30 31 1 31 32
M  V30 32 1 31 33
M  V30 33 1 23 34
M  V30 34 1 34 35
M  V30 35 2 12 36
M  V30 36 1 36 8
M  V30 37 1 35 16
M  V30 38 1 33 24
M  V30 39 2 33 28
M  V30 40 1 1 37
M  V30 41 1 1 38
M  V30 42 1 1 39
M  V30 43 1 2 40
M  V30 44 1 2 41
M  V30 45 1 3 42
M  V30 46 1 4 43
M  V30 47 1 4 44
M  V30 48 1 4 45
M  V30 49 1 9 46
M  V30 50 1 10 47
M  V30 51 1 11 48
M  V30 52 1 13 49
M  V30 53 1 17 50
M  V30 54 1 17 51
M  V30 55 1 19 52
M  V30 56 1 19 53
M  V30 57 1 19 54
M  V30 58 1 20 55
M  V30 59 1 20 56
M  V30 60 1 20 57
M  V30 61 1 21 58
M  V30 62 1 21 59
M  V30 63 1 22 60
M  V30 64 1 22 61
M  V30 65 1 26 62
M  V30 66 1 29 63
M  V30 67 1 30 64
M  V30 68 1 32 65
M  V30 69 1 32 66
M  V30 70 1 32 67
M  V30 71 1 34 68
M  V30 72 1 34 69
M  V30 73 1 35 70
M  V30 74 1 35 71
M  V30 75 1 36 72
M  V30 END BOND
M  V30 END CTAB
M  END
>  <Dataset>  (738) 
ChEMBL_Kinases

>  <Ligand_Instance>  (738) 
nan

>  <PDB_ID>  (738) 
nan

>  <Standardized_SMILES>  (738) 
CCC(C)OC(=O)c1cccc(NC(=O)C2(CN(C)C)CCN(c3ncnc4[nH]cc(C)c34)CC2)c1

>  <Name>  (738) 
nan

>  <Pocket>  (738) 
nan

>  <ATP_Site>  (738) 
nan

>  <Peripheral>  (738) 
nan

>  <Num_H_Atoms_ProtBoundConf>  (738) 
nan

>  <Num_Resolved_Atoms>  (738) 
nan

>  <Num_Not_Resolved_Atoms>  (738) 
nan

$$$$
CHEMBL3613622
     RDKit          3D

  0  0  0  0  0  0  0  0  0  0999 V3000
M  V30 BEGIN CTAB
M  V30 COUNTS 63 66 0 0 0
M  V30 BEGIN ATOM
M  V30 1 C 7.756223 -0.454473 3.854738 0
M  V30 2 O 6.894112 0.579786 3.364167 0
M  V30 3 C 5.681304 0.178512 2.830052 0
M  V30 4 O 5.659510 -1.076665 2.925090 0
M  V30 5 C 4.686344 1.098342 2.286544 0
M  V30 6 C 4.921303 2.458229 2.293023 0
M  V30 7 C 3.945165 3.278177 1.766092 0
M  V30 8 C 2.797331 2.703281 1.265252 0
M  V30 9 C 2.536430 1.355562 1.245356 0
M  V30 10 N 1.375456 0.712277 0.744054 0
M  V30 11 C 0.218375 1.281032 0.165684 0
M  V30 12 O 0.148518 2.531138 0.053228 0
M  V30 13 C -0.927250 0.472874 -0.320578 0
M  V30 14 C -1.560023 -0.382458 0.749029 0
M  V30 15 N -2.099009 0.293490 1.867087 0
M  V30 16 C -1.177643 0.919594 2.755120 0
M  V30 17 C -2.885911 -0.667156 2.628126 0
M  V30 18 C -0.428426 -0.363844 -1.479042 0
M  V30 19 C -1.430589 -0.592886 -2.557266 0
M  V30 20 N -2.751298 -0.643158 -1.970306 0
M  V30 21 C -3.627248 -1.749669 -2.144882 0
M  V30 22 N -4.782863 -1.425946 -2.728885 0
M  V30 23 C -5.756702 -2.347566 -2.984884 0
M  V30 24 N -5.541900 -3.648092 -2.630959 0
M  V30 25 C -4.392880 -4.019663 -2.040394 0
M  V30 26 N -3.853811 -5.161438 -1.572151 0
M  V30 27 C -2.624551 -4.955190 -1.059965 0
M  V30 28 C -1.755044 -6.001093 -0.461834 0
M  V30 29 C -2.322193 -3.606098 -1.190706 0
M  V30 30 C -3.433496 -3.059141 -1.798740 0
M  V30 31 C -3.206010 0.491632 -1.171732 0
M  V30 32 C -2.013529 1.384134 -0.893333 0
M  V30 33 C 3.530606 0.567911 1.778529 0
M  V30 34 H 8.168209 -1.031585 2.983925 0
M  V30 35 H 8.572822 -0.041790 4.480117 0
M  V30 36 H 7.175729 -1.142149 4.535548 0
M  V30 37 H 5.828930 2.899759 2.689975 0
M  V30 38 H 4.085499 4.350119 1.750096 0
M  V30 39 H 2.077029 3.379529 0.870620 0
M  V30 40 H 1.310827 -0.327672 0.781214 0
M  V30 41 H -2.241323 -1.146338 0.327177 0
M  V30 42 H -0.701608 -1.007358 1.147593 0
M  V30 43 H -1.629900 1.024468 3.792238 0
M  V30 44 H -0.935954 1.959552 2.478344 0
M  V30 45 H -0.255600 0.295759 2.948377 0
M  V30 46 H -2.454688 -1.698252 2.601326 0
M  V30 47 H -3.043581 -0.336323 3.670567 0
M  V30 48 H -3.896387 -0.697738 2.166931 0
M  V30 49 H 0.089572 -1.278411 -1.122253 0
M  V30 50 H 0.404096 0.234677 -1.960213 0
M  V30 51 H -1.214326 -1.449214 -3.204496 0
M  V30 52 H -1.447281 0.294501 -3.257536 0
M  V30 53 H -6.707350 -2.137894 -3.454209 0
M  V30 54 H -4.328207 -6.097095 -1.600606 0
M  V30 55 H -0.906142 -5.542348 0.076155 0
M  V30 56 H -1.322744 -6.615328 -1.271688 0
M  V30 57 H -2.279268 -6.646141 0.262802 0
M  V30 58 H -1.429308 -3.113014 -0.886410 0
M  V30 59 H -3.756007 0.215923 -0.276860 0
M  V30 60 H -3.901426 1.085157 -1.817133 0
M  V30 61 H -2.274306 2.203805 -0.209844 0
M  V30 62 H -1.624264 1.786384 -1.847000 0
M  V30 63 H 3.401194 -0.504987 1.800020 0
M  V30 END ATOM
M  V30 BEGIN BOND
M  V30 1 1 1 2
M  V30 2 1 2 3
M  V30 3 2 3 4
M  V30 4 1 3 5
M  V30 5 2 5 6
M  V30 6 1 6 7
M  V30 7 2 7 8
M  V30 8 1 8 9
M  V30 9 1 9 10
M  V30 10 1 10 11
M  V30 11 2 11 12
M  V30 12 1 11 13
M  V30 13 1 13 14
M  V30 14 1 14 15
M  V30 15 1 15 16
M  V30 16 1 15 17
M  V30 17 1 13 18
M  V30 18 1 18 19
M  V30 19 1 19 20
M  V30 20 1 20 21
M  V30 21 2 21 22
M  V30 22 1 22 23
M  V30 23 2 23 24
M  V30 24 1 24 25
M  V30 25 1 25 26
M  V30 26 1 26 27
M  V30 27 1 27 28
M  V30 28 2 27 29
M  V30 29 1 29 30
M  V30 30 1 20 31
M  V30 31 1 31 32
M  V30 32 2 9 33
M  V30 33 1 33 5
M  V30 34 1 32 13
M  V30 35 1 30 21
M  V30 36 2 30 25
M  V30 37 1 1 34
M  V30 38 1 1 35
M  V30 39 1 1 36
M  V30 40 1 6 37
M  V30 41 1 7 38
M  V30 42 1 8 39
M  V30 43 1 10 40
M  V30 44 1 14 41
M  V30 45 1 14 42
M  V30 46 1 16 43
M  V30 47 1 16 44
M  V30 48 1 16 45
M  V30 49 1 17 46
M  V30 50 1 17 47
M  V30 51 1 17 48
M  V30 52 1 18 49
M  V30 53 1 18 50
M  V30 54 1 19 51
M  V30 55 1 19 52
M  V30 56 1 23 53
M  V30 57 1 26 54
M  V30 58 1 28 55
M  V30 59 1 28 56
M  V30 60 1 28 57
M  V30 61 1 29 58
M  V30 62 1 31 59
M  V30 63 1 31 60
M  V30 64 1 32 61
M  V30 65 1 32 62
M  V30 66 1 33 63
M  V30 END BOND
M  V30 END CTAB
M  END
>  <Dataset>  (739) 
ChEMBL_Kinases

>  <Ligand_Instance>  (739) 
nan

>  <PDB_ID>  (739) 
nan

>  <Standardized_SMILES>  (739) 
COC(=O)c1cccc(NC(=O)C2(CN(C)C)CCN(c3ncnc4[nH]c(C)cc34)CC2)c1

>  <Name>  (739) 
nan

>  <Pocket>  (739) 
nan

>  <ATP_Site>  (739) 
nan

>  <Peripheral>  (739) 
nan

>  <Num_H_Atoms_ProtBoundConf>  (739) 
nan

>  <Num_Resolved_Atoms>  (739) 
nan

>  <Num_Not_Resolved_Atoms>  (739) 
nan

$$$$
CHEMBL3613610
     RDKit          3D

  0  0  0  0  0  0  0  0  0  0999 V3000
M  V30 BEGIN CTAB
M  V30 COUNTS 60 63 0 0 0
M  V30 BEGIN ATOM
M  V30 1 C 2.128868 1.509451 7.144245 0
M  V30 2 O 2.420442 1.109886 5.817720 0
M  V30 3 C 3.682113 1.023678 5.300455 0
M  V30 4 O 4.670577 1.312969 6.027488 0
M  V30 5 C 3.974513 0.610032 3.930322 0
M  V30 6 C 5.288599 0.559767 3.512875 0
M  V30 7 C 5.641352 0.177798 2.235424 0
M  V30 8 C 4.643854 -0.165407 1.347234 0
M  V30 9 C 3.319592 -0.126376 1.732208 0
M  V30 10 N 2.170801 -0.445766 0.956887 0
M  V30 11 C 1.369527 0.351459 0.131246 0
M  V30 12 O 1.679775 1.586615 0.020013 0
M  V30 13 C 0.215395 -0.267551 -0.564865 0
M  V30 14 C -0.720729 -0.815889 0.445221 0
M  V30 15 N -1.287641 0.079647 1.398902 0
M  V30 16 C -2.242845 0.980942 0.815332 0
M  V30 17 C -2.008178 -0.753398 2.368975 0
M  V30 18 C -0.335247 0.648862 -1.602710 0
M  V30 19 C -1.086004 -0.041800 -2.689914 0
M  V30 20 N -1.367538 -1.446403 -2.468011 0
M  V30 21 C -2.697795 -1.838606 -2.802614 0
M  V30 22 N -3.646125 -0.910560 -3.064571 0
M  V30 23 C -4.914940 -1.216540 -3.362478 0
M  V30 24 N -5.348245 -2.488644 -3.424777 0
M  V30 25 C -4.463126 -3.471497 -3.177072 0
M  V30 26 N -4.608139 -4.806565 -3.175719 0
M  V30 27 C -3.423506 -5.355804 -2.875503 0
M  V30 28 C -2.535718 -4.318084 -2.690030 0
M  V30 29 C -3.180011 -3.128846 -2.876950 0
M  V30 30 C -0.327686 -2.272579 -1.944792 0
M  V30 31 C 0.815871 -1.438671 -1.395221 0
M  V30 32 C 2.980805 0.264286 3.033554 0
M  V30 33 H 1.038896 1.503469 7.268050 0
M  V30 34 H 2.589730 0.830392 7.891761 0
M  V30 35 H 2.490047 2.553756 7.239209 0
M  V30 36 H 6.093336 0.819568 4.174894 0
M  V30 37 H 6.665768 0.125098 1.864882 0
M  V30 38 H 4.784617 -0.483291 0.312691 0
M  V30 39 H 2.046161 -1.468948 1.149988 0
M  V30 40 H -0.131485 -1.608721 1.010346 0
M  V30 41 H -1.579056 -1.373694 -0.011789 0
M  V30 42 H -2.653918 0.590706 -0.159589 0
M  V30 43 H -3.178479 1.028676 1.472539 0
M  V30 44 H -1.929806 2.029880 0.755635 0
M  V30 45 H -1.342805 -1.435643 2.915948 0
M  V30 46 H -2.679567 -1.406462 1.745384 0
M  V30 47 H -2.672423 -0.155841 2.998455 0
M  V30 48 H 0.602303 1.065513 -2.128500 0
M  V30 49 H -0.817710 1.560628 -1.234850 0
M  V30 50 H -0.564002 -0.017583 -3.693342 0
M  V30 51 H -2.017508 0.562967 -2.871546 0
M  V30 52 H -5.563876 -0.369490 -3.548473 0
M  V30 53 H -5.499877 -5.308254 -3.377104 0
M  V30 54 H -3.238794 -6.418605 -2.802018 0
M  V30 55 H -1.526193 -4.512875 -2.447672 0
M  V30 56 H 0.116074 -2.861903 -2.765638 0
M  V30 57 H -0.689937 -2.867750 -1.078313 0
M  V30 58 H 1.357434 -0.948634 -2.222303 0
M  V30 59 H 1.479075 -2.010999 -0.725418 0
M  V30 60 H 1.970058 0.326671 3.428765 0
M  V30 END ATOM
M  V30 BEGIN BOND
M  V30 1 1 1 2
M  V30 2 1 2 3
M  V30 3 2 3 4
M  V30 4 1 3 5
M  V30 5 2 5 6
M  V30 6 1 6 7
M  V30 7 2 7 8
M  V30 8 1 8 9
M  V30 9 1 9 10
M  V30 10 1 10 11
M  V30 11 2 11 12
M  V30 12 1 11 13
M  V30 13 1 13 14
M  V30 14 1 14 15
M  V30 15 1 15 16
M  V30 16 1 15 17
M  V30 17 1 13 18
M  V30 18 1 18 19
M  V30 19 1 19 20
M  V30 20 1 20 21
M  V30 21 2 21 22
M  V30 22 1 22 23
M  V30 23 2 23 24
M  V30 24 1 24 25
M  V30 25 1 25 26
M  V30 26 1 26 27
M  V30 27 2 27 28
M  V30 28 1 28 29
M  V30 29 1 20 30
M  V30 30 1 30 31
M  V30 31 2 9 32
M  V30 32 1 32 5
M  V30 33 1 31 13
M  V30 34 1 29 21
M  V30 35 2 29 25
M  V30 36 1 1 33
M  V30 37 1 1 34
M  V30 38 1 1 35
M  V30 39 1 6 36
M  V30 40 1 7 37
M  V30 41 1 8 38
M  V30 42 1 10 39
M  V30 43 1 14 40
M  V30 44 1 14 41
M  V30 45 1 16 42
M  V30 46 1 16 43
M  V30 47 1 16 44
M  V30 48 1 17 45
M  V30 49 1 17 46
M  V30 50 1 17 47
M  V30 51 1 18 48
M  V30 52 1 18 49
M  V30 53 1 19 50
M  V30 54 1 19 51
M  V30 55 1 23 52
M  V30 56 1 26 53
M  V30 57 1 27 54
M  V30 58 1 28 55
M  V30 59 1 30 56
M  V30 60 1 30 57
M  V30 61 1 31 58
M  V30 62 1 31 59
M  V30 63 1 32 60
M  V30 END BOND
M  V30 END CTAB
M  END
>  <Dataset>  (740) 
ChEMBL_Kinases

>  <Ligand_Instance>  (740) 
nan

>  <PDB_ID>  (740) 
nan

>  <Standardized_SMILES>  (740) 
COC(=O)c1cccc(NC(=O)C2(CN(C)C)CCN(c3ncnc4[nH]ccc34)CC2)c1

>  <Name>  (740) 
nan

>  <Pocket>  (740) 
nan

>  <ATP_Site>  (740) 
nan

>  <Peripheral>  (740) 
nan

>  <Num_H_Atoms_ProtBoundConf>  (740) 
nan

>  <Num_Resolved_Atoms>  (740) 
nan

>  <Num_Not_Resolved_Atoms>  (740) 
nan

$$$$
CHEMBL3613611
     RDKit          3D

  0  0  0  0  0  0  0  0  0  0999 V3000
M  V30 BEGIN CTAB
M  V30 COUNTS 59 62 0 0 0
M  V30 BEGIN ATOM
M  V30 1 C 4.572491 -3.060071 5.941418 0
M  V30 2 O 4.226392 -2.271405 4.806311 0
M  V30 3 C 4.849099 -1.066360 4.517542 0
M  V30 4 O 5.718649 -0.827236 5.394918 0
M  V30 5 C 4.505309 -0.245251 3.358901 0
M  V30 6 C 5.182210 0.936969 3.157305 0
M  V30 7 C 4.814451 1.675084 2.047682 0
M  V30 8 C 3.815194 1.245008 1.183805 0
M  V30 9 C 3.165268 0.040704 1.439059 0
M  V30 10 N 2.099842 -0.462554 0.580394 0
M  V30 11 C 0.840011 0.038429 1.077261 0
M  V30 12 O 1.391265 0.673894 2.043566 0
M  V30 13 C -0.253423 -0.449775 0.231912 0
M  V30 14 C -1.563808 0.026709 0.732845 0
M  V30 15 N -1.835960 1.402541 0.798323 0
M  V30 16 C -1.137331 2.203486 1.760050 0
M  V30 17 C -3.255747 1.554937 1.118055 0
M  V30 18 C -0.241828 -1.957568 0.228759 0
M  V30 19 C -1.194514 -2.575391 -0.728223 0
M  V30 20 N -1.620318 -1.725784 -1.794375 0
M  V30 21 C -2.881332 -1.661689 -2.445108 0
M  V30 22 N -3.628212 -0.522254 -2.405423 0
M  V30 23 C -4.822745 -0.465237 -3.024076 0
M  V30 24 N -5.363331 -1.474964 -3.704050 0
M  V30 25 C -4.673757 -2.636799 -3.783118 0
M  V30 26 N -4.950924 -3.810827 -4.386743 0
M  V30 27 N -3.914176 -4.629287 -4.147807 0
M  V30 28 C -2.998534 -3.982246 -3.406144 0
M  V30 29 C -3.434177 -2.694540 -3.140705 0
M  V30 30 C -0.584440 -0.835961 -2.230025 0
M  V30 31 C 0.042879 0.004588 -1.178472 0
M  V30 32 C 3.507821 -0.727851 2.543471 0
M  V30 33 H 3.720751 -3.761999 6.178061 0
M  V30 34 H 5.484511 -3.641100 5.824534 0
M  V30 35 H 4.570522 -2.359882 6.818324 0
M  V30 36 H 5.955286 1.315351 3.785621 0
M  V30 37 H 5.249370 2.620932 1.756074 0
M  V30 38 H 3.479886 1.777891 0.296736 0
M  V30 39 H 2.441041 -1.088166 -0.225195 0
M  V30 40 H -1.747567 -0.386853 1.779494 0
M  V30 41 H -2.389204 -0.486886 0.145859 0
M  V30 42 H -0.996379 1.719376 2.737114 0
M  V30 43 H -1.789077 3.107677 2.019441 0
M  V30 44 H -0.231233 2.695678 1.340214 0
M  V30 45 H -3.477210 1.128363 2.128388 0
M  V30 46 H -3.906889 1.067951 0.398094 0
M  V30 47 H -3.526726 2.645713 1.146856 0
M  V30 48 H 0.815127 -2.277728 0.052444 0
M  V30 49 H -0.443379 -2.282035 1.290628 0
M  V30 50 H -0.636926 -3.425765 -1.228131 0
M  V30 51 H -2.057037 -2.997262 -0.139890 0
M  V30 52 H -5.451058 0.437681 -3.012259 0
M  V30 53 H -5.816438 -3.997227 -4.922672 0
M  V30 54 H -2.035963 -4.368410 -3.040013 0
M  V30 55 H -0.973541 -0.129691 -3.016265 0
M  V30 56 H 0.158680 -1.473698 -2.788961 0
M  V30 57 H 1.140317 -0.014160 -1.309722 0
M  V30 58 H -0.221181 1.097816 -1.294526 0
M  V30 59 H 2.976860 -1.657803 2.701992 0
M  V30 END ATOM
M  V30 BEGIN BOND
M  V30 1 1 1 2
M  V30 2 1 2 3
M  V30 3 2 3 4
M  V30 4 1 3 5
M  V30 5 2 5 6
M  V30 6 1 6 7
M  V30 7 2 7 8
M  V30 8 1 8 9
M  V30 9 1 9 10
M  V30 10 1 10 11
M  V30 11 2 11 12
M  V30 12 1 11 13
M  V30 13 1 13 14
M  V30 14 1 14 15
M  V30 15 1 15 16
M  V30 16 1 15 17
M  V30 17 1 13 18
M  V30 18 1 18 19
M  V30 19 1 19 20
M  V30 20 1 20 21
M  V30 21 2 21 22
M  V30 22 1 22 23
M  V30 23 2 23 24
M  V30 24 1 24 25
M  V30 25 1 25 26
M  V30 26 1 26 27
M  V30 27 2 27 28
M  V30 28 1 28 29
M  V30 29 1 20 30
M  V30 30 1 30 31
M  V30 31 2 9 32
M  V30 32 1 32 5
M  V30 33 1 31 13
M  V30 34 1 29 21
M  V30 35 2 29 25
M  V30 36 1 1 33
M  V30 37 1 1 34
M  V30 38 1 1 35
M  V30 39 1 6 36
M  V30 40 1 7 37
M  V30 41 1 8 38
M  V30 42 1 10 39
M  V30 43 1 14 40
M  V30 44 1 14 41
M  V30 45 1 16 42
M  V30 46 1 16 43
M  V30 47 1 16 44
M  V30 48 1 17 45
M  V30 49 1 17 46
M  V30 50 1 17 47
M  V30 51 1 18 48
M  V30 52 1 18 49
M  V30 53 1 19 50
M  V30 54 1 19 51
M  V30 55 1 23 52
M  V30 56 1 26 53
M  V30 57 1 28 54
M  V30 58 1 30 55
M  V30 59 1 30 56
M  V30 60 1 31 57
M  V30 61 1 31 58
M  V30 62 1 32 59
M  V30 END BOND
M  V30 END CTAB
M  END
>  <Dataset>  (741) 
ChEMBL_Kinases

>  <Ligand_Instance>  (741) 
nan

>  <PDB_ID>  (741) 
nan

>  <Standardized_SMILES>  (741) 
COC(=O)c1cccc(NC(=O)C2(CN(C)C)CCN(c3ncnc4[nH]ncc34)CC2)c1

>  <Name>  (741) 
nan

>  <Pocket>  (741) 
nan

>  <ATP_Site>  (741) 
nan

>  <Peripheral>  (741) 
nan

>  <Num_H_Atoms_ProtBoundConf>  (741) 
nan

>  <Num_Resolved_Atoms>  (741) 
nan

>  <Num_Not_Resolved_Atoms>  (741) 
nan

$$$$
CHEMBL3613612
     RDKit          3D

  0  0  0  0  0  0  0  0  0  0999 V3000
M  V30 BEGIN CTAB
M  V30 COUNTS 60 63 0 0 0
M  V30 BEGIN ATOM
M  V30 1 C 2.382371 1.161760 6.893269 0
M  V30 2 O 2.724482 1.026842 5.523203 0
M  V30 3 C 3.971613 1.333849 5.001003 0
M  V30 4 O 4.858047 1.760762 5.798399 0
M  V30 5 C 4.279638 1.180126 3.585626 0
M  V30 6 C 5.528041 1.494370 3.104733 0
M  V30 7 C 5.712270 1.314416 1.751067 0
M  V30 8 C 4.726864 0.850163 0.906716 0
M  V30 9 C 3.483170 0.537120 1.387012 0
M  V30 10 N 2.546537 0.075080 0.440032 0
M  V30 11 C 1.221182 -0.315330 0.703731 0
M  V30 12 O 0.700675 -0.301086 1.843186 0
M  V30 13 C 0.122857 -0.809950 -0.137196 0
M  V30 14 C -1.099865 -1.098040 0.648312 0
M  V30 15 N -1.704448 -0.060103 1.405035 0
M  V30 16 C -2.346872 0.975197 0.660473 0
M  V30 17 C -2.664754 -0.648202 2.317356 0
M  V30 18 C -0.141973 -0.046522 -1.373036 0
M  V30 19 C -0.451420 -0.926316 -2.565282 0
M  V30 20 N -1.254219 -2.087971 -2.237178 0
M  V30 21 C -2.549811 -2.281303 -2.745503 0
M  V30 22 C -3.201256 -1.211796 -3.326315 0
M  V30 23 C -4.489164 -1.332413 -3.816242 0
M  V30 24 N -5.176311 -2.486259 -3.756606 0
M  V30 25 C -4.571935 -3.547969 -3.197666 0
M  V30 26 N -5.007819 -4.806563 -3.011961 0
M  V30 27 N -4.027015 -5.498962 -2.413668 0
M  V30 28 C -2.980967 -4.675640 -2.225463 0
M  V30 29 C -3.288697 -3.443862 -2.704871 0
M  V30 30 C -0.526433 -2.934261 -1.326861 0
M  V30 31 C 0.617782 -2.194990 -0.639719 0
M  V30 32 C 3.300742 0.716434 2.733583 0
M  V30 33 H 1.332800 0.789142 6.965446 0
M  V30 34 H 2.990096 0.536795 7.556907 0
M  V30 35 H 2.384079 2.238803 7.151575 0
M  V30 36 H 6.293276 1.857376 3.775217 0
M  V30 37 H 6.677355 1.549674 1.336240 0
M  V30 38 H 4.973918 0.743975 -0.141907 0
M  V30 39 H 2.751708 -0.023987 -0.569949 0
M  V30 40 H -0.875029 -1.953107 1.363746 0
M  V30 41 H -1.930377 -1.458223 -0.045548 0
M  V30 42 H -2.891853 0.611940 -0.259012 0
M  V30 43 H -3.201960 1.382774 1.311312 0
M  V30 44 H -1.742542 1.883727 0.482895 0
M  V30 45 H -2.166916 -1.114720 3.198006 0
M  V30 46 H -3.202235 -1.473460 1.800022 0
M  V30 47 H -3.448121 0.075335 2.630319 0
M  V30 48 H 0.846357 0.451492 -1.655840 0
M  V30 49 H -0.850581 0.774315 -1.343356 0
M  V30 50 H -0.869741 -0.328403 -3.396222 0
M  V30 51 H 0.518218 -1.332519 -2.993003 0
M  V30 52 H -2.846937 -0.212684 -3.470921 0
M  V30 53 H -5.069660 -0.529119 -4.288880 0
M  V30 54 H -5.925345 -5.250377 -3.256278 0
M  V30 55 H -2.078036 -4.996926 -1.772849 0
M  V30 56 H -0.050657 -3.736731 -1.918588 0
M  V30 57 H -1.158057 -3.291005 -0.483818 0
M  V30 58 H 1.460237 -1.965615 -1.313888 0
M  V30 59 H 1.002455 -2.777492 0.216446 0
M  V30 60 H 2.340913 0.485475 3.161627 0
M  V30 END ATOM
M  V30 BEGIN BOND
M  V30 1 1 1 2
M  V30 2 1 2 3
M  V30 3 2 3 4
M  V30 4 1 3 5
M  V30 5 2 5 6
M  V30 6 1 6 7
M  V30 7 2 7 8
M  V30 8 1 8 9
M  V30 9 1 9 10
M  V30 10 1 10 11
M  V30 11 2 11 12
M  V30 12 1 11 13
M  V30 13 1 13 14
M  V30 14 1 14 15
M  V30 15 1 15 16
M  V30 16 1 15 17
M  V30 17 1 13 18
M  V30 18 1 18 19
M  V30 19 1 19 20
M  V30 20 1 20 21
M  V30 21 2 21 22
M  V30 22 1 22 23
M  V30 23 2 23 24
M  V30 24 1 24 25
M  V30 25 1 25 26
M  V30 26 1 26 27
M  V30 27 2 27 28
M  V30 28 1 28 29
M  V30 29 1 20 30
M  V30 30 1 30 31
M  V30 31 2 9 32
M  V30 32 1 32 5
M  V30 33 1 31 13
M  V30 34 1 29 21
M  V30 35 2 29 25
M  V30 36 1 1 33
M  V30 37 1 1 34
M  V30 38 1 1 35
M  V30 39 1 6 36
M  V30 40 1 7 37
M  V30 41 1 8 38
M  V30 42 1 10 39
M  V30 43 1 14 40
M  V30 44 1 14 41
M  V30 45 1 16 42
M  V30 46 1 16 43
M  V30 47 1 16 44
M  V30 48 1 17 45
M  V30 49 1 17 46
M  V30 50 1 17 47
M  V30 51 1 18 48
M  V30 52 1 18 49
M  V30 53 1 19 50
M  V30 54 1 19 51
M  V30 55 1 22 52
M  V30 56 1 23 53
M  V30 57 1 26 54
M  V30 58 1 28 55
M  V30 59 1 30 56
M  V30 60 1 30 57
M  V30 61 1 31 58
M  V30 62 1 31 59
M  V30 63 1 32 60
M  V30 END BOND
M  V30 END CTAB
M  END
>  <Dataset>  (742) 
ChEMBL_Kinases

>  <Ligand_Instance>  (742) 
nan

>  <PDB_ID>  (742) 
nan

>  <Standardized_SMILES>  (742) 
COC(=O)c1cccc(NC(=O)C2(CN(C)C)CCN(c3ccnc4[nH]ncc34)CC2)c1

>  <Name>  (742) 
nan

>  <Pocket>  (742) 
nan

>  <ATP_Site>  (742) 
nan

>  <Peripheral>  (742) 
nan

>  <Num_H_Atoms_ProtBoundConf>  (742) 
nan

>  <Num_Resolved_Atoms>  (742) 
nan

>  <Num_Not_Resolved_Atoms>  (742) 
nan

$$$$
CHEMBL3613614
     RDKit          3D

  0  0  0  0  0  0  0  0  0  0999 V3000
M  V30 BEGIN CTAB
M  V30 COUNTS 51 54 0 0 0
M  V30 BEGIN ATOM
M  V30 1 C 5.134965 -3.874187 6.396613 0
M  V30 2 O 5.073034 -3.561001 5.008421 0
M  V30 3 C 3.945284 -2.998193 4.407054 0
M  V30 4 O 3.018289 -2.811314 5.237429 0
M  V30 5 C 3.884159 -2.678190 2.984602 0
M  V30 6 C 4.943650 -2.903542 2.096910 0
M  V30 7 C 4.768006 -2.555887 0.755603 0
M  V30 8 C 3.599381 -2.003457 0.277869 0
M  V30 9 C 2.578832 -1.797283 1.185094 0
M  V30 10 N 1.397666 -1.224823 0.634298 0
M  V30 11 C 1.272293 0.169632 0.615281 0
M  V30 12 O 2.074066 1.072800 1.023900 0
M  V30 13 C 0.415317 1.288527 0.239162 0
M  V30 14 N 1.214021 2.517626 0.485578 0
M  V30 15 C -0.744540 1.397190 1.169910 0
M  V30 16 C -1.775832 0.358427 0.920966 0
M  V30 17 N -2.171902 0.375321 -0.477459 0
M  V30 18 C -3.601081 0.307545 -0.705522 0
M  V30 19 N -4.433078 0.747024 0.287546 0
M  V30 20 C -5.759235 0.774402 0.185614 0
M  V30 21 N -6.361386 0.350833 -0.951329 0
M  V30 22 C -5.626357 -0.096985 -1.974893 0
M  V30 23 N -5.922875 -0.582420 -3.189512 0
M  V30 24 C -4.770071 -0.909787 -3.831339 0
M  V30 25 C -3.748409 -0.610633 -2.973324 0
M  V30 26 C -4.265288 -0.107738 -1.826661 0
M  V30 27 C -1.186406 0.479381 -1.539664 0
M  V30 28 C -0.004900 1.346210 -1.181406 0
M  V30 29 C 2.716358 -2.127516 2.513511 0
M  V30 30 H 5.921867 -3.327466 6.928323 0
M  V30 31 H 4.167846 -3.644154 6.899046 0
M  V30 32 H 5.315523 -4.971406 6.505420 0
M  V30 33 H 5.851146 -3.334623 2.480563 0
M  V30 34 H 5.623927 -2.754444 0.119011 0
M  V30 35 H 3.592900 -1.779596 -0.783491 0
M  V30 36 H 0.509681 -1.541143 0.192113 0
M  V30 37 H 0.648812 3.265292 -0.000244 0
M  V30 38 H 1.235272 2.730221 1.516776 0
M  V30 39 H -1.167296 2.435054 1.121680 0
M  V30 40 H -0.327098 1.225292 2.207462 0
M  V30 41 H -1.378903 -0.623020 1.251096 0
M  V30 42 H -2.690397 0.512684 1.545095 0
M  V30 43 H -6.257742 1.160550 1.086111 0
M  V30 44 H -6.884522 -0.691094 -3.579114 0
M  V30 45 H -4.754335 -1.321126 -4.825808 0
M  V30 46 H -2.751834 -0.805489 -3.284819 0
M  V30 47 H -1.636561 0.996969 -2.440989 0
M  V30 48 H -0.880414 -0.523099 -1.887719 0
M  V30 49 H -0.266602 2.397147 -1.422207 0
M  V30 50 H 0.825001 1.070816 -1.860747 0
M  V30 51 H 1.887469 -1.946032 3.182851 0
M  V30 END ATOM
M  V30 BEGIN BOND
M  V30 1 1 1 2
M  V30 2 1 2 3
M  V30 3 2 3 4
M  V30 4 1 3 5
M  V30 5 2 5 6
M  V30 6 1 6 7
M  V30 7 2 7 8
M  V30 8 1 8 9
M  V30 9 1 9 10
M  V30 10 1 10 11
M  V30 11 2 11 12
M  V30 12 1 11 13
M  V30 13 1 13 14
M  V30 14 1 13 15
M  V30 15 1 15 16
M  V30 16 1 16 17
M  V30 17 1 17 18
M  V30 18 2 18 19
M  V30 19 1 19 20
M  V30 20 2 20 21
M  V30 21 1 21 22
M  V30 22 1 22 23
M  V30 23 1 23 24
M  V30 24 2 24 25
M  V30 25 1 25 26
M  V30 26 1 17 27
M  V30 27 1 27 28
M  V30 28 2 9 29
M  V30 29 1 29 5
M  V30 30 1 28 13
M  V30 31 1 26 18
M  V30 32 2 26 22
M  V30 33 1 1 30
M  V30 34 1 1 31
M  V30 35 1 1 32
M  V30 36 1 6 33
M  V30 37 1 7 34
M  V30 38 1 8 35
M  V30 39 1 10 36
M  V30 40 1 14 37
M  V30 41 1 14 38
M  V30 42 1 15 39
M  V30 43 1 15 40
M  V30 44 1 16 41
M  V30 45 1 16 42
M  V30 46 1 20 43
M  V30 47 1 23 44
M  V30 48 1 24 45
M  V30 49 1 25 46
M  V30 50 1 27 47
M  V30 51 1 27 48
M  V30 52 1 28 49
M  V30 53 1 28 50
M  V30 54 1 29 51
M  V30 END BOND
M  V30 END CTAB
M  END
>  <Dataset>  (743) 
ChEMBL_Kinases

>  <Ligand_Instance>  (743) 
nan

>  <PDB_ID>  (743) 
nan

>  <Standardized_SMILES>  (743) 
COC(=O)c1cccc(NC(=O)C2(N)CCN(c3ncnc4[nH]ccc34)CC2)c1

>  <Name>  (743) 
nan

>  <Pocket>  (743) 
nan

>  <ATP_Site>  (743) 
nan

>  <Peripheral>  (743) 
nan

>  <Num_H_Atoms_ProtBoundConf>  (743) 
nan

>  <Num_Resolved_Atoms>  (743) 
nan

>  <Num_Not_Resolved_Atoms>  (743) 
nan

$$$$
CHEMBL3613616
     RDKit          3D

  0  0  0  0  0  0  0  0  0  0999 V3000
M  V30 BEGIN CTAB
M  V30 COUNTS 49 51 0 0 0
M  V30 BEGIN ATOM
M  V30 1 C 2.295364 -5.675407 1.224915 0
M  V30 2 O 2.119607 -4.425601 0.590955 0
M  V30 3 C 2.876472 -4.075326 -0.518067 0
M  V30 4 O 3.736501 -4.868985 -0.980136 0
M  V30 5 C 2.704582 -2.789117 -1.180918 0
M  V30 6 C 3.473708 -2.476587 -2.279331 0
M  V30 7 C 3.272902 -1.253761 -2.866508 0
M  V30 8 C 2.325560 -0.410016 -2.336793 0
M  V30 9 C 1.544382 -0.689228 -1.246762 0
M  V30 10 N 0.560819 0.144200 -0.668746 0
M  V30 11 C 0.146333 1.433800 -1.056583 0
M  V30 12 O 0.668408 1.990016 -2.035746 0
M  V30 13 C -0.905372 2.235789 -0.378172 0
M  V30 14 N -0.972057 3.485154 -1.161429 0
M  V30 15 C -0.506399 2.656989 0.994348 0
M  V30 16 C -0.745255 1.687318 2.090238 0
M  V30 17 N -1.943193 0.916900 1.820304 0
M  V30 18 C -2.165114 -0.269932 2.563759 0
M  V30 19 C -1.286404 -0.706635 3.531067 0
M  V30 20 C -1.447811 -1.850964 4.285468 0
M  V30 21 N -0.495479 -2.249338 5.276757 0
M  V30 22 N -2.573022 -2.581741 4.028721 0
M  V30 23 C -3.437853 -2.162086 3.084448 0
M  V30 24 N -3.253528 -1.038394 2.362298 0
M  V30 25 C -2.912878 1.321159 0.821321 0
M  V30 26 C -2.221253 1.575871 -0.490847 0
M  V30 27 C 1.765714 -1.913178 -0.682552 0
M  V30 28 H 3.330995 -5.788492 1.632599 0
M  V30 29 H 1.996465 -6.512893 0.565804 0
M  V30 30 H 1.631302 -5.679445 2.116942 0
M  V30 31 H 4.194579 -3.202645 -2.626146 0
M  V30 32 H 3.861968 -0.981876 -3.729533 0
M  V30 33 H 2.213835 0.533991 -2.840064 0
M  V30 34 H 0.028127 -0.178682 0.164723 0
M  V30 35 H -1.780667 4.063667 -0.868007 0
M  V30 36 H -0.103483 4.044118 -1.070601 0
M  V30 37 H -1.026421 3.613382 1.289819 0
M  V30 38 H 0.569460 2.931364 0.968779 0
M  V30 39 H -0.845849 2.199357 3.092346 0
M  V30 40 H 0.165161 1.054170 2.217082 0
M  V30 41 H -0.387863 -0.155591 3.761074 0
M  V30 42 H 0.396398 -2.450007 4.733162 0
M  V30 43 H -1.062692 -2.185264 6.165090 0
M  V30 44 H -4.327048 -2.747670 2.887745 0
M  V30 45 H -3.380030 2.280669 1.184122 0
M  V30 46 H -3.718120 0.589677 0.756941 0
M  V30 47 H -2.895104 2.115267 -1.182431 0
M  V30 48 H -2.083490 0.554570 -0.950945 0
M  V30 49 H 1.190645 -2.216021 0.185090 0
M  V30 END ATOM
M  V30 BEGIN BOND
M  V30 1 1 1 2
M  V30 2 1 2 3
M  V30 3 2 3 4
M  V30 4 1 3 5
M  V30 5 2 5 6
M  V30 6 1 6 7
M  V30 7 2 7 8
M  V30 8 1 8 9
M  V30 9 1 9 10
M  V30 10 1 10 11
M  V30 11 2 11 12
M  V30 12 1 11 13
M  V30 13 1 13 14
M  V30 14 1 13 15
M  V30 15 1 15 16
M  V30 16 1 16 17
M  V30 17 1 17 18
M  V30 18 2 18 19
M  V30 19 1 19 20
M  V30 20 1 20 21
M  V30 21 2 20 22
M  V30 22 1 22 23
M  V30 23 2 23 24
M  V30 24 1 17 25
M  V30 25 1 25 26
M  V30 26 2 9 27
M  V30 27 1 27 5
M  V30 28 1 26 13
M  V30 29 1 24 18
M  V30 30 1 1 28
M  V30 31 1 1 29
M  V30 32 1 1 30
M  V30 33 1 6 31
M  V30 34 1 7 32
M  V30 35 1 8 33
M  V30 36 1 10 34
M  V30 37 1 14 35
M  V30 38 1 14 36
M  V30 39 1 15 37
M  V30 40 1 15 38
M  V30 41 1 16 39
M  V30 42 1 16 40
M  V30 43 1 19 41
M  V30 44 1 21 42
M  V30 45 1 21 43
M  V30 46 1 23 44
M  V30 47 1 25 45
M  V30 48 1 25 46
M  V30 49 1 26 47
M  V30 50 1 26 48
M  V30 51 1 27 49
M  V30 END BOND
M  V30 END CTAB
M  END
>  <Dataset>  (744) 
ChEMBL_Kinases

>  <Ligand_Instance>  (744) 
nan

>  <PDB_ID>  (744) 
nan

>  <Standardized_SMILES>  (744) 
COC(=O)c1cccc(NC(=O)C2(N)CCN(c3cc(N)ncn3)CC2)c1

>  <Name>  (744) 
nan

>  <Pocket>  (744) 
nan

>  <ATP_Site>  (744) 
nan

>  <Peripheral>  (744) 
nan

>  <Num_H_Atoms_ProtBoundConf>  (744) 
nan

>  <Num_Resolved_Atoms>  (744) 
nan

>  <Num_Not_Resolved_Atoms>  (744) 
nan

$$$$
CHEMBL3613617
     RDKit          3D

  0  0  0  0  0  0  0  0  0  0999 V3000
M  V30 BEGIN CTAB
M  V30 COUNTS 49 51 0 0 0
M  V30 BEGIN ATOM
M  V30 1 C 6.333018 -4.099921 1.282924 0
M  V30 2 O 5.475071 -3.070910 0.835995 0
M  V30 3 C 5.457253 -2.639124 -0.492093 0
M  V30 4 O 6.202663 -3.139288 -1.369439 0
M  V30 5 C 4.551831 -1.570122 -0.909272 0
M  V30 6 C 4.572077 -1.179404 -2.232330 0
M  V30 7 C 3.732861 -0.165578 -2.692832 0
M  V30 8 C 2.865057 0.455864 -1.797112 0
M  V30 9 C 2.879675 0.030352 -0.478460 0
M  V30 10 N 1.950537 0.726781 0.380844 0
M  V30 11 C 0.712091 0.036229 0.369016 0
M  V30 12 O 0.348570 -1.018799 -0.243735 0
M  V30 13 C -0.549307 0.330866 1.070368 0
M  V30 14 N -1.480498 -0.715064 0.684891 0
M  V30 15 C -0.442970 0.306813 2.559930 0
M  V30 16 C -1.834569 0.537202 3.123908 0
M  V30 17 N -2.846452 0.572777 2.107186 0
M  V30 18 C -3.954631 -0.297142 1.938540 0
M  V30 19 C -4.193093 -1.345145 2.795068 0
M  V30 20 C -5.318739 -2.130089 2.521511 0
M  V30 21 N -6.120942 -1.853505 1.459512 0
M  V30 22 C -5.850198 -0.803417 0.632014 0
M  V30 23 N -6.699780 -0.527775 -0.474793 0
M  V30 24 N -4.766655 -0.054824 0.902589 0
M  V30 25 C -2.566840 1.669812 1.237329 0
M  V30 26 C -1.154998 1.653558 0.670037 0
M  V30 27 C 3.702652 -0.971225 -0.003200 0
M  V30 28 H 6.967917 -3.749703 2.124239 0
M  V30 29 H 6.961121 -4.499030 0.463492 0
M  V30 30 H 5.690868 -4.898995 1.706872 0
M  V30 31 H 5.220654 -1.620226 -2.977713 0
M  V30 32 H 3.755579 0.136138 -3.738119 0
M  V30 33 H 2.227642 1.233911 -2.172700 0
M  V30 34 H 1.926626 1.574604 0.996206 0
M  V30 35 H -1.615977 -0.738750 -0.357368 0
M  V30 36 H -1.103275 -1.665606 0.943935 0
M  V30 37 H -0.031813 -0.689818 2.834995 0
M  V30 38 H 0.294706 1.055780 2.952297 0
M  V30 39 H -1.830439 1.507007 3.676819 0
M  V30 40 H -2.001009 -0.257599 3.878155 0
M  V30 41 H -3.548487 -1.555782 3.636345 0
M  V30 42 H -5.529176 -2.960340 3.179281 0
M  V30 43 H -7.624075 -0.042854 -0.481467 0
M  V30 44 H -6.110899 -0.956957 -1.248635 0
M  V30 45 H -3.325426 1.693221 0.419226 0
M  V30 46 H -2.710143 2.615246 1.811701 0
M  V30 47 H -0.560105 2.501495 1.118841 0
M  V30 48 H -1.132997 1.731019 -0.436953 0
M  V30 49 H 3.667922 -1.259132 1.037750 0
M  V30 END ATOM
M  V30 BEGIN BOND
M  V30 1 1 1 2
M  V30 2 1 2 3
M  V30 3 2 3 4
M  V30 4 1 3 5
M  V30 5 2 5 6
M  V30 6 1 6 7
M  V30 7 2 7 8
M  V30 8 1 8 9
M  V30 9 1 9 10
M  V30 10 1 10 11
M  V30 11 2 11 12
M  V30 12 1 11 13
M  V30 13 1 13 14
M  V30 14 1 13 15
M  V30 15 1 15 16
M  V30 16 1 16 17
M  V30 17 1 17 18
M  V30 18 2 18 19
M  V30 19 1 19 20
M  V30 20 2 20 21
M  V30 21 1 21 22
M  V30 22 1 22 23
M  V30 23 2 22 24
M  V30 24 1 17 25
M  V30 25 1 25 26
M  V30 26 2 9 27
M  V30 27 1 27 5
M  V30 28 1 26 13
M  V30 29 1 24 18
M  V30 30 1 1 28
M  V30 31 1 1 29
M  V30 32 1 1 30
M  V30 33 1 6 31
M  V30 34 1 7 32
M  V30 35 1 8 33
M  V30 36 1 10 34
M  V30 37 1 14 35
M  V30 38 1 14 36
M  V30 39 1 15 37
M  V30 40 1 15 38
M  V30 41 1 16 39
M  V30 42 1 16 40
M  V30 43 1 19 41
M  V30 44 1 20 42
M  V30 45 1 23 43
M  V30 46 1 23 44
M  V30 47 1 25 45
M  V30 48 1 25 46
M  V30 49 1 26 47
M  V30 50 1 26 48
M  V30 51 1 27 49
M  V30 END BOND
M  V30 END CTAB
M  END
>  <Dataset>  (745) 
ChEMBL_Kinases

>  <Ligand_Instance>  (745) 
nan

>  <PDB_ID>  (745) 
nan

>  <Standardized_SMILES>  (745) 
COC(=O)c1cccc(NC(=O)C2(N)CCN(c3ccnc(N)n3)CC2)c1

>  <Name>  (745) 
nan

>  <Pocket>  (745) 
nan

>  <ATP_Site>  (745) 
nan

>  <Peripheral>  (745) 
nan

>  <Num_H_Atoms_ProtBoundConf>  (745) 
nan

>  <Num_Resolved_Atoms>  (745) 
nan

>  <Num_Not_Resolved_Atoms>  (745) 
nan

$$$$
CHEMBL3613620
     RDKit          3D

  0  0  0  0  0  0  0  0  0  0999 V3000
M  V30 BEGIN CTAB
M  V30 COUNTS 61 64 0 0 0
M  V30 BEGIN ATOM
M  V30 1 C 6.461305 -1.823724 4.228016 0
M  V30 2 O 5.573761 -1.100814 3.383989 0
M  V30 3 C 5.618390 0.296301 3.401175 0
M  V30 4 O 6.417356 0.920269 4.137980 0
M  V30 5 C 4.706757 1.022608 2.535524 0
M  V30 6 C 4.683541 2.403010 2.493032 0
M  V30 7 C 3.850489 3.172978 1.703504 0
M  V30 8 C 2.963080 2.506603 0.885068 0
M  V30 9 C 2.970223 1.124120 0.912349 0
M  V30 10 N 1.998730 0.549497 0.028339 0
M  V30 11 C 0.868466 0.401560 0.857319 0
M  V30 12 O 0.845125 0.736212 2.091793 0
M  V30 13 C -0.540591 -0.142160 0.590898 0
M  V30 14 C -1.201442 -0.001409 1.928497 0
M  V30 15 N -2.522731 -0.417070 2.092162 0
M  V30 16 C -3.557575 0.348749 1.470127 0
M  V30 17 C -2.808155 -0.562953 3.504719 0
M  V30 18 C -0.448504 -1.618002 0.283406 0
M  V30 19 C -0.650251 -1.908095 -1.198882 0
M  V30 20 N -2.020784 -1.440796 -1.464273 0
M  V30 21 C -3.034943 -2.416095 -1.664835 0
M  V30 22 N -4.039500 -2.562942 -0.784573 0
M  V30 23 C -4.992733 -3.489439 -0.952490 0
M  V30 24 N -5.020649 -4.334675 -1.999512 0
M  V30 25 C -4.041155 -4.236572 -2.915404 0
M  V30 26 N -3.828638 -4.944153 -4.052222 0
M  V30 27 C -2.727549 -4.444916 -4.593450 0
M  V30 28 C -2.228828 -3.413503 -3.804559 0
M  V30 29 C -1.046082 -2.685958 -4.157441 0
M  V30 30 N -0.076933 -2.103906 -4.432361 0
M  V30 31 C -3.064262 -3.282339 -2.738062 0
M  V30 32 C -2.039031 0.018734 -1.462222 0
M  V30 33 C -1.059925 0.640011 -0.538036 0
M  V30 34 C 3.813377 0.384215 1.711033 0
M  V30 35 H 7.203589 -2.361214 3.597417 0
M  V30 36 H 5.933733 -2.604676 4.826513 0
M  V30 37 H 6.938646 -1.156297 4.985708 0
M  V30 38 H 5.394698 2.913724 3.148848 0
M  V30 39 H 3.925383 4.270162 1.756274 0
M  V30 40 H 2.330433 3.134304 0.284629 0
M  V30 41 H 1.743616 0.198170 -0.917336 0
M  V30 42 H -0.512500 -0.487537 2.696902 0
M  V30 43 H -1.161209 1.090199 2.276402 0
M  V30 44 H -4.422175 0.525178 2.193013 0
M  V30 45 H -3.200730 1.360920 1.241840 0
M  V30 46 H -4.050425 -0.167290 0.613798 0
M  V30 47 H -3.269483 -1.562665 3.706779 0
M  V30 48 H -1.873322 -0.571047 4.115109 0
M  V30 49 H -3.454297 0.242310 3.908073 0
M  V30 50 H -1.211577 -2.201981 0.837596 0
M  V30 51 H 0.535825 -2.042849 0.566099 0
M  V30 52 H -0.577729 -2.988762 -1.313943 0
M  V30 53 H 0.078753 -1.319607 -1.788093 0
M  V30 54 H -5.742166 -3.487309 -0.153161 0
M  V30 55 H -4.459934 -5.731159 -4.384287 0
M  V30 56 H -2.364489 -4.864209 -5.520561 0
M  V30 57 H -1.720516 0.275382 -2.525581 0
M  V30 58 H -3.070441 0.436239 -1.422184 0
M  V30 59 H -0.149309 0.903562 -1.182438 0
M  V30 60 H -1.445696 1.643766 -0.264646 0
M  V30 61 H 3.753171 -0.703277 1.672052 0
M  V30 END ATOM
M  V30 BEGIN BOND
M  V30 1 1 1 2
M  V30 2 1 2 3
M  V30 3 2 3 4
M  V30 4 1 3 5
M  V30 5 2 5 6
M  V30 6 1 6 7
M  V30 7 2 7 8
M  V30 8 1 8 9
M  V30 9 1 9 10
M  V30 10 1 10 11
M  V30 11 2 11 12
M  V30 12 1 11 13
M  V30 13 1 13 14
M  V30 14 1 14 15
M  V30 15 1 15 16
M  V30 16 1 15 17
M  V30 17 1 13 18
M  V30 18 1 18 19
M  V30 19 1 19 20
M  V30 20 1 20 21
M  V30 21 2 21 22
M  V30 22 1 22 23
M  V30 23 2 23 24
M  V30 24 1 24 25
M  V30 25 1 25 26
M  V30 26 1 26 27
M  V30 27 2 27 28
M  V30 28 1 28 29
M  V30 29 3 29 30
M  V30 30 1 28 31
M  V30 31 1 20 32
M  V30 32 1 32 33
M  V30 33 2 9 34
M  V30 34 1 34 5
M  V30 35 1 33 13
M  V30 36 1 31 21
M  V30 37 2 31 25
M  V30 38 1 1 35
M  V30 39 1 1 36
M  V30 40 1 1 37
M  V30 41 1 6 38
M  V30 42 1 7 39
M  V30 43 1 8 40
M  V30 44 1 10 41
M  V30 45 1 14 42
M  V30 46 1 14 43
M  V30 47 1 16 44
M  V30 48 1 16 45
M  V30 49 1 16 46
M  V30 50 1 17 47
M  V30 51 1 17 48
M  V30 52 1 17 49
M  V30 53 1 18 50
M  V30 54 1 18 51
M  V30 55 1 19 52
M  V30 56 1 19 53
M  V30 57 1 23 54
M  V30 58 1 26 55
M  V30 59 1 27 56
M  V30 60 1 32 57
M  V30 61 1 32 58
M  V30 62 1 33 59
M  V30 63 1 33 60
M  V30 64 1 34 61
M  V30 END BOND
M  V30 END CTAB
M  END
>  <Dataset>  (746) 
ChEMBL_Kinases

>  <Ligand_Instance>  (746) 
nan

>  <PDB_ID>  (746) 
nan

>  <Standardized_SMILES>  (746) 
COC(=O)c1cccc(NC(=O)C2(CN(C)C)CCN(c3ncnc4[nH]cc(C#N)c34)CC2)c1

>  <Name>  (746) 
nan

>  <Pocket>  (746) 
nan

>  <ATP_Site>  (746) 
nan

>  <Peripheral>  (746) 
nan

>  <Num_H_Atoms_ProtBoundConf>  (746) 
nan

>  <Num_Resolved_Atoms>  (746) 
nan

>  <Num_Not_Resolved_Atoms>  (746) 
nan

$$$$
CHEMBL3613621
     RDKit          3D

  0  0  0  0  0  0  0  0  0  0999 V3000
M  V30 BEGIN CTAB
M  V30 COUNTS 60 63 0 0 0
M  V30 BEGIN ATOM
M  V30 1 C 0.504205 -3.100604 5.565952 0
M  V30 2 O 0.775946 -2.612345 4.248165 0
M  V30 3 C 1.848504 -3.099070 3.506996 0
M  V30 4 O 2.612602 -3.983490 3.971390 0
M  V30 5 C 2.135940 -2.600737 2.148484 0
M  V30 6 C 3.217545 -3.137427 1.490606 0
M  V30 7 C 3.525311 -2.696774 0.213609 0
M  V30 8 C 2.749232 -1.714727 -0.410875 0
M  V30 9 C 1.658015 -1.181768 0.268230 0
M  V30 10 N 0.821877 -0.154564 -0.334171 0
M  V30 11 C 1.000910 1.284055 -0.219428 0
M  V30 12 O 2.038516 1.158189 0.519358 0
M  V30 13 C -0.138655 1.758648 -1.033603 0
M  V30 14 C -0.194936 3.259899 -1.033548 0
M  V30 15 N -0.374495 3.908093 0.206881 0
M  V30 16 C 0.724130 3.848176 1.129000 0
M  V30 17 C -0.743920 5.293321 -0.027740 0
M  V30 18 C -1.458418 1.271963 -0.508269 0
M  V30 19 C -2.507107 1.002743 -1.518599 0
M  V30 20 N -2.071633 0.512414 -2.787168 0
M  V30 21 C -2.397646 -0.663904 -3.556840 0
M  V30 22 N -1.334873 -1.469376 -3.809890 0
M  V30 23 C -1.581564 -2.598276 -4.535194 0
M  V30 24 N -2.813111 -2.917135 -4.988139 0
M  V30 25 C -3.875304 -2.124222 -4.742457 0
M  V30 26 N -5.189907 -2.124188 -5.023296 0
M  V30 27 C -5.805455 -1.041716 -4.509774 0
M  V30 28 C -4.832170 -0.316146 -3.869482 0
M  V30 29 F -5.023082 0.846339 -3.217723 0
M  V30 30 C -3.641480 -0.978312 -4.009661 0
M  V30 31 C -1.113293 1.467366 -3.318684 0
M  V30 32 C 0.111330 1.345241 -2.473810 0
M  V30 33 C 1.350174 -1.629231 1.557866 0
M  V30 34 H 0.662243 -2.308144 6.337168 0
M  V30 35 H -0.572024 -3.366470 5.608622 0
M  V30 36 H 1.096951 -3.991052 5.823920 0
M  V30 37 H 3.862259 -3.897930 1.907803 0
M  V30 38 H 4.373555 -3.104912 -0.325869 0
M  V30 39 H 2.965580 -1.361106 -1.389273 0
M  V30 40 H 0.167154 -0.867797 -0.793261 0
M  V30 41 H -0.967155 3.631858 -1.779779 0
M  V30 42 H 0.760939 3.695600 -1.477598 0
M  V30 43 H 0.609400 3.008068 1.851902 0
M  V30 44 H 1.694268 3.827967 0.594612 0
M  V30 45 H 0.789409 4.807076 1.740768 0
M  V30 46 H 0.220205 5.872082 -0.045053 0
M  V30 47 H -1.410198 5.641688 0.808232 0
M  V30 48 H -1.274530 5.336167 -0.993091 0
M  V30 49 H -1.877691 1.950260 0.274454 0
M  V30 50 H -1.266122 0.316582 0.038615 0
M  V30 51 H -3.053098 1.974591 -1.711125 0
M  V30 52 H -3.328815 0.350287 -1.095023 0
M  V30 53 H -0.807895 -3.285277 -4.779259 0
M  V30 54 H -5.675437 -2.887963 -5.582187 0
M  V30 55 H -6.870805 -0.833952 -4.613478 0
M  V30 56 H -0.818229 1.150845 -4.350771 0
M  V30 57 H -1.526484 2.487033 -3.373966 0
M  V30 58 H 0.465086 0.301676 -2.529138 0
M  V30 59 H 0.894901 1.984279 -2.928713 0
M  V30 60 H 0.497839 -1.235560 2.129293 0
M  V30 END ATOM
M  V30 BEGIN BOND
M  V30 1 1 1 2
M  V30 2 1 2 3
M  V30 3 2 3 4
M  V30 4 1 3 5
M  V30 5 2 5 6
M  V30 6 1 6 7
M  V30 7 2 7 8
M  V30 8 1 8 9
M  V30 9 1 9 10
M  V30 10 1 10 11
M  V30 11 2 11 12
M  V30 12 1 11 13
M  V30 13 1 13 14
M  V30 14 1 14 15
M  V30 15 1 15 16
M  V30 16 1 15 17
M  V30 17 1 13 18
M  V30 18 1 18 19
M  V30 19 1 19 20
M  V30 20 1 20 21
M  V30 21 2 21 22
M  V30 22 1 22 23
M  V30 23 2 23 24
M  V30 24 1 24 25
M  V30 25 1 25 26
M  V30 26 1 26 27
M  V30 27 2 27 28
M  V30 28 1 28 29
M  V30 29 1 28 30
M  V30 30 1 20 31
M  V30 31 1 31 32
M  V30 32 2 9 33
M  V30 33 1 33 5
M  V30 34 1 32 13
M  V30 35 1 30 21
M  V30 36 2 30 25
M  V30 37 1 1 34
M  V30 38 1 1 35
M  V30 39 1 1 36
M  V30 40 1 6 37
M  V30 41 1 7 38
M  V30 42 1 8 39
M  V30 43 1 10 40
M  V30 44 1 14 41
M  V30 45 1 14 42
M  V30 46 1 16 43
M  V30 47 1 16 44
M  V30 48 1 16 45
M  V30 49 1 17 46
M  V30 50 1 17 47
M  V30 51 1 17 48
M  V30 52 1 18 49
M  V30 53 1 18 50
M  V30 54 1 19 51
M  V30 55 1 19 52
M  V30 56 1 23 53
M  V30 57 1 26 54
M  V30 58 1 27 55
M  V30 59 1 31 56
M  V30 60 1 31 57
M  V30 61 1 32 58
M  V30 62 1 32 59
M  V30 63 1 33 60
M  V30 END BOND
M  V30 END CTAB
M  END
>  <Dataset>  (747) 
ChEMBL_Kinases

>  <Ligand_Instance>  (747) 
nan

>  <PDB_ID>  (747) 
nan

>  <Standardized_SMILES>  (747) 
COC(=O)c1cccc(NC(=O)C2(CN(C)C)CCN(c3ncnc4[nH]cc(F)c34)CC2)c1

>  <Name>  (747) 
nan

>  <Pocket>  (747) 
nan

>  <ATP_Site>  (747) 
nan

>  <Peripheral>  (747) 
nan

>  <Num_H_Atoms_ProtBoundConf>  (747) 
nan

>  <Num_Resolved_Atoms>  (747) 
nan

>  <Num_Not_Resolved_Atoms>  (747) 
nan

$$$$
CHEMBL3613609
     RDKit          3D

  0  0  0  0  0  0  0  0  0  0999 V3000
M  V30 BEGIN CTAB
M  V30 COUNTS 65 68 0 0 0
M  V30 BEGIN ATOM
M  V30 1 C 6.831787 0.199030 6.365519 0
M  V30 2 C 5.702969 0.658336 6.360415 0
M  V30 3 C 4.330642 1.218185 6.368617 0
M  V30 4 O 3.866994 1.327507 5.059565 0
M  V30 5 C 4.496045 2.102464 4.095702 0
M  V30 6 O 5.525372 2.762314 4.326648 0
M  V30 7 C 3.946001 2.162260 2.744016 0
M  V30 8 C 4.546066 2.921219 1.761294 0
M  V30 9 C 4.049752 2.993979 0.475572 0
M  V30 10 C 2.891776 2.242403 0.236918 0
M  V30 11 C 2.233627 1.452252 1.188719 0
M  V30 12 N 1.070295 0.761258 0.746224 0
M  V30 13 C -0.326819 1.064341 0.673091 0
M  V30 14 O -0.391316 2.251188 1.149408 0
M  V30 15 C -0.995917 -0.124027 0.088641 0
M  V30 16 C -0.889191 -1.290614 1.041596 0
M  V30 17 N -1.494268 -1.124589 2.305523 0
M  V30 18 C -0.937134 -0.206360 3.225636 0
M  V30 19 C -1.811137 -2.365432 2.976915 0
M  V30 20 C -0.432609 -0.456968 -1.261947 0
M  V30 21 C -1.388373 -0.384466 -2.396290 0
M  V30 22 N -2.693175 -0.953163 -2.140009 0
M  V30 23 C -3.583826 -1.692777 -2.961964 0
M  V30 24 N -4.720734 -0.981886 -3.200995 0
M  V30 25 C -5.709494 -1.485698 -3.982007 0
M  V30 26 N -5.579998 -2.707079 -4.537124 0
M  V30 27 C -4.494156 -3.441363 -4.336614 0
M  V30 28 N -4.015191 -4.660917 -4.699969 0
M  V30 29 C -2.788419 -4.894786 -4.165203 0
M  V30 30 C -2.418875 -3.782619 -3.404253 0
M  V30 31 C -1.167918 -3.610864 -2.639612 0
M  V30 32 C -3.493099 -2.934804 -3.547439 0
M  V30 33 C -3.254650 -0.755714 -0.793567 0
M  V30 34 C -2.461786 0.286335 -0.041507 0
M  V30 35 C 2.810793 1.449130 2.439110 0
M  V30 36 H 7.809140 -0.203757 6.373471 0
M  V30 37 H 4.308856 2.158760 6.923806 0
M  V30 38 H 3.708997 0.400007 6.837150 0
M  V30 39 H 5.442574 3.493585 1.974819 0
M  V30 40 H 4.468557 3.566976 -0.339602 0
M  V30 41 H 2.491161 2.292379 -0.774831 0
M  V30 42 H 1.625757 -0.106556 0.473662 0
M  V30 43 H -1.248695 -2.243262 0.552636 0
M  V30 44 H 0.200534 -1.535876 1.241750 0
M  V30 45 H -1.513228 0.755860 3.122750 0
M  V30 46 H 0.142913 -0.087727 3.206136 0
M  V30 47 H -1.167330 -0.512013 4.297520 0
M  V30 48 H -2.758971 -2.180397 3.548121 0
M  V30 49 H -1.041188 -2.531067 3.762663 0
M  V30 50 H -1.917866 -3.211283 2.274604 0
M  V30 51 H 0.376551 0.309308 -1.475388 0
M  V30 52 H 0.152123 -1.422210 -1.248803 0
M  V30 53 H -1.566021 0.697690 -2.605284 0
M  V30 54 H -0.921472 -0.781895 -3.313210 0
M  V30 55 H -6.624200 -0.940160 -4.188712 0
M  V30 56 H -4.537969 -5.324901 -5.315324 0
M  V30 57 H -2.195924 -5.788423 -4.303045 0
M  V30 58 H -1.368304 -3.202483 -1.634444 0
M  V30 59 H -0.729152 -4.634297 -2.429781 0
M  V30 60 H -0.361883 -3.092832 -3.193489 0
M  V30 61 H -3.381181 -1.686662 -0.244959 0
M  V30 62 H -4.261650 -0.315871 -0.954724 0
M  V30 63 H -2.488295 1.238366 -0.604733 0
M  V30 64 H -2.899544 0.432551 0.945257 0
M  V30 65 H 2.320615 0.850308 3.176145 0
M  V30 END ATOM
M  V30 BEGIN BOND
M  V30 1 3 1 2
M  V30 2 1 2 3
M  V30 3 1 3 4
M  V30 4 1 4 5
M  V30 5 2 5 6
M  V30 6 1 5 7
M  V30 7 2 7 8
M  V30 8 1 8 9
M  V30 9 2 9 10
M  V30 10 1 10 11
M  V30 11 1 11 12
M  V30 12 1 12 13
M  V30 13 2 13 14
M  V30 14 1 13 15
M  V30 15 1 15 16
M  V30 16 1 16 17
M  V30 17 1 17 18
M  V30 18 1 17 19
M  V30 19 1 15 20
M  V30 20 1 20 21
M  V30 21 1 21 22
M  V30 22 1 22 23
M  V30 23 2 23 24
M  V30 24 1 24 25
M  V30 25 2 25 26
M  V30 26 1 26 27
M  V30 27 1 27 28
M  V30 28 1 28 29
M  V30 29 2 29 30
M  V30 30 1 30 31
M  V30 31 1 30 32
M  V30 32 1 22 33
M  V30 33 1 33 34
M  V30 34 2 11 35
M  V30 35 1 35 7
M  V30 36 1 34 15
M  V30 37 1 32 23
M  V30 38 2 32 27
M  V30 39 1 1 36
M  V30 40 1 3 37
M  V30 41 1 3 38
M  V30 42 1 8 39
M  V30 43 1 9 40
M  V30 44 1 10 41
M  V30 45 1 12 42
M  V30 46 1 16 43
M  V30 47 1 16 44
M  V30 48 1 18 45
M  V30 49 1 18 46
M  V30 50 1 18 47
M  V30 51 1 19 48
M  V30 52 1 19 49
M  V30 53 1 19 50
M  V30 54 1 20 51
M  V30 55 1 20 52
M  V30 56 1 21 53
M  V30 57 1 21 54
M  V30 58 1 25 55
M  V30 59 1 28 56
M  V30 60 1 29 57
M  V30 61 1 31 58
M  V30 62 1 31 59
M  V30 63 1 31 60
M  V30 64 1 33 61
M  V30 65 1 33 62
M  V30 66 1 34 63
M  V30 67 1 34 64
M  V30 68 1 35 65
M  V30 END BOND
M  V30 END CTAB
M  END
>  <Dataset>  (748) 
ChEMBL_Kinases

>  <Ligand_Instance>  (748) 
nan

>  <PDB_ID>  (748) 
nan

>  <Standardized_SMILES>  (748) 
C#CCOC(=O)c1cccc(NC(=O)C2(CN(C)C)CCN(c3ncnc4[nH]cc(C)c34)CC2)c1

>  <Name>  (748) 
nan

>  <Pocket>  (748) 
nan

>  <ATP_Site>  (748) 
nan

>  <Peripheral>  (748) 
nan

>  <Num_H_Atoms_ProtBoundConf>  (748) 
nan

>  <Num_Resolved_Atoms>  (748) 
nan

>  <Num_Not_Resolved_Atoms>  (748) 
nan

$$$$
CHEMBL3623133
     RDKit          3D

  0  0  0  0  0  0  0  0  0  0999 V3000
M  V30 BEGIN CTAB
M  V30 COUNTS 47 50 0 0 0
M  V30 BEGIN ATOM
M  V30 1 C 2.975271 -2.640476 4.055545 0
M  V30 2 C 3.460078 -1.243521 4.208293 0
M  V30 3 O 3.398614 -0.779875 5.397418 0
M  V30 4 N 3.935104 -0.565248 3.054737 0
M  V30 5 C 4.120280 -0.821384 1.623509 0
M  V30 6 C 4.024499 0.668200 1.325200 0
M  V30 7 N 2.665449 1.109289 1.090475 0
M  V30 8 C 2.100965 1.976182 0.109741 0
M  V30 9 O 2.893911 2.483861 -0.741648 0
M  V30 10 C 0.661257 2.214218 0.157129 0
M  V30 11 C 0.108930 3.458523 0.369792 0
M  V30 12 N -1.224073 3.668196 0.412167 0
M  V30 13 C -2.076520 2.615846 0.239250 0
M  V30 14 N -3.506814 2.808522 0.279133 0
M  V30 15 C -1.572511 1.346620 0.022537 0
M  V30 16 C -2.435151 0.278167 -0.153401 0
M  V30 17 C -1.935951 -1.003714 -0.372304 0
M  V30 18 C -2.786589 -2.187496 -0.568279 0
M  V30 19 C -2.333323 -3.218064 -1.379515 0
M  V30 20 C -3.133663 -4.346777 -1.573330 0
M  V30 21 C -4.353670 -4.361284 -0.927626 0
M  V30 22 C -4.852855 -3.365927 -0.111170 0
M  V30 23 F -6.072190 -3.489447 0.474070 0
M  V30 24 C -4.027987 -2.265118 0.054034 0
M  V30 25 C -0.560100 -1.219123 -0.415832 0
M  V30 26 C 0.297415 -0.152400 -0.240268 0
M  V30 27 C -0.193146 1.121041 -0.022678 0
M  V30 28 C 4.481235 0.771043 2.777087 0
M  V30 29 H 1.932521 -2.736305 4.467836 0
M  V30 30 H 2.923380 -2.950506 2.992560 0
M  V30 31 H 3.624359 -3.385031 4.566458 0
M  V30 32 H 5.104314 -1.238417 1.390124 0
M  V30 33 H 3.229972 -1.330580 1.227935 0
M  V30 34 H 4.798579 1.051108 0.647558 0
M  V30 35 H 2.016780 0.673941 1.813141 0
M  V30 36 H 0.766338 4.293488 0.506952 0
M  V30 37 H -3.902666 3.167836 -0.634944 0
M  V30 38 H -3.781324 2.525263 1.254494 0
M  V30 39 H -3.503092 0.403747 -0.126260 0
M  V30 40 H -1.368393 -3.166828 -1.868122 0
M  V30 41 H -2.787418 -5.139773 -2.196360 0
M  V30 42 H -4.937460 -5.269590 -1.115823 0
M  V30 43 H -4.367149 -1.448853 0.686359 0
M  V30 44 H -0.109717 -2.204701 -0.584478 0
M  V30 45 H 1.365115 -0.338594 -0.277462 0
M  V30 46 H 3.955210 1.540650 3.350415 0
M  V30 47 H 5.572273 0.749021 2.877146 0
M  V30 END ATOM
M  V30 BEGIN BOND
M  V30 1 1 1 2
M  V30 2 2 2 3
M  V30 3 1 2 4
M  V30 4 1 4 5
M  V30 5 1 5 6
M  V30 6 1 6 7
M  V30 7 1 7 8
M  V30 8 2 8 9
M  V30 9 1 8 10
M  V30 10 2 10 11
M  V30 11 1 11 12
M  V30 12 2 12 13
M  V30 13 1 13 14
M  V30 14 1 13 15
M  V30 15 2 15 16
M  V30 16 1 16 17
M  V30 17 1 17 18
M  V30 18 2 18 19
M  V30 19 1 19 20
M  V30 20 2 20 21
M  V30 21 1 21 22
M  V30 22 1 22 23
M  V30 23 2 22 24
M  V30 24 2 17 25
M  V30 25 1 25 26
M  V30 26 2 26 27
M  V30 27 1 6 28
M  V30 28 1 28 4
M  V30 29 1 27 10
M  V30 30 1 27 15
M  V30 31 1 24 18
M  V30 32 1 1 29
M  V30 33 1 1 30
M  V30 34 1 1 31
M  V30 35 1 5 32
M  V30 36 1 5 33
M  V30 37 1 6 34
M  V30 38 1 7 35
M  V30 39 1 11 36
M  V30 40 1 14 37
M  V30 41 1 14 38
M  V30 42 1 16 39
M  V30 43 1 19 40
M  V30 44 1 20 41
M  V30 45 1 21 42
M  V30 46 1 24 43
M  V30 47 1 25 44
M  V30 48 1 26 45
M  V30 49 1 28 46
M  V30 50 1 28 47
M  V30 END BOND
M  V30 END CTAB
M  END
>  <Dataset>  (749) 
ChEMBL_Kinases

>  <Ligand_Instance>  (749) 
nan

>  <PDB_ID>  (749) 
nan

>  <Standardized_SMILES>  (749) 
CC(=O)N1CC(NC(=O)c2cnc(N)c3cc(-c4cccc(F)c4)ccc23)C1

>  <Name>  (749) 
nan

>  <Pocket>  (749) 
nan

>  <ATP_Site>  (749) 
nan

>  <Peripheral>  (749) 
nan

>  <Num_H_Atoms_ProtBoundConf>  (749) 
nan

>  <Num_Resolved_Atoms>  (749) 
nan

>  <Num_Not_Resolved_Atoms>  (749) 
nan

$$$$
CHEMBL3623132
     RDKit          3D

  0  0  0  0  0  0  0  0  0  0999 V3000
M  V30 BEGIN CTAB
M  V30 COUNTS 42 45 0 0 0
M  V30 BEGIN ATOM
M  V30 1 N 0.018148 -4.624367 0.843128 0
M  V30 2 C 0.572185 -3.422785 0.307035 0
M  V30 3 N 1.551378 -3.386956 -0.618020 0
M  V30 4 C 2.031592 -2.197219 -1.089085 0
M  V30 5 C 1.488590 -1.023074 -0.593609 0
M  V30 6 C 2.129394 0.131420 -1.234820 0
M  V30 7 O 1.188416 0.672081 -1.893723 0
M  V30 8 N 3.476420 0.566093 -1.156791 0
M  V30 9 C 3.694979 1.742550 -1.936515 0
M  V30 10 C 4.687797 1.551111 -3.092352 0
M  V30 11 N 4.970412 2.987105 -2.920802 0
M  V30 12 C 4.713702 2.732037 -1.486936 0
M  V30 13 C 0.487631 -1.003845 0.351400 0
M  V30 14 C 0.044259 0.227735 0.751483 0
M  V30 15 C -0.956850 0.219466 1.696666 0
M  V30 16 C -1.471047 -0.958587 2.199072 0
M  V30 17 C -2.526389 -1.084631 3.197326 0
M  V30 18 C -3.578379 -0.206905 3.351410 0
M  V30 19 C -4.578414 -0.319174 4.294064 0
M  V30 20 C -4.540127 -1.392369 5.164233 0
M  V30 21 C -3.509314 -2.270739 5.028904 0
M  V30 22 F -3.466635 -3.334930 5.885516 0
M  V30 23 C -2.511578 -2.164019 4.092857 0
M  V30 24 C -0.960722 -2.178635 1.735217 0
M  V30 25 C 0.041348 -2.245180 0.791079 0
M  V30 26 H 0.089706 -4.995456 1.832116 0
M  V30 27 H -0.522147 -5.179985 0.128833 0
M  V30 28 H 2.809410 -2.308418 -1.821752 0
M  V30 29 H 4.076846 -0.022415 -0.561035 0
M  V30 30 H 2.794736 2.206341 -2.373040 0
M  V30 31 H 4.196433 1.286137 -4.047058 0
M  V30 32 H 5.576328 0.959242 -2.863594 0
M  V30 33 H 4.144705 3.515169 -3.294389 0
M  V30 34 H 4.305325 3.586664 -0.953425 0
M  V30 35 H 5.643164 2.298705 -1.076219 0
M  V30 36 H 0.456251 1.117681 0.347810 0
M  V30 37 H -1.379771 1.125557 2.081507 0
M  V30 38 H -3.575941 0.632661 2.640846 0
M  V30 39 H -5.334257 0.466874 4.271567 0
M  V30 40 H -5.348835 -1.427194 5.880198 0
M  V30 41 H -1.730470 -2.925308 4.075128 0
M  V30 42 H -1.333389 -3.144980 2.097481 0
M  V30 END ATOM
M  V30 BEGIN BOND
M  V30 1 1 1 2
M  V30 2 2 2 3
M  V30 3 1 3 4
M  V30 4 2 4 5
M  V30 5 1 5 6
M  V30 6 2 6 7
M  V30 7 1 6 8
M  V30 8 1 8 9
M  V30 9 1 9 10
M  V30 10 1 10 11
M  V30 11 1 11 12
M  V30 12 1 5 13
M  V30 13 2 13 14
M  V30 14 1 14 15
M  V30 15 2 15 16
M  V30 16 1 16 17
M  V30 17 2 17 18
M  V30 18 1 18 19
M  V30 19 2 19 20
M  V30 20 1 20 21
M  V30 21 1 21 22
M  V30 22 2 21 23
M  V30 23 1 16 24
M  V30 24 2 24 25
M  V30 25 1 25 2
M  V30 26 1 12 9
M  V30 27 1 25 13
M  V30 28 1 23 17
M  V30 29 1 1 26
M  V30 30 1 1 27
M  V30 31 1 4 28
M  V30 32 1 8 29
M  V30 33 1 9 30
M  V30 34 1 10 31
M  V30 35 1 10 32
M  V30 36 1 11 33
M  V30 37 1 12 34
M  V30 38 1 12 35
M  V30 39 1 14 36
M  V30 40 1 15 37
M  V30 41 1 18 38
M  V30 42 1 19 39
M  V30 43 1 20 40
M  V30 44 1 23 41
M  V30 45 1 24 42
M  V30 END BOND
M  V30 END CTAB
M  END
>  <Dataset>  (750) 
ChEMBL_Kinases

>  <Ligand_Instance>  (750) 
nan

>  <PDB_ID>  (750) 
nan

>  <Standardized_SMILES>  (750) 
Nc1ncc(C(=O)NC2CNC2)c2ccc(-c3cccc(F)c3)cc12

>  <Name>  (750) 
nan

>  <Pocket>  (750) 
nan

>  <ATP_Site>  (750) 
nan

>  <Peripheral>  (750) 
nan

>  <Num_H_Atoms_ProtBoundConf>  (750) 
nan

>  <Num_Resolved_Atoms>  (750) 
nan

>  <Num_Not_Resolved_Atoms>  (750) 
nan

$$$$
CHEMBL3623131
     RDKit          3D

  0  0  0  0  0  0  0  0  0  0999 V3000
M  V30 BEGIN CTAB
M  V30 COUNTS 44 47 0 0 0
M  V30 BEGIN ATOM
M  V30 1 N 0.889625 -4.492055 3.032266 0
M  V30 2 C 1.409669 -3.274340 2.468047 0
M  V30 3 N 2.763597 -3.191397 2.365355 0
M  V30 4 C 3.326819 -2.065137 1.839522 0
M  V30 5 C 2.519968 -1.016230 1.414680 0
M  V30 6 C 3.079779 0.207752 0.845492 0
M  V30 7 O 3.816140 0.705500 1.740651 0
M  V30 8 N 2.891727 0.790862 -0.433020 0
M  V30 9 C 3.545355 2.006279 -0.782059 0
M  V30 10 C 4.424460 1.804142 -2.000655 0
M  V30 11 C 3.598723 2.788291 -2.770511 0
M  V30 12 O 2.769466 2.248583 -3.742089 0
M  V30 13 C 2.811374 3.058305 -1.515536 0
M  V30 14 C 1.156716 -1.159753 1.544650 0
M  V30 15 C 0.334122 -0.121088 1.125203 0
M  V30 16 C -1.035673 -0.245578 1.247081 0
M  V30 17 C -1.649163 -1.380468 1.779130 0
M  V30 18 C -3.102850 -1.438373 1.875598 0
M  V30 19 C -3.804296 -0.762330 0.892307 0
M  V30 20 C -5.198457 -0.770675 0.915359 0
M  V30 21 C -5.839550 -1.457536 1.924938 0
M  V30 22 C -5.155803 -2.128418 2.900824 0
M  V30 23 F -5.679539 -2.829173 3.929661 0
M  V30 24 C -3.757334 -2.125888 2.886268 0
M  V30 25 C -0.824433 -2.419010 2.198448 0
M  V30 26 C 0.542776 -2.277120 2.069026 0
M  V30 27 H 1.217125 -5.454860 2.762301 0
M  V30 28 H 0.145658 -4.330485 3.745521 0
M  V30 29 H 4.410706 -1.945730 1.733907 0
M  V30 30 H 2.245607 0.227748 -1.032090 0
M  V30 31 H 4.167883 2.364901 0.064857 0
M  V30 32 H 5.495049 2.061314 -1.879903 0
M  V30 33 H 4.345784 0.808382 -2.490097 0
M  V30 34 H 4.202146 3.656253 -3.135313 0
M  V30 35 H 2.091840 2.945240 -3.993452 0
M  V30 36 H 1.721494 2.996435 -1.601787 0
M  V30 37 H 3.067189 4.071118 -1.124616 0
M  V30 38 H 0.686959 0.806923 0.697490 0
M  V30 39 H -1.698549 0.563711 0.921326 0
M  V30 40 H -3.392825 -0.203015 0.071098 0
M  V30 41 H -5.800892 -0.250319 0.158943 0
M  V30 42 H -6.923051 -1.498671 1.993440 0
M  V30 43 H -3.152915 -2.630102 3.619065 0
M  V30 44 H -1.264542 -3.314806 2.616261 0
M  V30 END ATOM
M  V30 BEGIN BOND
M  V30 1 1 1 2
M  V30 2 2 2 3
M  V30 3 1 3 4
M  V30 4 2 4 5
M  V30 5 1 5 6
M  V30 6 2 6 7
M  V30 7 1 6 8
M  V30 8 1 8 9
M  V30 9 1 9 10
M  V30 10 1 10 11
M  V30 11 1 11 12
M  V30 12 1 11 13
M  V30 13 1 5 14
M  V30 14 2 14 15
M  V30 15 1 15 16
M  V30 16 2 16 17
M  V30 17 1 17 18
M  V30 18 2 18 19
M  V30 19 1 19 20
M  V30 20 2 20 21
M  V30 21 1 21 22
M  V30 22 1 22 23
M  V30 23 2 22 24
M  V30 24 1 17 25
M  V30 25 2 25 26
M  V30 26 1 26 2
M  V30 27 1 13 9
M  V30 28 1 26 14
M  V30 29 1 24 18
M  V30 30 1 1 27
M  V30 31 1 1 28
M  V30 32 1 4 29
M  V30 33 1 8 30
M  V30 34 1 9 31
M  V30 35 1 10 32
M  V30 36 1 10 33
M  V30 37 1 11 34
M  V30 38 1 12 35
M  V30 39 1 13 36
M  V30 40 1 13 37
M  V30 41 1 15 38
M  V30 42 1 16 39
M  V30 43 1 19 40
M  V30 44 1 20 41
M  V30 45 1 21 42
M  V30 46 1 24 43
M  V30 47 1 25 44
M  V30 END BOND
M  V30 END CTAB
M  END
>  <Dataset>  (751) 
ChEMBL_Kinases

>  <Ligand_Instance>  (751) 
nan

>  <PDB_ID>  (751) 
nan

>  <Standardized_SMILES>  (751) 
Nc1ncc(C(=O)NC2CC(O)C2)c2ccc(-c3cccc(F)c3)cc12

>  <Name>  (751) 
nan

>  <Pocket>  (751) 
nan

>  <ATP_Site>  (751) 
nan

>  <Peripheral>  (751) 
nan

>  <Num_H_Atoms_ProtBoundConf>  (751) 
nan

>  <Num_Resolved_Atoms>  (751) 
nan

>  <Num_Not_Resolved_Atoms>  (751) 
nan

$$$$
CHEMBL3623130
     RDKit          3D

  0  0  0  0  0  0  0  0  0  0999 V3000
M  V30 BEGIN CTAB
M  V30 COUNTS 40 43 0 0 0
M  V30 BEGIN ATOM
M  V30 1 N 1.329229 -3.272776 3.049730 0
M  V30 2 C 1.587357 -2.395379 1.931986 0
M  V30 3 N 2.571563 -2.620721 1.045123 0
M  V30 4 C 2.863587 -1.859149 -0.017010 0
M  V30 5 C 2.055932 -0.764678 -0.167908 0
M  V30 6 C 2.218361 0.130248 -1.348574 0
M  V30 7 O 2.294687 1.390381 -1.553621 0
M  V30 8 N 2.316455 -0.555025 -2.586268 0
M  V30 9 C 2.451040 -0.311055 -3.988428 0
M  V30 10 C 2.536159 -1.279964 -5.051501 0
M  V30 11 C 3.796013 -0.442983 -4.681511 0
M  V30 12 C 1.002061 -0.427828 0.693423 0
M  V30 13 C 0.214620 0.687164 0.503794 0
M  V30 14 C -0.801379 0.927791 1.402862 0
M  V30 15 C -1.040816 0.089071 2.469796 0
M  V30 16 C -2.129742 0.345682 3.417089 0
M  V30 17 C -2.174705 0.023385 4.743713 0
M  V30 18 C -3.227748 0.313230 5.587074 0
M  V30 19 C -4.344858 0.979061 5.075774 0
M  V30 20 C -4.363896 1.330879 3.732006 0
M  V30 21 F -5.480047 1.970673 3.340102 0
M  V30 22 C -3.292332 1.013679 2.984999 0
M  V30 23 C -0.251746 -1.066422 2.702034 0
M  V30 24 C 0.758818 -1.262646 1.767687 0
M  V30 25 H 1.844787 -3.358038 3.933887 0
M  V30 26 H 0.490999 -3.884570 2.884112 0
M  V30 27 H 3.684508 -2.100955 -0.689061 0
M  V30 28 H 2.283459 -1.628403 -2.545379 0
M  V30 29 H 2.009604 0.706065 -4.258206 0
M  V30 30 H 2.086383 -1.025783 -6.060855 0
M  V30 31 H 2.721578 -2.366886 -4.966848 0
M  V30 32 H 4.650284 -0.918729 -4.220544 0
M  V30 33 H 4.078520 0.333633 -5.466500 0
M  V30 34 H 0.364354 1.377231 -0.311710 0
M  V30 35 H -1.463959 1.784195 1.336041 0
M  V30 36 H -1.314625 -0.493230 5.151353 0
M  V30 37 H -3.118079 -0.009503 6.617757 0
M  V30 38 H -5.165402 1.189366 5.767828 0
M  V30 39 H -3.401771 1.329520 1.944441 0
M  V30 40 H -0.435774 -1.724978 3.537140 0
M  V30 END ATOM
M  V30 BEGIN BOND
M  V30 1 1 1 2
M  V30 2 2 2 3
M  V30 3 1 3 4
M  V30 4 2 4 5
M  V30 5 1 5 6
M  V30 6 2 6 7
M  V30 7 1 6 8
M  V30 8 1 8 9
M  V30 9 1 9 10
M  V30 10 1 10 11
M  V30 11 1 5 12
M  V30 12 2 12 13
M  V30 13 1 13 14
M  V30 14 2 14 15
M  V30 15 1 15 16
M  V30 16 2 16 17
M  V30 17 1 17 18
M  V30 18 2 18 19
M  V30 19 1 19 20
M  V30 20 1 20 21
M  V30 21 2 20 22
M  V30 22 1 15 23
M  V30 23 2 23 24
M  V30 24 1 24 2
M  V30 25 1 11 9
M  V30 26 1 24 12
M  V30 27 1 22 16
M  V30 28 1 1 25
M  V30 29 1 1 26
M  V30 30 1 4 27
M  V30 31 1 8 28
M  V30 32 1 9 29
M  V30 33 1 10 30
M  V30 34 1 10 31
M  V30 35 1 11 32
M  V30 36 1 11 33
M  V30 37 1 13 34
M  V30 38 1 14 35
M  V30 39 1 17 36
M  V30 40 1 18 37
M  V30 41 1 19 38
M  V30 42 1 22 39
M  V30 43 1 23 40
M  V30 END BOND
M  V30 END CTAB
M  END
>  <Dataset>  (752) 
ChEMBL_Kinases

>  <Ligand_Instance>  (752) 
nan

>  <PDB_ID>  (752) 
nan

>  <Standardized_SMILES>  (752) 
Nc1ncc(C(=O)NC2CC2)c2ccc(-c3cccc(F)c3)cc12

>  <Name>  (752) 
nan

>  <Pocket>  (752) 
nan

>  <ATP_Site>  (752) 
nan

>  <Peripheral>  (752) 
nan

>  <Num_H_Atoms_ProtBoundConf>  (752) 
nan

>  <Num_Resolved_Atoms>  (752) 
nan

>  <Num_Not_Resolved_Atoms>  (752) 
nan

$$$$
CHEMBL3623129
     RDKit          3D

  0  0  0  0  0  0  0  0  0  0999 V3000
M  V30 BEGIN CTAB
M  V30 COUNTS 37 39 0 0 0
M  V30 BEGIN ATOM
M  V30 1 N 1.579334 -3.538931 5.255553 0
M  V30 2 C 1.629857 -4.096663 4.233225 0
M  V30 3 C 1.698430 -4.810595 2.975640 0
M  V30 4 N 1.745200 -3.927901 1.815744 0
M  V30 5 C 2.806882 -2.963489 1.630707 0
M  V30 6 O 3.682192 -2.941657 2.532217 0
M  V30 7 C 2.701701 -2.143847 0.401345 0
M  V30 8 C 3.562482 -2.194476 -0.675902 0
M  V30 9 N 3.352416 -1.391356 -1.749254 0
M  V30 10 C 2.276083 -0.547275 -1.722499 0
M  V30 11 N 2.143943 0.242709 -2.892538 0
M  V30 12 C 1.394890 -0.466241 -0.667715 0
M  V30 13 C 0.356169 0.433192 -0.787507 0
M  V30 14 C -0.551729 0.543515 0.249196 0
M  V30 15 C -1.707500 1.432494 0.337812 0
M  V30 16 C -1.706092 2.684883 -0.239193 0
M  V30 17 C -2.809635 3.515019 -0.155702 0
M  V30 18 C -3.963994 3.102223 0.521828 0
M  V30 19 C -3.963297 1.832534 1.106526 0
M  V30 20 F -5.107141 1.471724 1.755913 0
M  V30 21 C -2.839345 0.999019 1.015257 0
M  V30 22 C -0.345781 -0.280317 1.363275 0
M  V30 23 C 0.702649 -1.170335 1.454594 0
M  V30 24 C 1.608251 -1.281560 0.422076 0
M  V30 25 H 0.731403 -5.384494 2.880495 0
M  V30 26 H 2.479202 -5.577880 2.982422 0
M  V30 27 H 0.985998 -3.977391 1.069397 0
M  V30 28 H 4.341241 -2.925136 -0.497800 0
M  V30 29 H 1.208645 0.378294 -3.377414 0
M  V30 30 H 2.876722 0.767742 -3.415178 0
M  V30 31 H 0.163999 1.076633 -1.620399 0
M  V30 32 H -0.781098 2.944336 -0.746894 0
M  V30 33 H -2.763110 4.497025 -0.624906 0
M  V30 34 H -4.823739 3.766510 0.579706 0
M  V30 35 H -2.909721 0.029734 1.490643 0
M  V30 36 H -1.006969 -0.256857 2.219966 0
M  V30 37 H 0.849110 -1.797607 2.322333 0
M  V30 END ATOM
M  V30 BEGIN BOND
M  V30 1 3 1 2
M  V30 2 1 2 3
M  V30 3 1 3 4
M  V30 4 1 4 5
M  V30 5 2 5 6
M  V30 6 1 5 7
M  V30 7 2 7 8
M  V30 8 1 8 9
M  V30 9 2 9 10
M  V30 10 1 10 11
M  V30 11 1 10 12
M  V30 12 2 12 13
M  V30 13 1 13 14
M  V30 14 1 14 15
M  V30 15 2 15 16
M  V30 16 1 16 17
M  V30 17 2 17 18
M  V30 18 1 18 19
M  V30 19 1 19 20
M  V30 20 2 19 21
M  V30 21 2 14 22
M  V30 22 1 22 23
M  V30 23 2 23 24
M  V30 24 1 24 7
M  V30 25 1 24 12
M  V30 26 1 21 15
M  V30 27 1 3 25
M  V30 28 1 3 26
M  V30 29 1 4 27
M  V30 30 1 8 28
M  V30 31 1 11 29
M  V30 32 1 11 30
M  V30 33 1 13 31
M  V30 34 1 16 32
M  V30 35 1 17 33
M  V30 36 1 18 34
M  V30 37 1 21 35
M  V30 38 1 22 36
M  V30 39 1 23 37
M  V30 END BOND
M  V30 END CTAB
M  END
>  <Dataset>  (753) 
ChEMBL_Kinases

>  <Ligand_Instance>  (753) 
nan

>  <PDB_ID>  (753) 
nan

>  <Standardized_SMILES>  (753) 
N#CCNC(=O)c1cnc(N)c2cc(-c3cccc(F)c3)ccc12

>  <Name>  (753) 
nan

>  <Pocket>  (753) 
nan

>  <ATP_Site>  (753) 
nan

>  <Peripheral>  (753) 
nan

>  <Num_H_Atoms_ProtBoundConf>  (753) 
nan

>  <Num_Resolved_Atoms>  (753) 
nan

>  <Num_Not_Resolved_Atoms>  (753) 
nan

$$$$
CHEMBL3623128
     RDKit          3D

  0  0  0  0  0  0  0  0  0  0999 V3000
M  V30 BEGIN CTAB
M  V30 COUNTS 33 35 0 0 0
M  V30 BEGIN ATOM
M  V30 1 N -4.002139 -2.795723 2.076947 0
M  V30 2 C -2.844108 -3.461831 1.609547 0
M  V30 3 O -3.361508 -4.587978 1.796055 0
M  V30 4 C -1.497041 -3.310085 1.080439 0
M  V30 5 C -0.881827 -4.511918 0.823932 0
M  V30 6 N 0.383024 -4.391739 0.325361 0
M  V30 7 C 0.964921 -3.208816 0.108579 0
M  V30 8 N 2.291341 -3.270781 -0.416537 0
M  V30 9 C 0.347065 -2.005303 0.366200 0
M  V30 10 C 1.013340 -0.822552 0.115811 0
M  V30 11 C 0.309132 0.328597 0.406766 0
M  V30 12 C 0.908440 1.640595 0.183589 0
M  V30 13 C 1.786171 1.680746 -0.879316 0
M  V30 14 C 2.420533 2.877525 -1.190394 0
M  V30 15 C 2.159067 3.999839 -0.429771 0
M  V30 16 C 1.279161 3.950964 0.632379 0
M  V30 17 F 0.969533 5.011404 1.427999 0
M  V30 18 C 0.640119 2.755366 0.949647 0
M  V30 19 C -0.983337 0.294545 0.917262 0
M  V30 20 C -1.619358 -0.907757 1.155459 0
M  V30 21 C -0.934557 -2.070664 0.872029 0
M  V30 22 H -4.191131 -2.529350 3.089328 0
M  V30 23 H -4.814504 -2.484899 1.464508 0
M  V30 24 H -1.312117 -5.489747 0.983018 0
M  V30 25 H 2.380022 -2.941046 -1.408063 0
M  V30 26 H 2.914516 -3.653216 0.348753 0
M  V30 27 H 2.014400 -0.803376 -0.279687 0
M  V30 28 H 2.060787 0.867271 -1.535250 0
M  V30 29 H 3.124091 2.977888 -2.015680 0
M  V30 30 H 2.601012 4.967966 -0.593886 0
M  V30 31 H -0.062776 2.637762 1.767369 0
M  V30 32 H -1.500265 1.232102 1.131823 0
M  V30 33 H -2.621027 -0.957860 1.550892 0
M  V30 END ATOM
M  V30 BEGIN BOND
M  V30 1 1 1 2
M  V30 2 2 2 3
M  V30 3 1 2 4
M  V30 4 2 4 5
M  V30 5 1 5 6
M  V30 6 2 6 7
M  V30 7 1 7 8
M  V30 8 1 7 9
M  V30 9 2 9 10
M  V30 10 1 10 11
M  V30 11 1 11 12
M  V30 12 2 12 13
M  V30 13 1 13 14
M  V30 14 2 14 15
M  V30 15 1 15 16
M  V30 16 1 16 17
M  V30 17 2 16 18
M  V30 18 2 11 19
M  V30 19 1 19 20
M  V30 20 2 20 21
M  V30 21 1 21 4
M  V30 22 1 21 9
M  V30 23 1 18 12
M  V30 24 1 1 22
M  V30 25 1 1 23
M  V30 26 1 5 24
M  V30 27 1 8 25
M  V30 28 1 8 26
M  V30 29 1 10 27
M  V30 30 1 13 28
M  V30 31 1 14 29
M  V30 32 1 15 30
M  V30 33 1 18 31
M  V30 34 1 19 32
M  V30 35 1 20 33
M  V30 END BOND
M  V30 END CTAB
M  END
>  <Dataset>  (754) 
ChEMBL_Kinases

>  <Ligand_Instance>  (754) 
nan

>  <PDB_ID>  (754) 
nan

>  <Standardized_SMILES>  (754) 
NC(=O)c1cnc(N)c2cc(-c3cccc(F)c3)ccc12

>  <Name>  (754) 
nan

>  <Pocket>  (754) 
nan

>  <ATP_Site>  (754) 
nan

>  <Peripheral>  (754) 
nan

>  <Num_H_Atoms_ProtBoundConf>  (754) 
nan

>  <Num_Resolved_Atoms>  (754) 
nan

>  <Num_Not_Resolved_Atoms>  (754) 
nan

$$$$
CHEMBL362296
     RDKit          3D

  0  0  0  0  0  0  0  0  0  0999 V3000
M  V30 BEGIN CTAB
M  V30 COUNTS 41 45 0 0 0
M  V30 BEGIN ATOM
M  V30 1 C 1.385732 -5.562712 2.604882 0
M  V30 2 C 2.746953 -5.396732 2.487915 0
M  V30 3 C 3.292274 -4.273849 1.863719 0
M  V30 4 C 2.452987 -3.280745 1.336366 0
M  V30 5 N 2.961772 -2.093740 0.701274 0
M  V30 6 C 2.066956 -1.211467 0.036972 0
M  V30 7 N 2.175171 -1.330575 -1.303492 0
M  V30 8 C 1.408834 -0.597150 -2.148633 0
M  V30 9 C 0.469815 0.315484 -1.661555 0
M  V30 10 C 0.390918 0.403825 -0.289309 0
M  V30 11 C -0.580880 1.311721 0.290712 0
M  V30 12 C -0.699793 2.627828 0.659551 0
M  V30 13 C 0.381253 3.617472 0.487270 0
M  V30 14 C 1.311812 3.832395 1.721823 0
M  V30 15 C 1.800891 3.269290 0.424052 0
M  V30 16 N -1.941753 2.806868 1.171310 0
M  V30 17 N -2.621003 1.673624 1.148530 0
M  V30 18 N -3.852384 1.471776 1.560614 0
M  V30 19 C -4.456782 0.274571 1.491381 0
M  V30 20 C -3.717870 -0.755395 0.959780 0
M  V30 21 C -2.433432 -0.494366 0.542098 0
M  V30 22 C -1.794131 0.729566 0.605115 0
M  V30 23 N 1.173236 -0.342093 0.540125 0
M  V30 24 C 1.080568 -3.475486 1.468443 0
M  V30 25 C 0.544111 -4.592364 2.089573 0
M  V30 26 H 1.045738 -6.459287 3.104065 0
M  V30 27 H 3.484163 -6.109389 2.862753 0
M  V30 28 H 4.378304 -4.155905 1.773941 0
M  V30 29 H 3.983959 -1.911893 0.742708 0
M  V30 30 H 1.509864 -0.701406 -3.243574 0
M  V30 31 H -0.166931 0.930177 -2.286963 0
M  V30 32 H 0.093790 4.560384 -0.055560 0
M  V30 33 H 1.486375 4.925626 1.937272 0
M  V30 34 H 1.145506 3.161009 2.584718 0
M  V30 35 H 2.488718 3.960002 -0.121089 0
M  V30 36 H 2.141475 2.234286 0.405969 0
M  V30 37 H -5.453543 0.057411 1.812977 0
M  V30 38 H -4.108868 -1.744246 0.862346 0
M  V30 39 H -1.863543 -1.319285 0.125227 0
M  V30 40 H 0.384512 -2.722521 1.073111 0
M  V30 41 H -0.541940 -4.728760 2.188667 0
M  V30 END ATOM
M  V30 BEGIN BOND
M  V30 1 2 1 2
M  V30 2 1 2 3
M  V30 3 2 3 4
M  V30 4 1 4 5
M  V30 5 1 5 6
M  V30 6 2 6 7
M  V30 7 1 7 8
M  V30 8 2 8 9
M  V30 9 1 9 10
M  V30 10 1 10 11
M  V30 11 1 11 12
M  V30 12 1 12 13
M  V30 13 1 13 14
M  V30 14 1 14 15
M  V30 15 2 12 16
M  V30 16 1 16 17
M  V30 17 1 17 18
M  V30 18 2 18 19
M  V30 19 1 19 20
M  V30 20 2 20 21
M  V30 21 1 21 22
M  V30 22 2 10 23
M  V30 23 1 4 24
M  V30 24 2 24 25
M  V30 25 1 25 1
M  V30 26 1 23 6
M  V30 27 2 22 11
M  V30 28 1 15 13
M  V30 29 1 22 17
M  V30 30 1 1 26
M  V30 31 1 2 27
M  V30 32 1 3 28
M  V30 33 1 5 29
M  V30 34 1 8 30
M  V30 35 1 9 31
M  V30 36 1 13 32
M  V30 37 1 14 33
M  V30 38 1 14 34
M  V30 39 1 15 35
M  V30 40 1 15 36
M  V30 41 1 19 37
M  V30 42 1 20 38
M  V30 43 1 21 39
M  V30 44 1 24 40
M  V30 45 1 25 41
M  V30 END BOND
M  V30 END CTAB
M  END
>  <Dataset>  (755) 
ChEMBL_Kinases

>  <Ligand_Instance>  (755) 
nan

>  <PDB_ID>  (755) 
nan

>  <Standardized_SMILES>  (755) 
c1ccc(Nc2nccc(-c3c(C4CC4)nn4ncccc34)n2)cc1

>  <Name>  (755) 
nan

>  <Pocket>  (755) 
nan

>  <ATP_Site>  (755) 
nan

>  <Peripheral>  (755) 
nan

>  <Num_H_Atoms_ProtBoundConf>  (755) 
nan

>  <Num_Resolved_Atoms>  (755) 
nan

>  <Num_Not_Resolved_Atoms>  (755) 
nan

$$$$
CHEMBL3622958
     RDKit          3D

  0  0  0  0  0  0  0  0  0  0999 V3000
M  V30 BEGIN CTAB
M  V30 COUNTS 58 62 0 0 0
M  V30 BEGIN ATOM
M  V30 1 C 0.426291 -5.225771 1.565677 0
M  V30 2 C 1.288250 -4.138792 1.040977 0
M  V30 3 N 1.956598 -3.255757 1.803660 0
M  V30 4 N 2.632500 -2.415671 1.045645 0
M  V30 5 C 3.501080 -1.297635 1.174671 0
M  V30 6 C 4.872278 -1.304954 1.181552 0
M  V30 7 C 5.482160 -0.097105 1.317236 0
M  V30 8 N 4.766737 1.011902 1.434746 0
M  V30 9 C 3.430400 1.042646 1.430611 0
M  V30 10 N 2.756909 2.267405 1.559539 0
M  V30 11 C 1.364145 2.537443 1.581467 0
M  V30 12 C 0.868014 3.818268 1.705017 0
M  V30 13 C -0.472077 4.118607 1.729582 0
M  V30 14 C -1.412813 3.117852 1.628248 0
M  V30 15 C -0.983920 1.828648 1.503600 0
M  V30 16 C 0.371078 1.588545 1.485046 0
M  V30 17 C -2.113546 1.041215 1.422274 0
M  V30 18 C -2.134402 -0.452896 1.276255 0
M  V30 19 C -3.211168 1.880181 1.500206 0
M  V30 20 C -4.620784 1.351838 1.443440 0
M  V30 21 N -2.757762 3.142409 1.625405 0
M  V30 22 C -3.642447 4.294851 1.734493 0
M  V30 23 N 2.829557 -0.146300 1.296941 0
M  V30 24 C 2.412175 -2.743287 -0.259073 0
M  V30 25 C 1.556323 -3.841754 -0.300687 0
M  V30 26 C 0.972374 -4.629679 -1.388564 0
M  V30 27 N -0.418040 -4.335361 -1.629635 0
M  V30 28 C -0.771596 -3.003145 -1.989291 0
M  V30 29 C -1.048823 -3.476831 -3.397584 0
M  V30 30 O -2.348599 -3.190603 -3.813959 0
M  V30 31 C -0.975931 -4.873806 -2.829084 0
M  V30 32 H 0.541844 -6.136080 0.917449 0
M  V30 33 H 0.767396 -5.558125 2.567636 0
M  V30 34 H -0.641679 -4.930377 1.629370 0
M  V30 35 H 5.337193 -2.272290 1.078507 0
M  V30 36 H 6.573875 -0.086464 1.324685 0
M  V30 37 H 3.350425 3.133135 1.656306 0
M  V30 38 H 1.569745 4.658053 1.789890 0
M  V30 39 H -0.783378 5.150578 1.829491 0
M  V30 40 H 0.620931 0.544550 1.384112 0
M  V30 41 H -3.043086 -0.811020 0.763974 0
M  V30 42 H -2.148933 -0.914888 2.296406 0
M  V30 43 H -1.203720 -0.770357 0.805159 0
M  V30 44 H -4.819360 1.029180 0.401463 0
M  V30 45 H -5.354197 2.076570 1.834231 0
M  V30 46 H -4.684595 0.442701 2.076405 0
M  V30 47 H -3.087242 5.245031 1.670752 0
M  V30 48 H -4.119832 4.254217 2.739578 0
M  V30 49 H -4.448324 4.283210 0.948568 0
M  V30 50 H 2.718056 -2.384804 -1.248454 0
M  V30 51 H 1.005538 -5.724503 -1.118115 0
M  V30 52 H 1.569234 -4.574654 -2.328416 0
M  V30 53 H -1.691430 -2.645211 -1.488244 0
M  V30 54 H 0.045296 -2.252866 -1.990505 0
M  V30 55 H -0.255386 -3.241190 -4.131822 0
M  V30 56 H -2.404431 -2.278180 -4.206353 0
M  V30 57 H -1.949336 -5.400558 -2.737180 0
M  V30 58 H -0.294960 -5.485971 -3.456040 0
M  V30 END ATOM
M  V30 BEGIN BOND
M  V30 1 1 1 2
M  V30 2 2 2 3
M  V30 3 1 3 4
M  V30 4 1 4 5
M  V30 5 2 5 6
M  V30 6 1 6 7
M  V30 7 2 7 8
M  V30 8 1 8 9
M  V30 9 1 9 10
M  V30 10 1 10 11
M  V30 11 2 11 12
M  V30 12 1 12 13
M  V30 13 2 13 14
M  V30 14 1 14 15
M  V30 15 2 15 16
M  V30 16 1 15 17
M  V30 17 1 17 18
M  V30 18 2 17 19
M  V30 19 1 19 20
M  V30 20 1 19 21
M  V30 21 1 21 22
M  V30 22 2 9 23
M  V30 23 1 4 24
M  V30 24 2 24 25
M  V30 25 1 25 26
M  V30 26 1 26 27
M  V30 27 1 27 28
M  V30 28 1 28 29
M  V30 29 1 29 30
M  V30 30 1 29 31
M  V30 31 1 25 2
M  V30 32 1 31 27
M  V30 33 1 23 5
M  V30 34 1 16 11
M  V30 35 1 21 14
M  V30 36 1 1 32
M  V30 37 1 1 33
M  V30 38 1 1 34
M  V30 39 1 6 35
M  V30 40 1 7 36
M  V30 41 1 10 37
M  V30 42 1 12 38
M  V30 43 1 13 39
M  V30 44 1 16 40
M  V30 45 1 18 41
M  V30 46 1 18 42
M  V30 47 1 18 43
M  V30 48 1 20 44
M  V30 49 1 20 45
M  V30 50 1 20 46
M  V30 51 1 22 47
M  V30 52 1 22 48
M  V30 53 1 22 49
M  V30 54 1 24 50
M  V30 55 1 26 51
M  V30 56 1 26 52
M  V30 57 1 28 53
M  V30 58 1 28 54
M  V30 59 1 29 55
M  V30 60 1 30 56
M  V30 61 1 31 57
M  V30 62 1 31 58
M  V30 END BOND
M  V30 END CTAB
M  END
>  <Dataset>  (756) 
ChEMBL_Kinases

>  <Ligand_Instance>  (756) 
nan

>  <PDB_ID>  (756) 
nan

>  <Standardized_SMILES>  (756) 
Cc1nn(-c2ccnc(Nc3ccc4c(c3)c(C)c(C)n4C)n2)cc1CN1CC(O)C1

>  <Name>  (756) 
nan

>  <Pocket>  (756) 
nan

>  <ATP_Site>  (756) 
nan

>  <Peripheral>  (756) 
nan

>  <Num_H_Atoms_ProtBoundConf>  (756) 
nan

>  <Num_Resolved_Atoms>  (756) 
nan

>  <Num_Not_Resolved_Atoms>  (756) 
nan

$$$$
CHEMBL3622956
     RDKit          3D

  0  0  0  0  0  0  0  0  0  0999 V3000
M  V30 BEGIN CTAB
M  V30 COUNTS 55 59 0 0 0
M  V30 BEGIN ATOM
M  V30 1 C -1.382908 -3.237532 2.503647 0
M  V30 2 C -0.095355 -2.959727 1.812831 0
M  V30 3 N 0.937637 -2.265567 2.320679 0
M  V30 4 N 1.918983 -2.215208 1.396184 0
M  V30 5 C 3.182915 -1.552224 1.532499 0
M  V30 6 C 4.484318 -1.955659 1.553345 0
M  V30 7 C 5.428792 -0.990693 1.699279 0
M  V30 8 N 5.101022 0.311270 1.818583 0
M  V30 9 C 3.804733 0.736083 1.801303 0
M  V30 10 N 3.442164 2.126889 1.978180 0
M  V30 11 C 2.033219 2.333791 1.800449 0
M  V30 12 C 1.409758 3.172441 2.706287 0
M  V30 13 C 0.061400 3.426614 2.580133 0
M  V30 14 C -0.660438 2.842384 1.543699 0
M  V30 15 C -0.014962 2.009823 0.652378 0
M  V30 16 C 1.356803 1.718377 0.740745 0
M  V30 17 C -0.979602 1.583424 -0.256372 0
M  V30 18 Cl -0.612298 0.522977 -1.569240 0
M  V30 19 C -2.198129 2.176945 0.110047 0
M  V30 20 C -3.416856 1.895846 -0.706690 0
M  V30 21 N -1.969486 2.931540 1.202546 0
M  V30 22 C -3.040188 3.675058 1.818215 0
M  V30 23 N 2.895047 -0.256649 1.654780 0
M  V30 24 C 1.537467 -2.870061 0.287212 0
M  V30 25 C 0.268070 -3.344045 0.539193 0
M  V30 26 C -0.655824 -4.147713 -0.326605 0
M  V30 27 N -0.387810 -3.993093 -1.723660 0
M  V30 28 C -1.085206 -4.921201 -2.609180 0
M  V30 29 C -2.186051 -3.943376 -2.779165 0
M  V30 30 O -3.223528 -4.170267 -1.880138 0
M  V30 31 C -1.157938 -2.919388 -2.339079 0
M  V30 32 H -1.794141 -4.213182 2.201194 0
M  V30 33 H -1.239703 -3.200980 3.608556 0
M  V30 34 H -2.106619 -2.424506 2.213388 0
M  V30 35 H 4.560851 -3.033015 1.451934 0
M  V30 36 H 6.446687 -1.337381 1.710656 0
M  V30 37 H 4.190625 2.787750 2.194712 0
M  V30 38 H 1.973873 3.626124 3.502595 0
M  V30 39 H -0.446723 4.085830 3.291614 0
M  V30 40 H 1.850478 1.061472 0.025568 0
M  V30 41 H -3.479880 0.824636 -0.983550 0
M  V30 42 H -3.421919 2.462385 -1.661033 0
M  V30 43 H -4.330027 2.088083 -0.107196 0
M  V30 44 H -3.355465 4.538414 1.184153 0
M  V30 45 H -2.739820 4.059008 2.814245 0
M  V30 46 H -3.911362 2.981951 1.986503 0
M  V30 47 H 2.075071 -3.017699 -0.635589 0
M  V30 48 H -1.716505 -3.776390 -0.166268 0
M  V30 49 H -0.702770 -5.208139 -0.020465 0
M  V30 50 H -0.496131 -5.065384 -3.551046 0
M  V30 51 H -1.349587 -5.889093 -2.121954 0
M  V30 52 H -2.544428 -3.755833 -3.816677 0
M  V30 53 H -4.008818 -3.591114 -2.084285 0
M  V30 54 H -0.638055 -2.426518 -3.177809 0
M  V30 55 H -1.666300 -2.238414 -1.614083 0
M  V30 END ATOM
M  V30 BEGIN BOND
M  V30 1 1 1 2
M  V30 2 2 2 3
M  V30 3 1 3 4
M  V30 4 1 4 5
M  V30 5 2 5 6
M  V30 6 1 6 7
M  V30 7 2 7 8
M  V30 8 1 8 9
M  V30 9 1 9 10
M  V30 10 1 10 11
M  V30 11 2 11 12
M  V30 12 1 12 13
M  V30 13 2 13 14
M  V30 14 1 14 15
M  V30 15 2 15 16
M  V30 16 1 15 17
M  V30 17 1 17 18
M  V30 18 2 17 19
M  V30 19 1 19 20
M  V30 20 1 19 21
M  V30 21 1 21 22
M  V30 22 2 9 23
M  V30 23 1 4 24
M  V30 24 2 24 25
M  V30 25 1 25 26
M  V30 26 1 26 27
M  V30 27 1 27 28
M  V30 28 1 28 29
M  V30 29 1 29 30
M  V30 30 1 29 31
M  V30 31 1 25 2
M  V30 32 1 31 27
M  V30 33 1 23 5
M  V30 34 1 16 11
M  V30 35 1 21 14
M  V30 36 1 1 32
M  V30 37 1 1 33
M  V30 38 1 1 34
M  V30 39 1 6 35
M  V30 40 1 7 36
M  V30 41 1 10 37
M  V30 42 1 12 38
M  V30 43 1 13 39
M  V30 44 1 16 40
M  V30 45 1 20 41
M  V30 46 1 20 42
M  V30 47 1 20 43
M  V30 48 1 22 44
M  V30 49 1 22 45
M  V30 50 1 22 46
M  V30 51 1 24 47
M  V30 52 1 26 48
M  V30 53 1 26 49
M  V30 54 1 28 50
M  V30 55 1 28 51
M  V30 56 1 29 52
M  V30 57 1 30 53
M  V30 58 1 31 54
M  V30 59 1 31 55
M  V30 END BOND
M  V30 END CTAB
M  END
>  <Dataset>  (757) 
ChEMBL_Kinases

>  <Ligand_Instance>  (757) 
nan

>  <PDB_ID>  (757) 
nan

>  <Standardized_SMILES>  (757) 
Cc1nn(-c2ccnc(Nc3ccc4c(c3)c(Cl)c(C)n4C)n2)cc1CN1CC(O)C1

>  <Name>  (757) 
nan

>  <Pocket>  (757) 
nan

>  <ATP_Site>  (757) 
nan

>  <Peripheral>  (757) 
nan

>  <Num_H_Atoms_ProtBoundConf>  (757) 
nan

>  <Num_Resolved_Atoms>  (757) 
nan

>  <Num_Not_Resolved_Atoms>  (757) 
nan

$$$$
CHEMBL362255
     RDKit          3D

  0  0  0  0  0  0  0  0  0  0999 V3000
M  V30 BEGIN CTAB
M  V30 COUNTS 46 49 0 0 0
M  V30 BEGIN ATOM
M  V30 1 C -2.521041 -7.294265 0.490572 0
M  V30 2 C -1.604990 -6.284894 -0.106804 0
M  V30 3 C -0.715888 -6.593356 -1.129040 0
M  V30 4 C 0.143536 -5.678208 -1.700408 0
M  V30 5 C 0.125779 -4.374122 -1.234186 0
M  V30 6 O 0.944997 -3.367863 -1.732824 0
M  V30 7 C 0.901750 -2.065220 -1.240538 0
M  V30 8 C 0.078958 -1.076143 -1.742301 0
M  V30 9 C 0.097020 0.193553 -1.195723 0
M  V30 10 C 0.958468 0.432029 -0.142036 0
M  V30 11 C 1.006509 1.760642 0.462168 0
M  V30 12 N 1.777506 2.156539 1.481064 0
M  V30 13 C 1.577734 3.449775 1.795891 0
M  V30 14 C 2.136011 4.271371 2.755504 0
M  V30 15 C 1.685870 5.587769 2.802375 0
M  V30 16 C 2.238100 6.504114 3.794584 0
M  V30 17 N 3.231663 6.053426 4.709157 0
M  V30 18 O 1.948839 7.713887 3.975596 0
M  V30 19 C 0.723697 6.043873 1.924852 0
M  V30 20 C 0.171287 5.217264 0.969668 0
M  V30 21 C 0.601319 3.895667 0.898348 0
M  V30 22 N 0.283313 2.838452 0.107392 0
M  V30 23 C 1.778209 -0.559606 0.355283 0
M  V30 24 C 1.769228 -1.848093 -0.189021 0
M  V30 25 C -0.751748 -4.041854 -0.215704 0
M  V30 26 C -1.611367 -4.973162 0.350318 0
M  V30 27 C -2.563106 -4.633671 1.447745 0
M  V30 28 H -2.143932 -8.314345 0.304586 0
M  V30 29 H -3.502975 -7.138641 -0.014484 0
M  V30 30 H -2.609435 -7.171171 1.599150 0
M  V30 31 H -0.732433 -7.634119 -1.469479 0
M  V30 32 H 0.821913 -5.935780 -2.487983 0
M  V30 33 H -0.575716 -1.315467 -2.567146 0
M  V30 34 H -0.529703 0.993455 -1.558619 0
M  V30 35 H 2.887224 3.880766 3.426319 0
M  V30 36 H 2.864772 5.197196 5.196370 0
M  V30 37 H 2.959171 5.185123 5.258461 0
M  V30 38 H 0.417250 7.090331 2.019067 0
M  V30 39 H -0.581669 5.575850 0.283633 0
M  V30 40 H -0.435199 2.894776 -0.665792 0
M  V30 41 H 2.436024 -0.297190 1.193195 0
M  V30 42 H 2.432099 -2.594395 0.236168 0
M  V30 43 H -0.851839 -3.058114 0.225335 0
M  V30 44 H -2.804581 -3.560914 1.486321 0
M  V30 45 H -2.057332 -4.985019 2.387639 0
M  V30 46 H -3.516995 -5.186715 1.343230 0
M  V30 END ATOM
M  V30 BEGIN BOND
M  V30 1 1 1 2
M  V30 2 2 2 3
M  V30 3 1 3 4
M  V30 4 2 4 5
M  V30 5 1 5 6
M  V30 6 1 6 7
M  V30 7 2 7 8
M  V30 8 1 8 9
M  V30 9 2 9 10
M  V30 10 1 10 11
M  V30 11 2 11 12
M  V30 12 1 12 13
M  V30 13 2 13 14
M  V30 14 1 14 15
M  V30 15 1 15 16
M  V30 16 1 16 17
M  V30 17 2 16 18
M  V30 18 2 15 19
M  V30 19 1 19 20
M  V30 20 2 20 21
M  V30 21 1 21 22
M  V30 22 1 10 23
M  V30 23 2 23 24
M  V30 24 1 5 25
M  V30 25 2 25 26
M  V30 26 1 26 27
M  V30 27 1 26 2
M  V30 28 1 24 7
M  V30 29 1 22 11
M  V30 30 1 21 13
M  V30 31 1 1 28
M  V30 32 1 1 29
M  V30 33 1 1 30
M  V30 34 1 3 31
M  V30 35 1 4 32
M  V30 36 1 8 33
M  V30 37 1 9 34
M  V30 38 1 14 35
M  V30 39 1 17 36
M  V30 40 1 17 37
M  V30 41 1 19 38
M  V30 42 1 20 39
M  V30 43 1 22 40
M  V30 44 1 23 41
M  V30 45 1 24 42
M  V30 46 1 25 43
M  V30 47 1 27 44
M  V30 48 1 27 45
M  V30 49 1 27 46
M  V30 END BOND
M  V30 END CTAB
M  END
>  <Dataset>  (758) 
ChEMBL_Kinases

>  <Ligand_Instance>  (758) 
nan

>  <PDB_ID>  (758) 
nan

>  <Standardized_SMILES>  (758) 
Cc1ccc(Oc2ccc(-c3nc4cc(C(N)=O)ccc4[nH]3)cc2)cc1C

>  <Name>  (758) 
nan

>  <Pocket>  (758) 
nan

>  <ATP_Site>  (758) 
nan

>  <Peripheral>  (758) 
nan

>  <Num_H_Atoms_ProtBoundConf>  (758) 
nan

>  <Num_Resolved_Atoms>  (758) 
nan

>  <Num_Not_Resolved_Atoms>  (758) 
nan

$$$$
CHEMBL362249
     RDKit          3D

  0  0  0  0  0  0  0  0  0  0999 V3000
M  V30 BEGIN CTAB
M  V30 COUNTS 40 42 0 0 0
M  V30 BEGIN ATOM
M  V30 1 N -0.842380 -4.443901 3.219844 0
M  V30 2 C -0.596849 -3.356100 2.920522 0
M  V30 3 C -0.303145 -1.986649 2.533890 0
M  V30 4 C 0.185671 -1.746720 1.241163 0
M  V30 5 C 0.412780 -2.862231 0.245456 0
M  V30 6 C -0.782349 -3.115829 -0.590450 0
M  V30 7 C -0.482876 -3.263185 -2.066452 0
M  V30 8 C 0.350211 -2.060106 -2.451371 0
M  V30 9 C 1.649023 -2.162904 -1.740948 0
M  V30 10 N 1.646125 -2.677558 -0.426706 0
M  V30 11 C 0.447502 -0.428591 0.926723 0
M  V30 12 C 0.260675 0.632346 1.787140 0
M  V30 13 C 0.556528 2.009043 1.395335 0
M  V30 14 C 1.038796 2.415217 0.168928 0
M  V30 15 C 1.290257 3.744328 -0.113381 0
M  V30 16 C 1.060402 4.715764 0.843685 0
M  V30 17 C 0.578748 4.356856 2.083362 0
M  V30 18 C 0.344824 3.017595 2.313069 0
M  V30 19 O -0.138111 2.691510 3.566621 0
M  V30 20 N -0.214137 0.354946 3.028861 0
M  V30 21 C -0.485294 -0.914622 3.384785 0
M  V30 22 N -0.980604 -1.162677 4.693401 0
M  V30 23 H 0.577023 -3.754564 0.931370 0
M  V30 24 H -1.271370 -4.054472 -0.263734 0
M  V30 25 H -1.557515 -2.327092 -0.509864 0
M  V30 26 H 0.069217 -4.175624 -2.299027 0
M  V30 27 H -1.438105 -3.243510 -2.629970 0
M  V30 28 H 0.537663 -2.141172 -3.562256 0
M  V30 29 H -0.181137 -1.127536 -2.207166 0
M  V30 30 H 2.164752 -1.170013 -1.840000 0
M  V30 31 H 2.310399 -2.848005 -2.356161 0
M  V30 32 H 2.410980 -3.300230 -0.146634 0
M  V30 33 H 0.819933 -0.283137 -0.071265 0
M  V30 34 H 1.214022 1.646260 -0.569504 0
M  V30 35 H 1.674503 4.008266 -1.109724 0
M  V30 36 H 1.268947 5.752777 0.588684 0
M  V30 37 H 0.387837 5.103710 2.858934 0
M  V30 38 H -1.138090 2.708933 3.730176 0
M  V30 39 H -0.635208 -1.484183 5.612959 0
M  V30 40 H -2.006173 -0.915384 4.585531 0
M  V30 END ATOM
M  V30 BEGIN BOND
M  V30 1 3 1 2
M  V30 2 1 2 3
M  V30 3 2 3 4
M  V30 4 1 4 5
M  V30 5 1 5 6
M  V30 6 1 6 7
M  V30 7 1 7 8
M  V30 8 1 8 9
M  V30 9 1 9 10
M  V30 10 1 4 11
M  V30 11 2 11 12
M  V30 12 1 12 13
M  V30 13 2 13 14
M  V30 14 1 14 15
M  V30 15 2 15 16
M  V30 16 1 16 17
M  V30 17 2 17 18
M  V30 18 1 18 19
M  V30 19 1 12 20
M  V30 20 2 20 21
M  V30 21 1 21 22
M  V30 22 1 21 3
M  V30 23 1 10 5
M  V30 24 1 18 13
M  V30 25 1 5 23
M  V30 26 1 6 24
M  V30 27 1 6 25
M  V30 28 1 7 26
M  V30 29 1 7 27
M  V30 30 1 8 28
M  V30 31 1 8 29
M  V30 32 1 9 30
M  V30 33 1 9 31
M  V30 34 1 10 32
M  V30 35 1 11 33
M  V30 36 1 14 34
M  V30 37 1 15 35
M  V30 38 1 16 36
M  V30 39 1 17 37
M  V30 40 1 19 38
M  V30 41 1 22 39
M  V30 42 1 22 40
M  V30 END BOND
M  V30 END CTAB
M  END
>  <Dataset>  (759) 
ChEMBL_Kinases

>  <Ligand_Instance>  (759) 
nan

>  <PDB_ID>  (759) 
nan

>  <Standardized_SMILES>  (759) 
N#Cc1c(C2CCCCN2)cc(-c2ccccc2O)nc1N

>  <Name>  (759) 
nan

>  <Pocket>  (759) 
nan

>  <ATP_Site>  (759) 
nan

>  <Peripheral>  (759) 
nan

>  <Num_H_Atoms_ProtBoundConf>  (759) 
nan

>  <Num_Resolved_Atoms>  (759) 
nan

>  <Num_Not_Resolved_Atoms>  (759) 
nan

$$$$
CHEMBL3622207
     RDKit          3D

  0  0  0  0  0  0  0  0  0  0999 V3000
M  V30 BEGIN CTAB
M  V30 COUNTS 41 44 0 0 0
M  V30 BEGIN ATOM
M  V30 1 C -2.784612 0.622764 1.167265 0
M  V30 2 C -1.474747 0.027758 1.621281 0 CFG=1
M  V30 3 O -0.545796 1.057007 1.765719 0
M  V30 4 C 0.635465 1.147199 1.074376 0
M  V30 5 N 0.959293 0.198008 0.185007 0
M  V30 6 C 2.127356 0.261227 -0.517830 0
M  V30 7 C 2.451964 -0.786003 -1.478476 0
M  V30 8 C 3.597053 -0.833485 -2.246769 0
M  V30 9 N 3.495705 -1.947005 -2.983060 0
M  V30 10 N 2.347341 -2.586481 -2.706883 0
M  V30 11 C 1.946071 -3.831609 -3.346372 0
M  V30 12 C 1.665428 -1.881109 -1.762063 0
M  V30 13 C 2.922108 1.329671 -0.259057 0
M  V30 14 C 2.557685 2.276485 0.654772 0
M  V30 15 N 3.506572 3.383084 0.841758 0
M  V30 16 S 2.682046 4.366803 2.076046 0
M  V30 17 C 1.230094 3.320876 2.254815 0
M  V30 18 C 1.396956 2.235730 1.368898 0
M  V30 19 C -1.701685 -0.663760 2.936313 0 CFG=1
M  V30 20 C -2.713286 -1.773954 2.837947 0
M  V30 21 N -2.401658 -2.562419 4.038527 0
M  V30 22 C -1.048449 -2.340099 4.406183 0
M  V30 23 O -0.324851 -2.794556 5.340601 0
M  V30 24 C -0.479577 -1.372920 3.436681 0
M  V30 25 H -3.634034 0.059463 1.555285 0
M  V30 26 H -2.795828 1.688012 1.541133 0
M  V30 27 H -2.750211 0.641240 0.055577 0
M  V30 28 H -1.136973 -0.727009 0.870494 0
M  V30 29 H 4.375328 -0.094209 -2.213581 0
M  V30 30 H 1.794637 -3.668891 -4.419690 0
M  V30 31 H 1.010059 -4.171863 -2.833235 0
M  V30 32 H 2.741424 -4.564887 -3.120952 0
M  V30 33 H 0.707814 -2.180779 -1.362726 0
M  V30 34 H 3.829431 1.326224 -0.843145 0
M  V30 35 H 0.333014 3.446975 2.919964 0
M  V30 36 H -2.028951 0.071722 3.701038 0
M  V30 37 H -3.762578 -1.450895 2.847843 0
M  V30 38 H -2.457524 -2.446539 1.986777 0
M  V30 39 H -2.968927 -3.215426 4.627917 0
M  V30 40 H -0.003795 -1.973318 2.625112 0
M  V30 41 H 0.253474 -0.689084 3.911592 0
M  V30 END ATOM
M  V30 BEGIN BOND
M  V30 1 1 1 2
M  V30 2 1 2 3
M  V30 3 1 3 4
M  V30 4 2 4 5
M  V30 5 1 5 6
M  V30 6 1 6 7
M  V30 7 1 7 8
M  V30 8 2 8 9
M  V30 9 1 9 10
M  V30 10 1 10 11
M  V30 11 1 10 12
M  V30 12 2 6 13
M  V30 13 1 13 14
M  V30 14 2 14 15
M  V30 15 1 15 16
M  V30 16 1 16 17
M  V30 17 2 17 18
M  V30 18 1 2 19
M  V30 19 1 19 20
M  V30 20 1 20 21
M  V30 21 1 21 22
M  V30 22 2 22 23
M  V30 23 1 22 24
M  V30 24 1 18 4
M  V30 25 1 24 19
M  V30 26 2 12 7
M  V30 27 1 18 14
M  V30 28 1 1 25
M  V30 29 1 1 26
M  V30 30 1 1 27
M  V30 31 1 2 28 CFG=3
M  V30 32 1 8 29
M  V30 33 1 11 30
M  V30 34 1 11 31
M  V30 35 1 11 32
M  V30 36 1 12 33
M  V30 37 1 13 34
M  V30 38 1 17 35
M  V30 39 1 19 36 CFG=1
M  V30 40 1 20 37
M  V30 41 1 20 38
M  V30 42 1 21 39
M  V30 43 1 24 40
M  V30 44 1 24 41
M  V30 END BOND
M  V30 END CTAB
M  END
>  <Dataset>  (760) 
ChEMBL_Kinases

>  <Ligand_Instance>  (760) 
nan

>  <PDB_ID>  (760) 
nan

>  <Standardized_SMILES>  (760) 
C[C@@H](Oc1nc(-c2cnn(C)c2)cc2nscc12)[C@H]1CNC(=O)C1

>  <Name>  (760) 
nan

>  <Pocket>  (760) 
nan

>  <ATP_Site>  (760) 
nan

>  <Peripheral>  (760) 
nan

>  <Num_H_Atoms_ProtBoundConf>  (760) 
nan

>  <Num_Resolved_Atoms>  (760) 
nan

>  <Num_Not_Resolved_Atoms>  (760) 
nan

$$$$
CHEMBL3622206
     RDKit          3D

  0  0  0  0  0  0  0  0  0  0999 V3000
M  V30 BEGIN CTAB
M  V30 COUNTS 42 45 0 0 0
M  V30 BEGIN ATOM
M  V30 1 C 1.084362 -4.120843 2.280546 0
M  V30 2 C 0.118044 -2.960404 2.594729 0 CFG=1
M  V30 3 O 0.489424 -1.908038 1.843357 0
M  V30 4 C 0.938908 -0.676876 1.830487 0
M  V30 5 C 1.077673 -0.226841 0.505262 0
M  V30 6 C 1.540529 1.056494 0.193866 0
M  V30 7 C 1.684519 1.528486 -1.181493 0
M  V30 8 C 2.009097 0.750801 -2.291071 0
M  V30 9 N 2.044165 1.557562 -3.386644 0
M  V30 10 N 1.756543 2.802753 -3.011777 0
M  V30 11 C 1.696605 3.961856 -3.909993 0
M  V30 12 C 1.538619 2.799651 -1.691793 0
M  V30 13 C 1.857182 1.866489 1.263650 0
M  V30 14 C 1.708416 1.392010 2.532494 0
M  V30 15 N 2.072887 2.332422 3.608432 0
M  V30 16 S 1.741054 1.349598 5.027831 0
M  V30 17 C 1.190170 -0.115485 4.228135 0
M  V30 18 C 1.264392 0.159932 2.851508 0
M  V30 19 C -1.258528 -3.521819 2.251017 0 CFG=1
M  V30 20 C -2.343105 -2.497931 2.500507 0
M  V30 21 N -2.552965 -1.869410 1.185477 0
M  V30 22 C -2.252140 -2.887207 0.212726 0
M  V30 23 O -2.685488 -2.867524 -0.966064 0
M  V30 24 C -1.374052 -3.924999 0.821972 0
M  V30 25 H 1.593924 -4.491062 3.190495 0
M  V30 26 H 0.591955 -4.966811 1.800107 0
M  V30 27 H 1.906598 -3.789054 1.601692 0
M  V30 28 H 0.178928 -2.844617 3.694910 0
M  V30 29 H 0.848016 -0.806737 -0.407717 0
M  V30 30 H 2.192824 -0.316635 -2.234710 0
M  V30 31 H 0.664590 4.409729 -3.830643 0
M  V30 32 H 1.774797 3.629721 -4.962929 0
M  V30 33 H 2.395537 4.758061 -3.623020 0
M  V30 34 H 1.284718 3.676217 -1.117252 0
M  V30 35 H 2.211719 2.852873 0.985643 0
M  V30 36 H 0.890341 -0.963195 4.755052 0
M  V30 37 H -1.441447 -4.384923 2.910201 0
M  V30 38 H -2.114935 -1.767897 3.278477 0
M  V30 39 H -3.318696 -2.968915 2.740871 0
M  V30 40 H -2.853680 -0.902636 0.909326 0
M  V30 41 H -0.399524 -3.986128 0.314608 0
M  V30 42 H -1.887088 -4.911213 0.733441 0
M  V30 END ATOM
M  V30 BEGIN BOND
M  V30 1 1 1 2
M  V30 2 1 2 3
M  V30 3 1 3 4
M  V30 4 2 4 5
M  V30 5 1 5 6
M  V30 6 1 6 7
M  V30 7 1 7 8
M  V30 8 2 8 9
M  V30 9 1 9 10
M  V30 10 1 10 11
M  V30 11 1 10 12
M  V30 12 2 6 13
M  V30 13 1 13 14
M  V30 14 2 14 15
M  V30 15 1 15 16
M  V30 16 1 16 17
M  V30 17 2 17 18
M  V30 18 1 2 19
M  V30 19 1 19 20
M  V30 20 1 20 21
M  V30 21 1 21 22
M  V30 22 2 22 23
M  V30 23 1 22 24
M  V30 24 1 18 4
M  V30 25 1 24 19
M  V30 26 2 12 7
M  V30 27 1 18 14
M  V30 28 1 1 25
M  V30 29 1 1 26
M  V30 30 1 1 27
M  V30 31 1 2 28 CFG=1
M  V30 32 1 5 29
M  V30 33 1 8 30
M  V30 34 1 11 31
M  V30 35 1 11 32
M  V30 36 1 11 33
M  V30 37 1 12 34
M  V30 38 1 13 35
M  V30 39 1 17 36
M  V30 40 1 19 37 CFG=1
M  V30 41 1 20 38
M  V30 42 1 20 39
M  V30 43 1 21 40
M  V30 44 1 24 41
M  V30 45 1 24 42
M  V30 END BOND
M  V30 END CTAB
M  END
>  <Dataset>  (761) 
ChEMBL_Kinases

>  <Ligand_Instance>  (761) 
nan

>  <PDB_ID>  (761) 
nan

>  <Standardized_SMILES>  (761) 
C[C@@H](Oc1cc(-c2cnn(C)c2)cc2nscc12)[C@H]1CNC(=O)C1

>  <Name>  (761) 
nan

>  <Pocket>  (761) 
nan

>  <ATP_Site>  (761) 
nan

>  <Peripheral>  (761) 
nan

>  <Num_H_Atoms_ProtBoundConf>  (761) 
nan

>  <Num_Resolved_Atoms>  (761) 
nan

>  <Num_Not_Resolved_Atoms>  (761) 
nan

$$$$
CHEMBL3622193
     RDKit          3D

  0  0  0  0  0  0  0  0  0  0999 V3000
M  V30 BEGIN CTAB
M  V30 COUNTS 77 82 0 0 0
M  V30 BEGIN ATOM
M  V30 1 C 1.138672 -5.593410 -3.111789 0
M  V30 2 N 0.478141 -4.590701 -3.961754 0
M  V30 3 C -0.769905 -5.182684 -4.383604 0
M  V30 4 C -1.691623 -4.131045 -5.004464 0
M  V30 5 N -1.935385 -3.164336 -3.924148 0
M  V30 6 C -3.254098 -3.068767 -3.370413 0
M  V30 7 O -4.052277 -3.864424 -3.915935 0
M  V30 8 C -3.447546 -2.087153 -2.290372 0
M  V30 9 C -2.611155 -2.233851 -1.177624 0
M  V30 10 C -2.718793 -1.358415 -0.114143 0
M  V30 11 C -3.632019 -0.328809 -0.104662 0
M  V30 12 C -4.447709 -0.199154 -1.208798 0
M  V30 13 C -4.374241 -1.063037 -2.309672 0
M  V30 14 N -5.246831 0.864648 -0.971085 0
M  V30 15 C -4.948552 1.395395 0.246946 0
M  V30 16 C -5.469684 2.467088 0.932777 0
M  V30 17 C -6.545523 3.267314 0.365092 0
M  V30 18 N -7.063163 4.371625 1.088610 0
M  V30 19 O -7.054510 3.029304 -0.758293 0
M  V30 20 C -4.962486 2.781915 2.174739 0
M  V30 21 C -3.944628 2.033573 2.726745 0
M  V30 22 C -3.386665 0.942965 2.072076 0
M  V30 23 C -2.308625 0.155357 2.666990 0
M  V30 24 C -2.643025 -0.933470 3.460878 0
M  V30 25 C -1.641460 -1.692934 4.036372 0
M  V30 26 C -0.311709 -1.337930 3.799157 0
M  V30 27 C 0.035271 -0.252863 3.008394 0
M  V30 28 N 1.423932 0.005030 2.840490 0
M  V30 29 C 2.398206 0.776432 3.529235 0
M  V30 30 O 2.032630 1.422058 4.545877 0
M  V30 31 C 3.757066 0.762889 3.004130 0
M  V30 32 C 4.214550 0.071456 1.905746 0
M  V30 33 C 5.520626 0.115787 1.478017 0
M  V30 34 C 6.458561 0.871789 2.142423 0
M  V30 35 N 7.820405 0.949899 1.739187 0
M  V30 36 C 8.857570 1.738061 2.411815 0
M  V30 37 C 8.189663 0.175931 0.561139 0
M  V30 38 C 5.993395 1.573018 3.256770 0
M  V30 39 C 4.672300 1.538948 3.703660 0
M  V30 40 C -0.971151 0.499235 2.438123 0
M  V30 41 F -0.632268 1.560291 1.665992 0
M  V30 42 C -3.928300 0.655826 0.814564 0
M  V30 43 C -0.711876 -2.450582 -3.609995 0
M  V30 44 C 0.339168 -3.419570 -3.152704 0
M  V30 45 H 2.231538 -5.558534 -3.179454 0
M  V30 46 H 0.801730 -6.613252 -3.369509 0
M  V30 47 H 0.848057 -5.403645 -2.036366 0
M  V30 48 H -1.277702 -5.670625 -3.541580 0
M  V30 49 H -0.539512 -5.910392 -5.189746 0
M  V30 50 H -1.117297 -3.659306 -5.816529 0
M  V30 51 H -2.600528 -4.637696 -5.342196 0
M  V30 52 H -1.878052 -3.044668 -1.162149 0
M  V30 53 H -2.033992 -1.548895 0.699662 0
M  V30 54 H -4.993841 -0.977023 -3.166416 0
M  V30 55 H -5.962513 1.176683 -1.660310 0
M  V30 56 H -7.507604 5.269519 0.812466 0
M  V30 57 H -7.487206 5.219980 0.659005 0
M  V30 58 H -5.349718 3.621848 2.741871 0
M  V30 59 H -3.561895 2.306597 3.712758 0
M  V30 60 H -3.678189 -1.190963 3.631903 0
M  V30 61 H -1.912415 -2.540197 4.653576 0
M  V30 62 H 0.399903 -1.993240 4.293440 0
M  V30 63 H 1.559284 -0.581541 1.988612 0
M  V30 64 H 3.489449 -0.526817 1.375771 0
M  V30 65 H 5.801229 -0.453551 0.610441 0
M  V30 66 H 9.544672 1.054059 2.974723 0
M  V30 67 H 8.467706 2.568901 2.998119 0
M  V30 68 H 9.530935 2.188786 1.627477 0
M  V30 69 H 7.918826 0.670315 -0.369585 0
M  V30 70 H 9.291774 0.056078 0.577806 0
M  V30 71 H 7.794214 -0.869519 0.605571 0
M  V30 72 H 6.660113 2.199205 3.848214 0
M  V30 73 H 4.378278 2.107709 4.576200 0
M  V30 74 H -0.817783 -1.690766 -2.833420 0
M  V30 75 H -0.329496 -2.004502 -4.573609 0
M  V30 76 H 0.248867 -3.679178 -2.069177 0
M  V30 77 H 1.317960 -2.871056 -3.218384 0
M  V30 END ATOM
M  V30 BEGIN BOND
M  V30 1 1 1 2
M  V30 2 1 2 3
M  V30 3 1 3 4
M  V30 4 1 4 5
M  V30 5 1 5 6
M  V30 6 2 6 7
M  V30 7 1 6 8
M  V30 8 2 8 9
M  V30 9 1 9 10
M  V30 10 2 10 11
M  V30 11 1 11 12
M  V30 12 2 12 13
M  V30 13 1 12 14
M  V30 14 1 14 15
M  V30 15 2 15 16
M  V30 16 1 16 17
M  V30 17 1 17 18
M  V30 18 2 17 19
M  V30 19 1 16 20
M  V30 20 2 20 21
M  V30 21 1 21 22
M  V30 22 1 22 23
M  V30 23 2 23 24
M  V30 24 1 24 25
M  V30 25 2 25 26
M  V30 26 1 26 27
M  V30 27 1 27 28
M  V30 28 1 28 29
M  V30 29 2 29 30
M  V30 30 1 29 31
M  V30 31 2 31 32
M  V30 32 1 32 33
M  V30 33 2 33 34
M  V30 34 1 34 35
M  V30 35 1 35 36
M  V30 36 1 35 37
M  V30 37 1 34 38
M  V30 38 2 38 39
M  V30 39 2 27 40
M  V30 40 1 40 41
M  V30 41 2 22 42
M  V30 42 1 5 43
M  V30 43 1 43 44
M  V30 44 1 44 2
M  V30 45 1 13 8
M  V30 46 1 42 15
M  V30 47 1 42 11
M  V30 48 1 40 23
M  V30 49 1 39 31
M  V30 50 1 1 45
M  V30 51 1 1 46
M  V30 52 1 1 47
M  V30 53 1 3 48
M  V30 54 1 3 49
M  V30 55 1 4 50
M  V30 56 1 4 51
M  V30 57 1 9 52
M  V30 58 1 10 53
M  V30 59 1 13 54
M  V30 60 1 14 55
M  V30 61 1 18 56
M  V30 62 1 18 57
M  V30 63 1 20 58
M  V30 64 1 21 59
M  V30 65 1 24 60
M  V30 66 1 25 61
M  V30 67 1 26 62
M  V30 68 1 28 63
M  V30 69 1 32 64
M  V30 70 1 33 65
M  V30 71 1 36 66
M  V30 72 1 36 67
M  V30 73 1 36 68
M  V30 74 1 37 69
M  V30 75 1 37 70
M  V30 76 1 37 71
M  V30 77 1 38 72
M  V30 78 1 39 73
M  V30 79 1 43 74
M  V30 80 1 43 75
M  V30 81 1 44 76
M  V30 82 1 44 77
M  V30 END BOND
M  V30 END CTAB
M  END
>  <Dataset>  (762) 
ChEMBL_Kinases

>  <Ligand_Instance>  (762) 
nan

>  <PDB_ID>  (762) 
nan

>  <Standardized_SMILES>  (762) 
CN1CCN(C(=O)c2ccc3c(c2)[nH]c2c(C(N)=O)ccc(-c4cccc(NC(=O)c5ccc(N(C)C)cc5)c4F)c23)CC1

>  <Name>  (762) 
nan

>  <Pocket>  (762) 
nan

>  <ATP_Site>  (762) 
nan

>  <Peripheral>  (762) 
nan

>  <Num_H_Atoms_ProtBoundConf>  (762) 
nan

>  <Num_Resolved_Atoms>  (762) 
nan

>  <Num_Not_Resolved_Atoms>  (762) 
nan

$$$$
CHEMBL3622137
     RDKit          3D

  0  0  0  0  0  0  0  0  0  0999 V3000
M  V30 BEGIN CTAB
M  V30 COUNTS 59 64 0 0 0
M  V30 BEGIN ATOM
M  V30 1 C 1.393464 0.025483 3.339232 0
M  V30 2 C -0.087935 0.323513 3.280039 0
M  V30 3 N -0.610911 0.311070 1.918169 0
M  V30 4 C -0.687584 1.365724 1.073132 0
M  V30 5 C -0.249494 2.716015 1.372098 0
M  V30 6 O -1.264160 3.129174 1.981363 0
M  V30 7 N 0.957759 3.454003 1.101360 0
M  V30 8 C 2.149783 3.020914 0.386590 0
M  V30 9 C 1.899538 2.376282 -0.994157 0
M  V30 10 C 2.417245 1.579361 0.145624 0
M  V30 11 C 0.986685 4.808587 1.608937 0
M  V30 12 C 0.301324 5.199191 2.877923 0
M  V30 13 C -0.251214 5.676354 1.560456 0
M  V30 14 C -1.254917 0.828944 -0.057559 0
M  V30 15 C -1.531788 -0.514503 0.053785 0
M  V30 16 C -2.090706 -1.437186 -0.810075 0
M  V30 17 C -2.228039 -2.738599 -0.356080 0
M  V30 18 N -2.782373 -3.419611 -1.361170 0
M  V30 19 C -2.976391 -2.577603 -2.383766 0
M  V30 20 N -2.556211 -1.339429 -2.070687 0
M  V30 21 C -2.591937 -0.156000 -2.900156 0
M  V30 22 C -1.796171 -3.045570 0.941005 0
M  V30 23 N -2.000363 -4.407900 1.290248 0
M  V30 24 C -0.840809 -5.196971 0.733951 0
M  V30 25 N 0.106410 -5.120980 0.158487 0
M  V30 26 C 1.001690 -5.971084 -0.237144 0
M  V30 27 C 2.256712 -5.716593 -1.027146 0
M  V30 28 C 0.695507 -7.281245 0.154463 0
M  V30 29 C 1.373762 -8.588020 -0.045405 0
M  V30 30 S -0.863780 -7.044674 1.044057 0
M  V30 31 N -1.258444 -2.102158 1.737172 0
M  V30 32 C -1.105658 -0.824630 1.340112 0
M  V30 33 H 1.671979 -0.469502 4.297941 0
M  V30 34 H 1.706549 -0.653412 2.504217 0
M  V30 35 H 2.020753 0.941547 3.223071 0
M  V30 36 H -0.231058 1.316293 3.755378 0
M  V30 37 H -0.644404 -0.430867 3.863036 0
M  V30 38 H 2.995198 3.744146 0.322846 0
M  V30 39 H 0.854165 2.292123 -1.288174 0
M  V30 40 H 2.585880 2.663457 -1.828391 0
M  V30 41 H 1.775940 0.793079 0.584867 0
M  V30 42 H 3.499303 1.263362 0.022278 0
M  V30 43 H 1.937528 5.386299 1.383467 0
M  V30 44 H 0.804781 6.003638 3.499549 0
M  V30 45 H -0.188971 4.428419 3.481400 0
M  V30 46 H -0.118710 6.760983 1.325989 0
M  V30 47 H -1.214182 5.288185 1.230873 0
M  V30 48 H -1.472469 1.402634 -0.968888 0
M  V30 49 H -3.423789 -2.905289 -3.331371 0
M  V30 50 H -1.570634 0.178935 -3.183535 0
M  V30 51 H -3.210173 0.653393 -2.459065 0
M  V30 52 H -3.102502 -0.418299 -3.850033 0
M  V30 53 H -2.750378 -4.884899 1.816635 0
M  V30 54 H 2.275911 -4.729934 -1.500397 0
M  V30 55 H 3.165664 -5.801075 -0.393558 0
M  V30 56 H 2.335793 -6.453606 -1.860937 0
M  V30 57 H 1.372568 -8.727380 -1.160465 0
M  V30 58 H 2.395817 -8.633382 0.324556 0
M  V30 59 H 0.687317 -9.355643 0.343400 0
M  V30 END ATOM
M  V30 BEGIN BOND
M  V30 1 1 1 2
M  V30 2 1 2 3
M  V30 3 1 3 4
M  V30 4 1 4 5
M  V30 5 2 5 6
M  V30 6 1 5 7
M  V30 7 1 7 8
M  V30 8 1 8 9
M  V30 9 1 9 10
M  V30 10 1 7 11
M  V30 11 1 11 12
M  V30 12 1 12 13
M  V30 13 2 4 14
M  V30 14 1 14 15
M  V30 15 2 15 16
M  V30 16 1 16 17
M  V30 17 1 17 18
M  V30 18 2 18 19
M  V30 19 1 19 20
M  V30 20 1 20 21
M  V30 21 2 17 22
M  V30 22 1 22 23
M  V30 23 1 23 24
M  V30 24 2 24 25
M  V30 25 1 25 26
M  V30 26 1 26 27
M  V30 27 2 26 28
M  V30 28 1 28 29
M  V30 29 1 28 30
M  V30 30 1 22 31
M  V30 31 2 31 32
M  V30 32 1 32 3
M  V30 33 1 10 8
M  V30 34 1 13 11
M  V30 35 1 32 15
M  V30 36 1 20 16
M  V30 37 1 30 24
M  V30 38 1 1 33
M  V30 39 1 1 34
M  V30 40 1 1 35
M  V30 41 1 2 36
M  V30 42 1 2 37
M  V30 43 1 8 38
M  V30 44 1 9 39
M  V30 45 1 9 40
M  V30 46 1 10 41
M  V30 47 1 10 42
M  V30 48 1 11 43
M  V30 49 1 12 44
M  V30 50 1 12 45
M  V30 51 1 13 46
M  V30 52 1 13 47
M  V30 53 1 14 48
M  V30 54 1 19 49
M  V30 55 1 21 50
M  V30 56 1 21 51
M  V30 57 1 21 52
M  V30 58 1 23 53
M  V30 59 1 27 54
M  V30 60 1 27 55
M  V30 61 1 27 56
M  V30 62 1 29 57
M  V30 63 1 29 58
M  V30 64 1 29 59
M  V30 END BOND
M  V30 END CTAB
M  END
>  <Dataset>  (763) 
ChEMBL_Kinases

>  <Ligand_Instance>  (763) 
nan

>  <PDB_ID>  (763) 
nan

>  <Standardized_SMILES>  (763) 
CCn1c(C(=O)N(C2CC2)C2CC2)cc2c3c(ncn3C)c(Nc3nc(C)c(C)s3)nc21

>  <Name>  (763) 
nan

>  <Pocket>  (763) 
nan

>  <ATP_Site>  (763) 
nan

>  <Peripheral>  (763) 
nan

>  <Num_H_Atoms_ProtBoundConf>  (763) 
nan

>  <Num_Resolved_Atoms>  (763) 
nan

>  <Num_Not_Resolved_Atoms>  (763) 
nan

$$$$
CHEMBL3618286
     RDKit          3D

  0  0  0  0  0  0  0  0  0  0999 V3000
M  V30 BEGIN CTAB
M  V30 COUNTS 43 46 0 0 0
M  V30 BEGIN ATOM
M  V30 1 C -1.562912 -5.241914 -0.949395 0
M  V30 2 O -0.447218 -4.928440 -0.136571 0
M  V30 3 C -0.068924 -3.613986 0.093120 0
M  V30 4 C -0.647109 -2.463294 -0.377926 0
M  V30 5 C -0.130261 -1.212577 -0.043749 0
M  V30 6 C 0.999846 -1.087215 0.786417 0
M  V30 7 C 1.297393 0.333927 0.975265 0
M  V30 8 C 1.769437 1.095123 -0.167350 0
M  V30 9 C 3.037603 0.603466 -0.770383 0
M  V30 10 C 3.836158 -0.543519 -0.320924 0
M  V30 11 O 3.555377 1.183395 -1.786381 0
M  V30 12 C 1.288564 2.175582 -0.793982 0
M  V30 13 C 1.840292 2.915116 -1.992801 0
M  V30 14 N 0.114478 2.721621 -0.212974 0
M  V30 15 C -0.403867 2.196457 0.821902 0
M  V30 16 S -1.879866 2.771914 1.665963 0
M  V30 17 C -1.674292 1.513155 2.955117 0
M  V30 18 C -2.514804 1.406039 4.026506 0
M  V30 19 C -2.286565 0.396396 4.935725 0
M  V30 20 C -1.234493 -0.432789 4.707629 0
M  V30 21 C -0.420807 -0.281511 3.616245 0
M  V30 22 C -0.593940 0.717757 2.657731 0
M  V30 23 N 0.120126 1.069100 1.490098 0
M  V30 24 C 1.553476 -2.275447 1.241374 0
M  V30 25 C 1.036892 -3.494276 0.905847 0
M  V30 26 H -2.343542 -4.474609 -0.769274 0
M  V30 27 H -1.267724 -5.139642 -2.019302 0
M  V30 28 H -1.963362 -6.252424 -0.728616 0
M  V30 29 H -1.509302 -2.628593 -1.008463 0
M  V30 30 H -0.709897 -0.434747 -0.502168 0
M  V30 31 H 2.044914 0.399135 1.778784 0
M  V30 32 H 4.882198 -0.440927 -0.719106 0
M  V30 33 H 3.893576 -0.592827 0.800705 0
M  V30 34 H 3.449034 -1.475000 -0.749478 0
M  V30 35 H 2.818163 3.327375 -1.669275 0
M  V30 36 H 1.146548 3.770689 -2.198936 0
M  V30 37 H 1.906734 2.286156 -2.883697 0
M  V30 38 H -3.348920 2.046723 4.227096 0
M  V30 39 H -2.913147 0.266184 5.792568 0
M  V30 40 H -1.065886 -1.231402 5.440609 0
M  V30 41 H 0.376849 -1.002946 3.552669 0
M  V30 42 H 2.396655 -2.022378 1.867796 0
M  V30 43 H 1.597493 -4.304231 1.350376 0
M  V30 END ATOM
M  V30 BEGIN BOND
M  V30 1 1 1 2
M  V30 2 1 2 3
M  V30 3 2 3 4
M  V30 4 1 4 5
M  V30 5 2 5 6
M  V30 6 1 6 7
M  V30 7 1 7 8
M  V30 8 1 8 9
M  V30 9 1 9 10
M  V30 10 2 9 11
M  V30 11 2 8 12
M  V30 12 1 12 13
M  V30 13 1 12 14
M  V30 14 2 14 15
M  V30 15 1 15 16
M  V30 16 1 16 17
M  V30 17 2 17 18
M  V30 18 1 18 19
M  V30 19 2 19 20
M  V30 20 1 20 21
M  V30 21 2 21 22
M  V30 22 1 22 23
M  V30 23 1 6 24
M  V30 24 2 24 25
M  V30 25 1 25 3
M  V30 26 1 23 7
M  V30 27 1 23 15
M  V30 28 1 22 17
M  V30 29 1 1 26
M  V30 30 1 1 27
M  V30 31 1 1 28
M  V30 32 1 4 29
M  V30 33 1 5 30
M  V30 34 1 7 31
M  V30 35 1 10 32
M  V30 36 1 10 33
M  V30 37 1 10 34
M  V30 38 1 13 35
M  V30 39 1 13 36
M  V30 40 1 13 37
M  V30 41 1 18 38
M  V30 42 1 19 39
M  V30 43 1 20 40
M  V30 44 1 21 41
M  V30 45 1 24 42
M  V30 46 1 25 43
M  V30 END BOND
M  V30 END CTAB
M  END
>  <Dataset>  (764) 
ChEMBL_Kinases

>  <Ligand_Instance>  (764) 
nan

>  <PDB_ID>  (764) 
nan

>  <Standardized_SMILES>  (764) 
COc1ccc(C2C(C(C)=O)=C(C)N=C3Sc4ccccc4N32)cc1

>  <Name>  (764) 
nan

>  <Pocket>  (764) 
nan

>  <ATP_Site>  (764) 
nan

>  <Peripheral>  (764) 
nan

>  <Num_H_Atoms_ProtBoundConf>  (764) 
nan

>  <Num_Resolved_Atoms>  (764) 
nan

>  <Num_Not_Resolved_Atoms>  (764) 
nan

$$$$
CHEMBL3618287
     RDKit          3D

  0  0  0  0  0  0  0  0  0  0999 V3000
M  V30 BEGIN CTAB
M  V30 COUNTS 41 44 0 0 0
M  V30 BEGIN ATOM
M  V30 1 C 1.241554 -2.842055 4.261461 0
M  V30 2 C 1.153469 -1.828223 3.239342 0
M  V30 3 O 0.500168 -0.981284 3.940968 0
M  V30 4 C 1.527484 -1.532299 1.868846 0
M  V30 5 C 2.206226 -2.405154 1.153847 0
M  V30 6 C 2.660894 -3.739185 1.608234 0
M  V30 7 N 2.524472 -1.965655 -0.147613 0
M  V30 8 C 2.196208 -0.823093 -0.618566 0
M  V30 9 S 2.493864 -0.073851 -2.216510 0
M  V30 10 C 1.691086 1.477433 -1.715953 0
M  V30 11 C 1.605517 2.549764 -2.537194 0
M  V30 12 C 0.970853 3.694707 -2.126744 0
M  V30 13 C 0.451518 3.651754 -0.855279 0
M  V30 14 C 0.564470 2.539062 -0.059310 0
M  V30 15 C 1.194589 1.373767 -0.438273 0
M  V30 16 N 1.478295 0.133407 0.122168 0
M  V30 17 C 1.037310 -0.204913 1.462474 0
M  V30 18 C -0.474349 -0.320937 1.435798 0
M  V30 19 C -1.429861 0.296808 2.212256 0
M  V30 20 C -2.752696 -0.006331 1.986165 0
M  V30 21 C -3.192096 -0.889257 1.031684 0
M  V30 22 C -2.226230 -1.507390 0.253016 0
M  V30 23 N -2.714503 -2.415677 -0.726274 0 CHG=1 VAL=4
M  V30 24 O -1.871782 -2.988102 -1.443020 0
M  V30 25 O -4.041136 -2.696461 -0.927281 0 CHG=-1 VAL=1
M  V30 26 C -0.895167 -1.221312 0.459637 0
M  V30 27 H 1.727569 -3.814010 3.958190 0
M  V30 28 H 1.849002 -2.520198 5.144253 0
M  V30 29 H 0.236721 -3.197896 4.624839 0
M  V30 30 H 1.865696 -4.475222 1.755117 0
M  V30 31 H 3.259014 -4.170933 0.741976 0
M  V30 32 H 3.424763 -3.670951 2.409294 0
M  V30 33 H 2.016147 2.577001 -3.533945 0
M  V30 34 H 0.849105 4.584402 -2.687811 0
M  V30 35 H -0.063933 4.526402 -0.469991 0
M  V30 36 H 0.113233 2.611967 0.940136 0
M  V30 37 H 1.361070 0.549147 2.209348 0
M  V30 38 H -1.020334 0.979170 2.927550 0
M  V30 39 H -3.446991 0.513947 2.631275 0
M  V30 40 H -4.255814 -1.087966 0.900541 0
M  V30 41 H -0.262571 -1.776434 -0.219570 0
M  V30 END ATOM
M  V30 BEGIN BOND
M  V30 1 1 1 2
M  V30 2 2 2 3
M  V30 3 1 2 4
M  V30 4 2 4 5
M  V30 5 1 5 6
M  V30 6 1 5 7
M  V30 7 2 7 8
M  V30 8 1 8 9
M  V30 9 1 9 10
M  V30 10 2 10 11
M  V30 11 1 11 12
M  V30 12 2 12 13
M  V30 13 1 13 14
M  V30 14 2 14 15
M  V30 15 1 15 16
M  V30 16 1 16 17
M  V30 17 1 17 18
M  V30 18 2 18 19
M  V30 19 1 19 20
M  V30 20 2 20 21
M  V30 21 1 21 22
M  V30 22 1 22 23
M  V30 23 2 23 24
M  V30 24 1 23 25
M  V30 25 2 22 26
M  V30 26 1 17 4
M  V30 27 1 26 18
M  V30 28 1 16 8
M  V30 29 1 15 10
M  V30 30 1 1 27
M  V30 31 1 1 28
M  V30 32 1 1 29
M  V30 33 1 6 30
M  V30 34 1 6 31
M  V30 35 1 6 32
M  V30 36 1 11 33
M  V30 37 1 12 34
M  V30 38 1 13 35
M  V30 39 1 14 36
M  V30 40 1 17 37
M  V30 41 1 19 38
M  V30 42 1 20 39
M  V30 43 1 21 40
M  V30 44 1 26 41
M  V30 END BOND
M  V30 END CTAB
M  END
>  <Dataset>  (765) 
ChEMBL_Kinases

>  <Ligand_Instance>  (765) 
nan

>  <PDB_ID>  (765) 
nan

>  <Standardized_SMILES>  (765) 
CC(=O)C1=C(C)N=C2Sc3ccccc3N2C1c1cccc([N+](=O)[O-])c1

>  <Name>  (765) 
nan

>  <Pocket>  (765) 
nan

>  <ATP_Site>  (765) 
nan

>  <Peripheral>  (765) 
nan

>  <Num_H_Atoms_ProtBoundConf>  (765) 
nan

>  <Num_Resolved_Atoms>  (765) 
nan

>  <Num_Not_Resolved_Atoms>  (765) 
nan

$$$$
CHEMBL3618288
     RDKit          3D

  0  0  0  0  0  0  0  0  0  0999 V3000
M  V30 BEGIN CTAB
M  V30 COUNTS 41 44 0 0 0
M  V30 BEGIN ATOM
M  V30 1 C 1.521767 -3.131353 3.943088 0
M  V30 2 C 1.144843 -1.960219 3.145276 0
M  V30 3 O 0.172576 -1.457571 3.760694 0
M  V30 4 C 1.665113 -1.382356 1.919946 0
M  V30 5 C 2.674527 -1.933362 1.285193 0
M  V30 6 C 3.409380 -3.158571 1.673299 0
M  V30 7 N 3.118421 -1.269180 0.131322 0
M  V30 8 C 2.565709 -0.202788 -0.257153 0
M  V30 9 S 2.969326 0.796499 -1.684836 0
M  V30 10 C 1.709891 2.037757 -1.282633 0
M  V30 11 C 1.519292 3.165458 -2.039337 0
M  V30 12 C 0.526599 4.044263 -1.675407 0
M  V30 13 C -0.199191 3.703733 -0.562016 0
M  V30 14 C 0.031707 2.560335 0.163321 0
M  V30 15 C 1.014373 1.650386 -0.161670 0
M  V30 16 N 1.486895 0.443651 0.374958 0
M  V30 17 C 0.901089 -0.171682 1.549560 0
M  V30 18 C -0.498842 -0.633685 1.234558 0
M  V30 19 C -1.707309 -0.397362 1.852426 0
M  V30 20 C -2.842570 -0.981847 1.336532 0
M  V30 21 C -2.813787 -1.794673 0.223619 0
M  V30 22 N -4.080049 -2.293977 -0.144183 0 CHG=1 VAL=4
M  V30 23 O -4.331794 -3.042063 -1.100027 0
M  V30 24 O -5.284990 -2.059181 0.471698 0 CHG=-1 VAL=1
M  V30 25 C -1.610189 -2.038166 -0.403746 0
M  V30 26 C -0.448750 -1.451721 0.108856 0
M  V30 27 H 1.126217 -4.102822 3.547047 0
M  V30 28 H 2.627813 -3.263888 4.074702 0
M  V30 29 H 1.170236 -3.044214 5.022468 0
M  V30 30 H 2.764222 -4.024144 1.885353 0
M  V30 31 H 3.996829 -3.511759 0.761455 0
M  V30 32 H 4.209201 -2.959142 2.410414 0
M  V30 33 H 2.098919 3.414701 -2.907902 0
M  V30 34 H 0.264870 4.963457 -2.172004 0
M  V30 35 H -1.007062 4.373465 -0.227132 0
M  V30 36 H -0.612086 2.390996 1.036452 0
M  V30 37 H 0.887765 0.507911 2.408799 0
M  V30 38 H -1.599436 0.259638 2.702154 0
M  V30 39 H -3.744365 -0.723972 1.909203 0
M  V30 40 H -1.656628 -2.679462 -1.265183 0
M  V30 41 H 0.412300 -1.739142 -0.494082 0
M  V30 END ATOM
M  V30 BEGIN BOND
M  V30 1 1 1 2
M  V30 2 2 2 3
M  V30 3 1 2 4
M  V30 4 2 4 5
M  V30 5 1 5 6
M  V30 6 1 5 7
M  V30 7 2 7 8
M  V30 8 1 8 9
M  V30 9 1 9 10
M  V30 10 2 10 11
M  V30 11 1 11 12
M  V30 12 2 12 13
M  V30 13 1 13 14
M  V30 14 2 14 15
M  V30 15 1 15 16
M  V30 16 1 16 17
M  V30 17 1 17 18
M  V30 18 2 18 19
M  V30 19 1 19 20
M  V30 20 2 20 21
M  V30 21 1 21 22
M  V30 22 2 22 23
M  V30 23 1 22 24
M  V30 24 1 21 25
M  V30 25 2 25 26
M  V30 26 1 17 4
M  V30 27 1 26 18
M  V30 28 1 16 8
M  V30 29 1 15 10
M  V30 30 1 1 27
M  V30 31 1 1 28
M  V30 32 1 1 29
M  V30 33 1 6 30
M  V30 34 1 6 31
M  V30 35 1 6 32
M  V30 36 1 11 33
M  V30 37 1 12 34
M  V30 38 1 13 35
M  V30 39 1 14 36
M  V30 40 1 17 37
M  V30 41 1 19 38
M  V30 42 1 20 39
M  V30 43 1 25 40
M  V30 44 1 26 41
M  V30 END BOND
M  V30 END CTAB
M  END
>  <Dataset>  (766) 
ChEMBL_Kinases

>  <Ligand_Instance>  (766) 
nan

>  <PDB_ID>  (766) 
nan

>  <Standardized_SMILES>  (766) 
CC(=O)C1=C(C)N=C2Sc3ccccc3N2C1c1ccc([N+](=O)[O-])cc1

>  <Name>  (766) 
nan

>  <Pocket>  (766) 
nan

>  <ATP_Site>  (766) 
nan

>  <Peripheral>  (766) 
nan

>  <Num_H_Atoms_ProtBoundConf>  (766) 
nan

>  <Num_Resolved_Atoms>  (766) 
nan

>  <Num_Not_Resolved_Atoms>  (766) 
nan

$$$$
CHEMBL3618289
     RDKit          3D

  0  0  0  0  0  0  0  0  0  0999 V3000
M  V30 BEGIN CTAB
M  V30 COUNTS 47 50 0 0 0
M  V30 BEGIN ATOM
M  V30 1 C 1.091356 -2.595187 3.759157 0
M  V30 2 C 1.707686 -3.062264 2.511752 0
M  V30 3 O 1.956273 -4.296442 2.500509 0
M  V30 4 C 2.048790 -2.249228 1.321666 0
M  V30 5 C 2.612016 -2.899765 0.322469 0
M  V30 6 C 2.927201 -4.348653 0.281081 0
M  V30 7 N 2.962543 -2.111045 -0.791364 0
M  V30 8 C 2.738329 -0.876130 -0.793153 0
M  V30 9 S 3.120719 0.286423 -2.128522 0
M  V30 10 C 2.521206 1.708839 -1.178437 0
M  V30 11 C 2.555289 2.999655 -1.643228 0
M  V30 12 C 2.050007 3.990496 -0.832094 0
M  V30 13 C 1.549035 3.596099 0.387917 0
M  V30 14 C 1.534234 2.292071 0.815051 0
M  V30 15 C 2.031809 1.273824 0.030066 0
M  V30 16 N 2.143333 -0.122121 0.246577 0
M  V30 17 C 1.682634 -0.847705 1.443854 0
M  V30 18 C 0.184502 -0.643990 1.465917 0
M  V30 19 C -0.350911 -0.968373 0.209649 0
M  V30 20 C -1.725067 -0.859292 -0.046956 0
M  V30 21 C -2.572653 -0.424414 0.953132 0
M  V30 22 N -3.963108 -0.301917 0.732096 0
M  V30 23 C -4.482488 -0.649328 -0.589157 0
M  V30 24 C -4.825665 0.157787 1.803890 0
M  V30 25 C -2.027250 -0.110269 2.180884 0
M  V30 26 C -0.679342 -0.212212 2.448171 0
M  V30 27 H 1.442440 -1.586130 4.066640 0
M  V30 28 H 1.424988 -3.247024 4.620891 0
M  V30 29 H -0.002675 -2.688751 3.757181 0
M  V30 30 H 3.696704 -4.636106 1.023360 0
M  V30 31 H 3.393493 -4.597721 -0.711754 0
M  V30 32 H 2.014744 -4.995919 0.303051 0
M  V30 33 H 2.945666 3.293213 -2.589514 0
M  V30 34 H 2.024878 5.037860 -1.093181 0
M  V30 35 H 1.143556 4.383366 1.040610 0
M  V30 36 H 1.109368 2.117527 1.801274 0
M  V30 37 H 2.157816 -0.430377 2.347465 0
M  V30 38 H 0.191235 -1.319499 -0.660059 0
M  V30 39 H -2.170818 -1.099912 -0.999930 0
M  V30 40 H -5.569647 -0.499157 -0.661637 0
M  V30 41 H -4.185359 -1.683682 -0.864836 0
M  V30 42 H -4.005496 0.066635 -1.298490 0
M  V30 43 H -5.778166 0.535355 1.394480 0
M  V30 44 H -4.328827 1.036623 2.264197 0
M  V30 45 H -4.948987 -0.600732 2.597804 0
M  V30 46 H -2.609783 0.235349 3.015376 0
M  V30 47 H -0.145517 0.007952 3.357741 0
M  V30 END ATOM
M  V30 BEGIN BOND
M  V30 1 1 1 2
M  V30 2 2 2 3
M  V30 3 1 2 4
M  V30 4 2 4 5
M  V30 5 1 5 6
M  V30 6 1 5 7
M  V30 7 2 7 8
M  V30 8 1 8 9
M  V30 9 1 9 10
M  V30 10 2 10 11
M  V30 11 1 11 12
M  V30 12 2 12 13
M  V30 13 1 13 14
M  V30 14 2 14 15
M  V30 15 1 15 16
M  V30 16 1 16 17
M  V30 17 1 17 18
M  V30 18 2 18 19
M  V30 19 1 19 20
M  V30 20 2 20 21
M  V30 21 1 21 22
M  V30 22 1 22 23
M  V30 23 1 22 24
M  V30 24 1 21 25
M  V30 25 2 25 26
M  V30 26 1 17 4
M  V30 27 1 26 18
M  V30 28 1 16 8
M  V30 29 1 15 10
M  V30 30 1 1 27
M  V30 31 1 1 28
M  V30 32 1 1 29
M  V30 33 1 6 30
M  V30 34 1 6 31
M  V30 35 1 6 32
M  V30 36 1 11 33
M  V30 37 1 12 34
M  V30 38 1 13 35
M  V30 39 1 14 36
M  V30 40 1 17 37
M  V30 41 1 19 38
M  V30 42 1 20 39
M  V30 43 1 23 40
M  V30 44 1 23 41
M  V30 45 1 23 42
M  V30 46 1 24 43
M  V30 47 1 24 44
M  V30 48 1 24 45
M  V30 49 1 25 46
M  V30 50 1 26 47
M  V30 END BOND
M  V30 END CTAB
M  END
>  <Dataset>  (767) 
ChEMBL_Kinases

>  <Ligand_Instance>  (767) 
nan

>  <PDB_ID>  (767) 
nan

>  <Standardized_SMILES>  (767) 
CC(=O)C1=C(C)N=C2Sc3ccccc3N2C1c1ccc(N(C)C)cc1

>  <Name>  (767) 
nan

>  <Pocket>  (767) 
nan

>  <ATP_Site>  (767) 
nan

>  <Peripheral>  (767) 
nan

>  <Num_H_Atoms_ProtBoundConf>  (767) 
nan

>  <Num_Resolved_Atoms>  (767) 
nan

>  <Num_Not_Resolved_Atoms>  (767) 
nan

$$$$
CHEMBL3618290
     RDKit          3D

  0  0  0  0  0  0  0  0  0  0999 V3000
M  V30 BEGIN CTAB
M  V30 COUNTS 44 47 0 0 0
M  V30 BEGIN ATOM
M  V30 1 C -0.230565 -4.759554 -0.442413 0
M  V30 2 O -1.162487 -3.871349 -1.011895 0
M  V30 3 C -1.031310 -2.503039 -0.827667 0
M  V30 4 C 0.045186 -2.103319 -0.070520 0
M  V30 5 C 0.273535 -0.767158 0.176834 0
M  V30 6 C 1.321752 -0.023193 0.923810 0
M  V30 7 C 2.181976 0.781101 0.065463 0
M  V30 8 C 3.000649 0.040574 -0.900385 0
M  V30 9 C 3.095707 -1.419882 -1.139249 0
M  V30 10 O 3.777961 0.627261 -1.695578 0
M  V30 11 C 2.363139 2.094813 0.013813 0
M  V30 12 C 3.269256 2.874031 -0.904666 0
M  V30 13 N 1.646014 2.863596 0.965679 0
M  V30 14 C 0.891276 2.267422 1.795231 0
M  V30 15 S -0.101221 3.055034 3.080418 0
M  V30 16 C -0.689479 1.467021 3.729776 0
M  V30 17 C -1.516638 1.353747 4.806784 0
M  V30 18 C -1.911221 0.092558 5.189895 0
M  V30 19 C -1.431321 -0.958982 4.444032 0
M  V30 20 C -0.597505 -0.790850 3.364802 0
M  V30 21 C -0.179128 0.455207 2.949405 0
M  V30 22 N 0.673696 0.877927 1.901550 0
M  V30 23 C -0.626737 0.163475 -0.367957 0
M  V30 24 C -1.705753 -0.287051 -1.130234 0
M  V30 25 C -1.937612 -1.623107 -1.380391 0
M  V30 26 O -3.001477 -2.096616 -2.134220 0
M  V30 27 H 0.803014 -4.523487 -0.801663 0
M  V30 28 H -0.477301 -5.785004 -0.720373 0
M  V30 29 H -0.296978 -4.600577 0.673736 0
M  V30 30 H 0.796733 -2.687004 0.406683 0
M  V30 31 H 1.927236 -0.754688 1.477728 0
M  V30 32 H 4.069104 -1.747096 -1.560176 0
M  V30 33 H 2.278866 -1.701125 -1.827901 0
M  V30 34 H 2.931993 -1.888774 -0.134232 0
M  V30 35 H 2.944537 2.742697 -1.965093 0
M  V30 36 H 4.336583 2.633059 -0.746391 0
M  V30 37 H 3.163454 3.956232 -0.674764 0
M  V30 38 H -1.887707 2.176753 5.384437 0
M  V30 39 H -2.563482 -0.100337 6.027622 0
M  V30 40 H -1.746639 -1.961395 4.750568 0
M  V30 41 H -0.295224 -1.709388 2.867282 0
M  V30 42 H -0.621020 1.255339 -0.288039 0
M  V30 43 H -2.442290 0.384807 -1.582439 0
M  V30 44 H -3.940685 -2.170500 -1.811714 0
M  V30 END ATOM
M  V30 BEGIN BOND
M  V30 1 1 1 2
M  V30 2 1 2 3
M  V30 3 2 3 4
M  V30 4 1 4 5
M  V30 5 1 5 6
M  V30 6 1 6 7
M  V30 7 1 7 8
M  V30 8 1 8 9
M  V30 9 2 8 10
M  V30 10 2 7 11
M  V30 11 1 11 12
M  V30 12 1 11 13
M  V30 13 2 13 14
M  V30 14 1 14 15
M  V30 15 1 15 16
M  V30 16 2 16 17
M  V30 17 1 17 18
M  V30 18 2 18 19
M  V30 19 1 19 20
M  V30 20 2 20 21
M  V30 21 1 21 22
M  V30 22 2 5 23
M  V30 23 1 23 24
M  V30 24 2 24 25
M  V30 25 1 25 26
M  V30 26 1 25 3
M  V30 27 1 22 6
M  V30 28 1 22 14
M  V30 29 1 21 16
M  V30 30 1 1 27
M  V30 31 1 1 28
M  V30 32 1 1 29
M  V30 33 1 4 30
M  V30 34 1 6 31
M  V30 35 1 9 32
M  V30 36 1 9 33
M  V30 37 1 9 34
M  V30 38 1 12 35
M  V30 39 1 12 36
M  V30 40 1 12 37
M  V30 41 1 17 38
M  V30 42 1 18 39
M  V30 43 1 19 40
M  V30 44 1 20 41
M  V30 45 1 23 42
M  V30 46 1 24 43
M  V30 47 1 26 44
M  V30 END BOND
M  V30 END CTAB
M  END
>  <Dataset>  (768) 
ChEMBL_Kinases

>  <Ligand_Instance>  (768) 
nan

>  <PDB_ID>  (768) 
nan

>  <Standardized_SMILES>  (768) 
COc1cc(C2C(C(C)=O)=C(C)N=C3Sc4ccccc4N32)ccc1O

>  <Name>  (768) 
nan

>  <Pocket>  (768) 
nan

>  <ATP_Site>  (768) 
nan

>  <Peripheral>  (768) 
nan

>  <Num_H_Atoms_ProtBoundConf>  (768) 
nan

>  <Num_Resolved_Atoms>  (768) 
nan

>  <Num_Not_Resolved_Atoms>  (768) 
nan

$$$$
CHEMBL3618294
     RDKit          3D

  0  0  0  0  0  0  0  0  0  0999 V3000
M  V30 BEGIN CTAB
M  V30 COUNTS 43 46 0 0 0
M  V30 BEGIN ATOM
M  V30 1 C -0.656069 -4.910736 1.262883 0
M  V30 2 C 0.484365 -4.116856 0.704180 0
M  V30 3 C 0.409122 -2.681447 0.778535 0
M  V30 4 O 0.795655 -2.435768 1.974791 0
M  V30 5 C 0.080934 -1.465704 0.056024 0
M  V30 6 C -0.312603 -1.439298 -1.222483 0
M  V30 7 C -0.480337 -2.709839 -2.030134 0
M  V30 8 N -0.333377 -0.273353 -2.085348 0
M  V30 9 C 0.099169 0.832091 -1.507821 0
M  V30 10 S 0.265894 2.511154 -2.220487 0
M  V30 11 C 1.835707 2.725695 -1.246467 0
M  V30 12 C 2.855751 3.570348 -1.454703 0
M  V30 13 C 3.802384 3.665702 -0.462387 0
M  V30 14 C 3.650237 2.896838 0.674526 0
M  V30 15 C 2.573782 2.078951 0.758666 0
M  V30 16 C 1.555124 1.909458 -0.198203 0
M  V30 17 N 0.631629 0.847663 -0.122779 0
M  V30 18 C -0.062959 -0.116326 0.618417 0
M  V30 19 C -0.233044 0.056269 2.032278 0
M  V30 20 C 0.204571 0.736644 3.122621 0
M  V30 21 C -0.159498 0.690116 4.436024 0
M  V30 22 C -1.152220 -0.188339 4.794714 0
M  V30 23 C -1.709783 -0.958096 3.801639 0
M  V30 24 C -1.257458 -0.825627 2.489311 0
M  V30 25 O -2.008896 -1.726534 1.681031 0
M  V30 26 H -1.625850 -4.418905 1.273223 0
M  V30 27 H -0.794786 -5.864938 0.683237 0
M  V30 28 H -0.388415 -5.237104 2.294391 0
M  V30 29 H 1.452970 -4.501675 1.146341 0
M  V30 30 H 0.591967 -4.433859 -0.375228 0
M  V30 31 H -1.167646 -3.406720 -1.488446 0
M  V30 32 H 0.475021 -3.140473 -2.341457 0
M  V30 33 H -1.026741 -2.488206 -2.967743 0
M  V30 34 H 2.846570 4.102720 -2.385237 0
M  V30 35 H 4.623311 4.347913 -0.631972 0
M  V30 36 H 4.438335 3.041036 1.397920 0
M  V30 37 H 2.636062 1.522835 1.680585 0
M  V30 38 H -1.261279 0.102937 0.316036 0
M  V30 39 H 0.949007 1.464795 2.911750 0
M  V30 40 H 0.316219 1.319927 5.166386 0
M  V30 41 H -1.455535 -0.247253 5.809973 0
M  V30 42 H -2.483448 -1.625856 4.136206 0
M  V30 43 H -3.028874 -1.589560 1.627998 0
M  V30 END ATOM
M  V30 BEGIN BOND
M  V30 1 1 1 2
M  V30 2 1 2 3
M  V30 3 2 3 4
M  V30 4 1 3 5
M  V30 5 2 5 6
M  V30 6 1 6 7
M  V30 7 1 6 8
M  V30 8 2 8 9
M  V30 9 1 9 10
M  V30 10 1 10 11
M  V30 11 2 11 12
M  V30 12 1 12 13
M  V30 13 2 13 14
M  V30 14 1 14 15
M  V30 15 2 15 16
M  V30 16 1 16 17
M  V30 17 1 17 18
M  V30 18 1 18 19
M  V30 19 2 19 20
M  V30 20 1 20 21
M  V30 21 2 21 22
M  V30 22 1 22 23
M  V30 23 2 23 24
M  V30 24 1 24 25
M  V30 25 1 18 5
M  V30 26 1 24 19
M  V30 27 1 17 9
M  V30 28 1 16 11
M  V30 29 1 1 26
M  V30 30 1 1 27
M  V30 31 1 1 28
M  V30 32 1 2 29
M  V30 33 1 2 30
M  V30 34 1 7 31
M  V30 35 1 7 32
M  V30 36 1 7 33
M  V30 37 1 12 34
M  V30 38 1 13 35
M  V30 39 1 14 36
M  V30 40 1 15 37
M  V30 41 1 18 38
M  V30 42 1 20 39
M  V30 43 1 21 40
M  V30 44 1 22 41
M  V30 45 1 23 42
M  V30 46 1 25 43
M  V30 END BOND
M  V30 END CTAB
M  END
>  <Dataset>  (769) 
ChEMBL_Kinases

>  <Ligand_Instance>  (769) 
nan

>  <PDB_ID>  (769) 
nan

>  <Standardized_SMILES>  (769) 
CCC(=O)C1=C(C)N=C2Sc3ccccc3N2C1c1ccccc1O

>  <Name>  (769) 
nan

>  <Pocket>  (769) 
nan

>  <ATP_Site>  (769) 
nan

>  <Peripheral>  (769) 
nan

>  <Num_H_Atoms_ProtBoundConf>  (769) 
nan

>  <Num_Resolved_Atoms>  (769) 
nan

>  <Num_Not_Resolved_Atoms>  (769) 
nan

$$$$
CHEMBL3618295
     RDKit          3D

  0  0  0  0  0  0  0  0  0  0999 V3000
M  V30 BEGIN CTAB
M  V30 COUNTS 43 46 0 0 0
M  V30 BEGIN ATOM
M  V30 1 C -1.489274 -4.708154 -0.004646 0
M  V30 2 C -0.358968 -4.120922 -0.826547 0
M  V30 3 C 0.198745 -2.896142 -0.321673 0
M  V30 4 O 0.983096 -3.300818 0.545036 0
M  V30 5 C 0.060484 -1.448717 -0.580922 0
M  V30 6 C -0.799854 -1.017798 -1.482685 0
M  V30 7 C -1.715956 -1.821650 -2.329255 0
M  V30 8 N -0.818882 0.379481 -1.699035 0
M  V30 9 C -0.043187 1.154732 -1.053145 0
M  V30 10 S 0.122511 2.936098 -1.146690 0
M  V30 11 C 1.500725 2.964219 0.036393 0
M  V30 12 C 2.161131 4.107312 0.400619 0
M  V30 13 C 3.172677 4.036836 1.324994 0
M  V30 14 C 3.435067 2.790540 1.811383 0
M  V30 15 C 2.759423 1.666573 1.428867 0
M  V30 16 C 1.739260 1.694528 0.504658 0
M  V30 17 N 0.893089 0.730160 -0.094953 0
M  V30 18 C 0.958889 -0.690607 0.272409 0
M  V30 19 C 0.633868 -0.799487 1.749239 0
M  V30 20 C -0.558438 -0.120748 1.976455 0
M  V30 21 C -1.121925 -0.014003 3.255385 0
M  V30 22 C -0.397619 -0.638740 4.281443 0
M  V30 23 O -0.917392 -0.563560 5.588911 0
M  V30 24 C 0.782715 -1.312170 4.060302 0
M  V30 25 C 1.302909 -1.394531 2.790702 0
M  V30 26 H -2.213704 -3.938547 0.319397 0
M  V30 27 H -1.043464 -5.294521 0.823549 0
M  V30 28 H -2.055615 -5.430438 -0.649656 0
M  V30 29 H -0.639019 -4.103566 -1.918816 0
M  V30 30 H 0.452406 -4.931291 -0.851853 0
M  V30 31 H -1.130732 -2.231616 -3.173481 0
M  V30 32 H -2.447783 -1.107922 -2.817570 0
M  V30 33 H -2.302330 -2.574708 -1.761443 0
M  V30 34 H 1.918570 5.071599 -0.013797 0
M  V30 35 H 3.721950 4.899987 1.643595 0
M  V30 36 H 4.239216 2.691599 2.556588 0
M  V30 37 H 3.064270 0.727362 1.891373 0
M  V30 38 H 1.996621 -1.020050 0.068483 0
M  V30 39 H -1.201703 0.397376 1.255307 0
M  V30 40 H -2.040630 0.496667 3.499320 0
M  V30 41 H -0.384963 0.019307 6.243667 0
M  V30 42 H 1.349904 -1.794034 4.828827 0
M  V30 43 H 2.208878 -1.869017 2.458054 0
M  V30 END ATOM
M  V30 BEGIN BOND
M  V30 1 1 1 2
M  V30 2 1 2 3
M  V30 3 2 3 4
M  V30 4 1 3 5
M  V30 5 2 5 6
M  V30 6 1 6 7
M  V30 7 1 6 8
M  V30 8 2 8 9
M  V30 9 1 9 10
M  V30 10 1 10 11
M  V30 11 2 11 12
M  V30 12 1 12 13
M  V30 13 2 13 14
M  V30 14 1 14 15
M  V30 15 2 15 16
M  V30 16 1 16 17
M  V30 17 1 17 18
M  V30 18 1 18 19
M  V30 19 2 19 20
M  V30 20 1 20 21
M  V30 21 2 21 22
M  V30 22 1 22 23
M  V30 23 1 22 24
M  V30 24 2 24 25
M  V30 25 1 18 5
M  V30 26 1 25 19
M  V30 27 1 17 9
M  V30 28 1 16 11
M  V30 29 1 1 26
M  V30 30 1 1 27
M  V30 31 1 1 28
M  V30 32 1 2 29
M  V30 33 1 2 30
M  V30 34 1 7 31
M  V30 35 1 7 32
M  V30 36 1 7 33
M  V30 37 1 12 34
M  V30 38 1 13 35
M  V30 39 1 14 36
M  V30 40 1 15 37
M  V30 41 1 18 38
M  V30 42 1 20 39
M  V30 43 1 21 40
M  V30 44 1 23 41
M  V30 45 1 24 42
M  V30 46 1 25 43
M  V30 END BOND
M  V30 END CTAB
M  END
>  <Dataset>  (770) 
ChEMBL_Kinases

>  <Ligand_Instance>  (770) 
nan

>  <PDB_ID>  (770) 
nan

>  <Standardized_SMILES>  (770) 
CCC(=O)C1=C(C)N=C2Sc3ccccc3N2C1c1ccc(O)cc1

>  <Name>  (770) 
nan

>  <Pocket>  (770) 
nan

>  <ATP_Site>  (770) 
nan

>  <Peripheral>  (770) 
nan

>  <Num_H_Atoms_ProtBoundConf>  (770) 
nan

>  <Num_Resolved_Atoms>  (770) 
nan

>  <Num_Not_Resolved_Atoms>  (770) 
nan

$$$$
CHEMBL3618296
     RDKit          3D

  0  0  0  0  0  0  0  0  0  0999 V3000
M  V30 BEGIN CTAB
M  V30 COUNTS 46 49 0 0 0
M  V30 BEGIN ATOM
M  V30 1 C 0.434420 -4.646320 2.871064 0
M  V30 2 C 1.355257 -4.146433 1.770671 0
M  V30 3 C 1.298807 -2.702291 1.632752 0
M  V30 4 O 0.507306 -2.915098 2.559025 0
M  V30 5 C 1.834895 -1.614792 0.873748 0
M  V30 6 C 2.706717 -1.775902 -0.091581 0
M  V30 7 C 3.258171 -3.071356 -0.536748 0
M  V30 8 N 3.113586 -0.571000 -0.712728 0
M  V30 9 C 2.622323 0.525323 -0.302458 0
M  V30 10 S 3.012141 2.143905 -0.959069 0
M  V30 11 C 1.908339 3.005457 0.196938 0
M  V30 12 C 1.729615 4.364063 0.234176 0
M  V30 13 C 0.858456 4.884266 1.160413 0
M  V30 14 C 0.231205 3.981395 1.983212 0
M  V30 15 C 0.447551 2.638086 1.901450 0
M  V30 16 C 1.309402 2.056337 0.993418 0
M  V30 17 N 1.684078 0.734064 0.733509 0
M  V30 18 C 1.171674 -0.435827 1.455161 0
M  V30 19 C -0.312553 -0.529601 1.199897 0
M  V30 20 C -0.534356 -0.425921 -0.174429 0
M  V30 21 C -1.835610 -0.476500 -0.683027 0
M  V30 22 C -2.890682 -0.630231 0.196865 0
M  V30 23 O -4.228672 -0.695594 -0.174309 0
M  V30 24 C -4.586031 -0.602422 -1.542597 0
M  V30 25 C -2.646343 -0.730175 1.548801 0
M  V30 26 C -1.370635 -0.682115 2.066826 0
M  V30 27 H 0.533713 -5.769357 2.832781 0
M  V30 28 H 0.758834 -4.257647 3.836189 0
M  V30 29 H -0.600046 -4.425301 2.569459 0
M  V30 30 H 2.424032 -4.434218 2.009580 0
M  V30 31 H 1.080061 -4.693213 0.819558 0
M  V30 32 H 2.408093 -3.718784 -0.876044 0
M  V30 33 H 3.967715 -2.889727 -1.376991 0
M  V30 34 H 3.784910 -3.614923 0.261994 0
M  V30 35 H 2.247556 5.030645 -0.435500 0
M  V30 36 H 0.712194 5.950616 1.196431 0
M  V30 37 H -0.460887 4.399725 2.718329 0
M  V30 38 H -0.122447 2.041079 2.621852 0
M  V30 39 H 1.369426 -0.311324 2.559474 0
M  V30 40 H 0.184301 -0.303988 -0.971303 0
M  V30 41 H -2.091422 -0.403951 -1.728855 0
M  V30 42 H -3.900175 -1.241690 -2.161890 0
M  V30 43 H -4.422281 0.453101 -1.874362 0
M  V30 44 H -5.619913 -0.945766 -1.712235 0
M  V30 45 H -3.419254 -0.853280 2.313624 0
M  V30 46 H -1.025172 -0.739785 3.084830 0
M  V30 END ATOM
M  V30 BEGIN BOND
M  V30 1 1 1 2
M  V30 2 1 2 3
M  V30 3 2 3 4
M  V30 4 1 3 5
M  V30 5 2 5 6
M  V30 6 1 6 7
M  V30 7 1 6 8
M  V30 8 2 8 9
M  V30 9 1 9 10
M  V30 10 1 10 11
M  V30 11 2 11 12
M  V30 12 1 12 13
M  V30 13 2 13 14
M  V30 14 1 14 15
M  V30 15 2 15 16
M  V30 16 1 16 17
M  V30 17 1 17 18
M  V30 18 1 18 19
M  V30 19 2 19 20
M  V30 20 1 20 21
M  V30 21 2 21 22
M  V30 22 1 22 23
M  V30 23 1 23 24
M  V30 24 1 22 25
M  V30 25 2 25 26
M  V30 26 1 18 5
M  V30 27 1 26 19
M  V30 28 1 17 9
M  V30 29 1 16 11
M  V30 30 1 1 27
M  V30 31 1 1 28
M  V30 32 1 1 29
M  V30 33 1 2 30
M  V30 34 1 2 31
M  V30 35 1 7 32
M  V30 36 1 7 33
M  V30 37 1 7 34
M  V30 38 1 12 35
M  V30 39 1 13 36
M  V30 40 1 14 37
M  V30 41 1 15 38
M  V30 42 1 18 39
M  V30 43 1 20 40
M  V30 44 1 21 41
M  V30 45 1 24 42
M  V30 46 1 24 43
M  V30 47 1 24 44
M  V30 48 1 25 45
M  V30 49 1 26 46
M  V30 END BOND
M  V30 END CTAB
M  END
>  <Dataset>  (771) 
ChEMBL_Kinases

>  <Ligand_Instance>  (771) 
nan

>  <PDB_ID>  (771) 
nan

>  <Standardized_SMILES>  (771) 
CCC(=O)C1=C(C)N=C2Sc3ccccc3N2C1c1ccc(OC)cc1

>  <Name>  (771) 
nan

>  <Pocket>  (771) 
nan

>  <ATP_Site>  (771) 
nan

>  <Peripheral>  (771) 
nan

>  <Num_H_Atoms_ProtBoundConf>  (771) 
nan

>  <Num_Resolved_Atoms>  (771) 
nan

>  <Num_Not_Resolved_Atoms>  (771) 
nan

$$$$
CHEMBL362155
     RDKit          3D

  0  0  0  0  0  0  0  0  0  0999 V3000
M  V30 BEGIN CTAB
M  V30 COUNTS 53 58 0 0 0
M  V30 BEGIN ATOM
M  V30 1 F 4.028194 -5.452635 2.021363 0
M  V30 2 C 2.819842 -4.828082 1.801954 0
M  V30 3 F 2.610277 -4.674976 0.452459 0
M  V30 4 F 1.834700 -5.650415 2.365674 0
M  V30 5 C 2.700847 -3.533612 2.538019 0
M  V30 6 C 2.463646 -3.517756 3.897316 0
M  V30 7 C 2.339705 -2.359662 4.640850 0
M  V30 8 C 2.461811 -1.170777 3.976776 0
M  V30 9 C 2.699322 -1.146361 2.618192 0
M  V30 10 C 2.844368 0.039397 1.768903 0
M  V30 11 N 3.836652 0.647968 1.053231 0
M  V30 12 N 3.310438 1.731733 0.481709 0
M  V30 13 N 3.995935 2.581747 -0.302830 0
M  V30 14 C 3.388898 3.653410 -0.840744 0
M  V30 15 C 2.052006 3.862459 -0.572865 0
M  V30 16 C 1.360069 2.979551 0.235457 0
M  V30 17 C 1.992488 1.861009 0.797926 0
M  V30 18 C 1.671469 0.781555 1.626538 0
M  V30 19 C 0.303339 0.728076 2.077022 0
M  V30 20 C -0.200886 1.707994 2.925189 0
M  V30 21 C -1.519372 1.672519 3.358398 0
M  V30 22 N -2.280806 0.653559 2.923250 0
M  V30 23 C -1.809837 -0.308931 2.098610 0
M  V30 24 N -2.836434 -1.241292 1.806354 0
M  V30 25 C -3.207102 -1.572429 0.463269 0
M  V30 26 C -4.271191 -2.434102 0.156477 0
M  V30 27 C -4.602270 -2.728755 -1.150182 0
M  V30 28 C -3.853457 -2.149983 -2.167852 0
M  V30 29 C -2.781553 -1.284196 -1.900416 0
M  V30 30 C -2.481803 -1.014095 -0.589557 0
M  V30 31 O -2.062443 -0.731688 -2.939362 0
M  V30 32 C -2.323069 -1.009160 -4.307048 0
M  V30 33 C -3.778391 -1.404858 -4.497971 0
M  V30 34 O -4.127142 -2.397108 -3.517930 0
M  V30 35 N -0.532673 -0.280412 1.674551 0
M  V30 36 C 2.822083 -2.321677 1.880698 0
M  V30 37 H 2.366165 -4.445245 4.428643 0
M  V30 38 H 2.153984 -2.361879 5.712898 0
M  V30 39 H 2.384656 -0.190239 4.452128 0
M  V30 40 H 3.783233 4.422381 -1.481039 0
M  V30 41 H 1.447727 4.676333 -0.938017 0
M  V30 42 H 0.312583 3.096137 0.475908 0
M  V30 43 H 0.505535 2.487486 3.214558 0
M  V30 44 H -1.802424 2.471835 4.008103 0
M  V30 45 H -3.359872 -1.720947 2.586110 0
M  V30 46 H -4.814572 -2.850214 1.007358 0
M  V30 47 H -5.421570 -3.389571 -1.381101 0
M  V30 48 H -1.659955 -0.353851 -0.430742 0
M  V30 49 H -1.671707 -1.815012 -4.688102 0
M  V30 50 H -2.130496 -0.075188 -4.871602 0
M  V30 51 H -4.014355 -1.766417 -5.492767 0
M  V30 52 H -4.365975 -0.492491 -4.218656 0
M  V30 53 H 3.005448 -2.395114 0.830493 0
M  V30 END ATOM
M  V30 BEGIN BOND
M  V30 1 1 1 2
M  V30 2 1 2 3
M  V30 3 1 2 4
M  V30 4 1 2 5
M  V30 5 2 5 6
M  V30 6 1 6 7
M  V30 7 2 7 8
M  V30 8 1 8 9
M  V30 9 1 9 10
M  V30 10 2 10 11
M  V30 11 1 11 12
M  V30 12 1 12 13
M  V30 13 2 13 14
M  V30 14 1 14 15
M  V30 15 2 15 16
M  V30 16 1 16 17
M  V30 17 2 17 18
M  V30 18 1 18 19
M  V30 19 2 19 20
M  V30 20 1 20 21
M  V30 21 2 21 22
M  V30 22 1 22 23
M  V30 23 1 23 24
M  V30 24 1 24 25
M  V30 25 2 25 26
M  V30 26 1 26 27
M  V30 27 2 27 28
M  V30 28 1 28 29
M  V30 29 2 29 30
M  V30 30 1 29 31
M  V30 31 1 31 32
M  V30 32 1 32 33
M  V30 33 1 33 34
M  V30 34 2 23 35
M  V30 35 2 9 36
M  V30 36 1 36 5
M  V30 37 1 18 10
M  V30 38 1 35 19
M  V30 39 1 17 12
M  V30 40 1 30 25
M  V30 41 1 34 28
M  V30 42 1 6 37
M  V30 43 1 7 38
M  V30 44 1 8 39
M  V30 45 1 14 40
M  V30 46 1 15 41
M  V30 47 1 16 42
M  V30 48 1 20 43
M  V30 49 1 21 44
M  V30 50 1 24 45
M  V30 51 1 26 46
M  V30 52 1 27 47
M  V30 53 1 30 48
M  V30 54 1 32 49
M  V30 55 1 32 50
M  V30 56 1 33 51
M  V30 57 1 33 52
M  V30 58 1 36 53
M  V30 END BOND
M  V30 END CTAB
M  END
>  <Dataset>  (772) 
ChEMBL_Kinases

>  <Ligand_Instance>  (772) 
nan

>  <PDB_ID>  (772) 
nan

>  <Standardized_SMILES>  (772) 
FC(F)(F)c1cccc(-c2nn3ncccc3c2-c2ccnc(Nc3ccc4c(c3)OCCO4)n2)c1

>  <Name>  (772) 
GW827102X

>  <Pocket>  (772) 
nan

>  <ATP_Site>  (772) 
nan

>  <Peripheral>  (772) 
nan

>  <Num_H_Atoms_ProtBoundConf>  (772) 
nan

>  <Num_Resolved_Atoms>  (772) 
nan

>  <Num_Not_Resolved_Atoms>  (772) 
nan

$$$$
CHEMBL3618298
     RDKit          3D

  0  0  0  0  0  0  0  0  0  0999 V3000
M  V30 BEGIN CTAB
M  V30 COUNTS 44 47 0 0 0
M  V30 BEGIN ATOM
M  V30 1 C 2.024985 -4.511725 2.604407 0
M  V30 2 C 1.255682 -3.597134 1.685324 0
M  V30 3 C 1.875486 -2.267385 1.560939 0
M  V30 4 O 2.643180 -2.857195 2.361585 0
M  V30 5 C 2.088601 -0.922274 1.139472 0
M  V30 6 C 3.140455 -0.306001 1.633309 0
M  V30 7 C 4.104448 -0.907591 2.584926 0
M  V30 8 N 3.296638 1.025185 1.173738 0
M  V30 9 C 2.439138 1.491938 0.354128 0
M  V30 10 S 2.501275 3.160359 -0.317879 0
M  V30 11 C 1.007165 2.926368 -1.322489 0
M  V30 12 C 0.446758 3.864224 -2.149552 0
M  V30 13 C -0.686966 3.520342 -2.834921 0
M  V30 14 C -1.184750 2.272173 -2.652116 0
M  V30 15 C -0.595844 1.354543 -1.812952 0
M  V30 16 C 0.552446 1.646517 -1.094163 0
M  V30 17 N 1.299840 0.850159 -0.197798 0
M  V30 18 C 1.041320 -0.519393 0.213256 0
M  V30 19 C -0.344195 -0.703239 0.688825 0
M  V30 20 C -0.836888 0.235854 1.551480 0
M  V30 21 C -2.108310 0.214532 2.087699 0
M  V30 22 C -2.959852 -0.817551 1.743173 0
M  V30 23 N -4.274466 -0.861246 2.285278 0 CHG=1 VAL=4
M  V30 24 O -5.029680 -1.806911 1.965812 0
M  V30 25 O -4.705934 0.121975 3.148087 0 CHG=-1 VAL=1
M  V30 26 C -2.486167 -1.795769 0.861518 0
M  V30 27 C -1.209879 -1.746426 0.342617 0
M  V30 28 H 3.016378 -4.718620 2.150541 0
M  V30 29 H 2.116984 -4.176039 3.634911 0
M  V30 30 H 1.460960 -5.491263 2.576519 0
M  V30 31 H 0.233263 -3.475763 2.149116 0
M  V30 32 H 1.126412 -4.116086 0.727222 0
M  V30 33 H 4.859967 -0.106234 2.840734 0
M  V30 34 H 3.655511 -1.159524 3.574300 0
M  V30 35 H 4.666501 -1.733123 2.119308 0
M  V30 36 H 0.867543 4.845605 -2.271757 0
M  V30 37 H -1.141689 4.247542 -3.491535 0
M  V30 38 H -2.086417 2.013847 -3.203939 0
M  V30 39 H -1.103536 0.378831 -1.757234 0
M  V30 40 H 1.129120 -1.207013 -0.681003 0
M  V30 41 H -0.263213 1.097466 1.899192 0
M  V30 42 H -2.499683 0.954910 2.769318 0
M  V30 43 H -3.130497 -2.611165 0.577290 0
M  V30 44 H -0.804205 -2.478521 -0.339098 0
M  V30 END ATOM
M  V30 BEGIN BOND
M  V30 1 1 1 2
M  V30 2 1 2 3
M  V30 3 2 3 4
M  V30 4 1 3 5
M  V30 5 2 5 6
M  V30 6 1 6 7
M  V30 7 1 6 8
M  V30 8 2 8 9
M  V30 9 1 9 10
M  V30 10 1 10 11
M  V30 11 2 11 12
M  V30 12 1 12 13
M  V30 13 2 13 14
M  V30 14 1 14 15
M  V30 15 2 15 16
M  V30 16 1 16 17
M  V30 17 1 17 18
M  V30 18 1 18 19
M  V30 19 2 19 20
M  V30 20 1 20 21
M  V30 21 2 21 22
M  V30 22 1 22 23
M  V30 23 2 23 24
M  V30 24 1 23 25
M  V30 25 1 22 26
M  V30 26 2 26 27
M  V30 27 1 18 5
M  V30 28 1 27 19
M  V30 29 1 17 9
M  V30 30 1 16 11
M  V30 31 1 1 28
M  V30 32 1 1 29
M  V30 33 1 1 30
M  V30 34 1 2 31
M  V30 35 1 2 32
M  V30 36 1 7 33
M  V30 37 1 7 34
M  V30 38 1 7 35
M  V30 39 1 12 36
M  V30 40 1 13 37
M  V30 41 1 14 38
M  V30 42 1 15 39
M  V30 43 1 18 40
M  V30 44 1 20 41
M  V30 45 1 21 42
M  V30 46 1 26 43
M  V30 47 1 27 44
M  V30 END BOND
M  V30 END CTAB
M  END
>  <Dataset>  (773) 
ChEMBL_Kinases

>  <Ligand_Instance>  (773) 
nan

>  <PDB_ID>  (773) 
nan

>  <Standardized_SMILES>  (773) 
CCC(=O)C1=C(C)N=C2Sc3ccccc3N2C1c1ccc([N+](=O)[O-])cc1

>  <Name>  (773) 
nan

>  <Pocket>  (773) 
nan

>  <ATP_Site>  (773) 
nan

>  <Peripheral>  (773) 
nan

>  <Num_H_Atoms_ProtBoundConf>  (773) 
nan

>  <Num_Resolved_Atoms>  (773) 
nan

>  <Num_Not_Resolved_Atoms>  (773) 
nan

$$$$
CHEMBL3618299
     RDKit          3D

  0  0  0  0  0  0  0  0  0  0999 V3000
M  V30 BEGIN CTAB
M  V30 COUNTS 50 53 0 0 0
M  V30 BEGIN ATOM
M  V30 1 C 0.897246 -2.152639 3.719975 0
M  V30 2 C 1.728292 -3.133006 2.925738 0
M  V30 3 C 2.243413 -2.645902 1.653041 0
M  V30 4 O 2.940934 -3.668955 1.307669 0
M  V30 5 C 2.232527 -1.489738 0.728183 0
M  V30 6 C 2.961307 -1.624626 -0.357772 0
M  V30 7 C 3.781590 -2.803938 -0.771210 0
M  V30 8 N 3.091822 -0.475733 -1.181046 0
M  V30 9 C 2.522257 0.603332 -0.837569 0
M  V30 10 S 2.561667 2.161313 -1.722505 0
M  V30 11 C 2.039156 3.123951 -0.267694 0
M  V30 12 C 2.045499 4.492269 -0.172406 0
M  V30 13 C 1.494786 5.036450 0.956389 0
M  V30 14 C 0.978715 4.182452 1.906379 0
M  V30 15 C 1.005326 2.815952 1.750475 0
M  V30 16 C 1.550114 2.211995 0.633824 0
M  V30 17 N 1.783175 0.844795 0.350198 0
M  V30 18 C 1.343272 -0.346331 1.048224 0
M  V30 19 C -0.066388 -0.690291 0.616123 0
M  V30 20 C -0.349555 -1.991931 0.226619 0
M  V30 21 C -1.584568 -2.450502 -0.185428 0
M  V30 22 C -2.637740 -1.542604 -0.216642 0
M  V30 23 N -3.944005 -1.923450 -0.626633 0
M  V30 24 C -5.072993 -0.980724 -0.667170 0
M  V30 25 C -4.211227 -3.293082 -1.028785 0
M  V30 26 C -2.408750 -0.238011 0.160255 0
M  V30 27 C -1.151130 0.144428 0.559100 0
M  V30 28 H 1.491209 -1.352380 4.159424 0
M  V30 29 H 0.551727 -2.764881 4.615748 0
M  V30 30 H -0.007456 -1.890618 3.185799 0
M  V30 31 H 1.041507 -4.016308 2.766379 0
M  V30 32 H 2.513545 -3.509187 3.631518 0
M  V30 33 H 4.284416 -2.594663 -1.763073 0
M  V30 34 H 3.075277 -3.638862 -0.958956 0
M  V30 35 H 4.606096 -3.034144 -0.097408 0
M  V30 36 H 2.463501 5.117107 -0.946657 0
M  V30 37 H 1.443915 6.098080 1.140433 0
M  V30 38 H 0.532304 4.606185 2.816787 0
M  V30 39 H 0.572982 2.221748 2.555233 0
M  V30 40 H 1.360890 -0.175364 2.121472 0
M  V30 41 H 0.360650 -2.804986 0.191311 0
M  V30 42 H -1.844713 -3.434031 -0.490744 0
M  V30 43 H -4.975635 -0.280601 -1.508073 0
M  V30 44 H -5.051089 -0.394535 0.270612 0
M  V30 45 H -6.032640 -1.529397 -0.667778 0
M  V30 46 H -5.318624 -3.503751 -0.973556 0
M  V30 47 H -3.909128 -3.509440 -2.063441 0
M  V30 48 H -3.783140 -4.039647 -0.298090 0
M  V30 49 H -3.211780 0.467486 0.139444 0
M  V30 50 H -1.037032 1.155277 0.835544 0
M  V30 END ATOM
M  V30 BEGIN BOND
M  V30 1 1 1 2
M  V30 2 1 2 3
M  V30 3 2 3 4
M  V30 4 1 3 5
M  V30 5 2 5 6
M  V30 6 1 6 7
M  V30 7 1 6 8
M  V30 8 2 8 9
M  V30 9 1 9 10
M  V30 10 1 10 11
M  V30 11 2 11 12
M  V30 12 1 12 13
M  V30 13 2 13 14
M  V30 14 1 14 15
M  V30 15 2 15 16
M  V30 16 1 16 17
M  V30 17 1 17 18
M  V30 18 1 18 19
M  V30 19 2 19 20
M  V30 20 1 20 21
M  V30 21 2 21 22
M  V30 22 1 22 23
M  V30 23 1 23 24
M  V30 24 1 23 25
M  V30 25 1 22 26
M  V30 26 2 26 27
M  V30 27 1 18 5
M  V30 28 1 27 19
M  V30 29 1 17 9
M  V30 30 1 16 11
M  V30 31 1 1 28
M  V30 32 1 1 29
M  V30 33 1 1 30
M  V30 34 1 2 31
M  V30 35 1 2 32
M  V30 36 1 7 33
M  V30 37 1 7 34
M  V30 38 1 7 35
M  V30 39 1 12 36
M  V30 40 1 13 37
M  V30 41 1 14 38
M  V30 42 1 15 39
M  V30 43 1 18 40
M  V30 44 1 20 41
M  V30 45 1 21 42
M  V30 46 1 24 43
M  V30 47 1 24 44
M  V30 48 1 24 45
M  V30 49 1 25 46
M  V30 50 1 25 47
M  V30 51 1 25 48
M  V30 52 1 26 49
M  V30 53 1 27 50
M  V30 END BOND
M  V30 END CTAB
M  END
>  <Dataset>  (774) 
ChEMBL_Kinases

>  <Ligand_Instance>  (774) 
nan

>  <PDB_ID>  (774) 
nan

>  <Standardized_SMILES>  (774) 
CCC(=O)C1=C(C)N=C2Sc3ccccc3N2C1c1ccc(N(C)C)cc1

>  <Name>  (774) 
nan

>  <Pocket>  (774) 
nan

>  <ATP_Site>  (774) 
nan

>  <Peripheral>  (774) 
nan

>  <Num_H_Atoms_ProtBoundConf>  (774) 
nan

>  <Num_Resolved_Atoms>  (774) 
nan

>  <Num_Not_Resolved_Atoms>  (774) 
nan

$$$$
CHEMBL3618300
     RDKit          3D

  0  0  0  0  0  0  0  0  0  0999 V3000
M  V30 BEGIN CTAB
M  V30 COUNTS 47 50 0 0 0
M  V30 BEGIN ATOM
M  V30 1 C 0.709985 -4.894562 1.711665 0
M  V30 2 C 1.754609 -4.029777 1.006306 0
M  V30 3 C 1.208125 -2.735743 0.615221 0
M  V30 4 O 0.220136 -3.266893 1.149134 0
M  V30 5 C 1.618986 -1.514218 -0.039647 0
M  V30 6 C 2.856714 -1.374027 -0.478074 0
M  V30 7 C 3.949734 -2.376229 -0.376784 0
M  V30 8 N 3.092610 -0.118587 -1.095542 0
M  V30 9 C 2.129729 0.717302 -1.165895 0
M  V30 10 S 2.284930 2.342634 -1.919290 0
M  V30 11 C 0.532160 2.721527 -1.602773 0
M  V30 12 C -0.092119 3.892371 -1.960059 0
M  V30 13 C -1.422443 4.061438 -1.657853 0
M  V30 14 C -2.032865 3.035688 -1.014749 0
M  V30 15 C -1.383944 1.872638 -0.668251 0
M  V30 16 C -0.047346 1.656383 -0.950692 0
M  V30 17 N 0.798479 0.567639 -0.705727 0
M  V30 18 C 0.450607 -0.682376 -0.034694 0
M  V30 19 C -0.122259 -0.273400 1.244382 0
M  V30 20 C 0.600970 0.691647 1.914425 0
M  V30 21 C 0.237328 1.225045 3.153811 0
M  V30 22 C -0.919809 0.764183 3.757876 0
M  V30 23 O -1.315948 1.267985 4.988691 0
M  V30 24 C -1.647826 -0.198819 3.096140 0
M  V30 25 O -2.811796 -0.675870 3.682846 0
M  V30 26 C -3.608850 -1.674866 3.043966 0
M  V30 27 C -1.291062 -0.716311 1.888988 0
M  V30 28 H 1.254998 -5.864266 1.904669 0
M  V30 29 H 0.336439 -4.467898 2.639187 0
M  V30 30 H -0.075628 -5.155001 0.986626 0
M  V30 31 H 1.973587 -4.611334 0.060973 0
M  V30 32 H 2.698605 -4.015572 1.570161 0
M  V30 33 H 3.730791 -3.330552 -0.878584 0
M  V30 34 H 4.289346 -2.485072 0.687346 0
M  V30 35 H 4.842764 -1.974802 -0.900721 0
M  V30 36 H 0.431465 4.680492 -2.469955 0
M  V30 37 H -1.946956 4.959678 -1.918891 0
M  V30 38 H -3.093302 3.184384 -0.780121 0
M  V30 39 H -2.000060 1.155243 -0.167567 0
M  V30 40 H -0.373523 -1.196954 -0.609080 0
M  V30 41 H 1.513858 1.124876 1.545545 0
M  V30 42 H 0.790620 1.968078 3.673814 0
M  V30 43 H -2.266367 1.080839 5.286871 0
M  V30 44 H -4.030122 -1.257634 2.112960 0
M  V30 45 H -4.416423 -1.997303 3.706670 0
M  V30 46 H -3.006001 -2.559356 2.776807 0
M  V30 47 H -1.812842 -1.466917 1.311466 0
M  V30 END ATOM
M  V30 BEGIN BOND
M  V30 1 1 1 2
M  V30 2 1 2 3
M  V30 3 2 3 4
M  V30 4 1 3 5
M  V30 5 2 5 6
M  V30 6 1 6 7
M  V30 7 1 6 8
M  V30 8 2 8 9
M  V30 9 1 9 10
M  V30 10 1 10 11
M  V30 11 2 11 12
M  V30 12 1 12 13
M  V30 13 2 13 14
M  V30 14 1 14 15
M  V30 15 2 15 16
M  V30 16 1 16 17
M  V30 17 1 17 18
M  V30 18 1 18 19
M  V30 19 2 19 20
M  V30 20 1 20 21
M  V30 21 2 21 22
M  V30 22 1 22 23
M  V30 23 1 22 24
M  V30 24 1 24 25
M  V30 25 1 25 26
M  V30 26 2 24 27
M  V30 27 1 18 5
M  V30 28 1 27 19
M  V30 29 1 17 9
M  V30 30 1 16 11
M  V30 31 1 1 28
M  V30 32 1 1 29
M  V30 33 1 1 30
M  V30 34 1 2 31
M  V30 35 1 2 32
M  V30 36 1 7 33
M  V30 37 1 7 34
M  V30 38 1 7 35
M  V30 39 1 12 36
M  V30 40 1 13 37
M  V30 41 1 14 38
M  V30 42 1 15 39
M  V30 43 1 18 40
M  V30 44 1 20 41
M  V30 45 1 21 42
M  V30 46 1 23 43
M  V30 47 1 26 44
M  V30 48 1 26 45
M  V30 49 1 26 46
M  V30 50 1 27 47
M  V30 END BOND
M  V30 END CTAB
M  END
>  <Dataset>  (775) 
ChEMBL_Kinases

>  <Ligand_Instance>  (775) 
nan

>  <PDB_ID>  (775) 
nan

>  <Standardized_SMILES>  (775) 
CCC(=O)C1=C(C)N=C2Sc3ccccc3N2C1c1ccc(O)c(OC)c1

>  <Name>  (775) 
nan

>  <Pocket>  (775) 
nan

>  <ATP_Site>  (775) 
nan

>  <Peripheral>  (775) 
nan

>  <Num_H_Atoms_ProtBoundConf>  (775) 
nan

>  <Num_Resolved_Atoms>  (775) 
nan

>  <Num_Not_Resolved_Atoms>  (775) 
nan

$$$$
CHEMBL361841
     RDKit          3D

  0  0  0  0  0  0  0  0  0  0999 V3000
M  V30 BEGIN CTAB
M  V30 COUNTS 54 57 0 0 0
M  V30 BEGIN ATOM
M  V30 1 N 2.907876 -1.762777 -3.420822 0
M  V30 2 C 2.171650 -1.254256 -2.718020 0
M  V30 3 C 1.232182 -0.611402 -1.842223 0
M  V30 4 C 1.580455 -0.262091 -0.533704 0
M  V30 5 C 2.935451 -0.575337 -0.090149 0
M  V30 6 C 3.949978 0.519943 -0.341868 0
M  V30 7 C 5.298314 -0.162855 -0.077765 0
M  V30 8 N 5.439700 -0.587844 1.284321 0
M  V30 9 C 4.339976 -1.313075 1.834865 0
M  V30 10 C 2.982136 -0.835329 1.398526 0
M  V30 11 C 0.598154 0.345499 0.202439 0
M  V30 12 C -0.665544 0.609392 -0.289484 0
M  V30 13 C -1.637358 1.263336 0.585602 0
M  V30 14 C -1.705428 2.653459 0.597528 0
M  V30 15 O -0.868119 3.412252 -0.205083 0
M  V30 16 C -2.648025 3.207725 1.449326 0
M  V30 17 C -3.489224 2.465790 2.254905 0
M  V30 18 C -3.383236 1.083277 2.207606 0
M  V30 19 C -2.464300 0.468011 1.379941 0
M  V30 20 O -2.324219 -0.922553 1.301361 0
M  V30 21 C -3.127618 -1.790008 2.076675 0
M  V30 22 C -2.779946 -3.237395 1.807776 0
M  V30 23 C -2.969545 -3.660132 0.366512 0
M  V30 24 C -3.566292 -4.954843 0.891210 0
M  V30 25 C -3.875468 -4.216217 2.176970 0
M  V30 26 N -0.958367 0.260473 -1.543140 0
M  V30 27 C -0.030036 -0.347005 -2.331310 0
M  V30 28 N -0.399206 -0.701481 -3.674306 0
M  V30 29 H 3.338669 -1.494952 -0.582179 0
M  V30 30 H 3.962837 0.855952 -1.380267 0
M  V30 31 H 3.785232 1.344673 0.380784 0
M  V30 32 H 5.350472 -1.002231 -0.796188 0
M  V30 33 H 6.082629 0.595503 -0.276076 0
M  V30 34 H 5.895090 0.099048 1.904492 0
M  V30 35 H 4.391694 -1.139768 2.950019 0
M  V30 36 H 4.468965 -2.398720 1.694228 0
M  V30 37 H 2.242650 -1.628288 1.628029 0
M  V30 38 H 2.665787 0.074912 1.942545 0
M  V30 39 H 0.840798 0.626267 1.218040 0
M  V30 40 H -1.000272 4.417540 -0.167644 0
M  V30 41 H -2.717395 4.303924 1.473292 0
M  V30 42 H -4.219017 2.941283 2.912713 0
M  V30 43 H -4.031764 0.470909 2.830144 0
M  V30 44 H -4.192914 -1.654360 1.763497 0
M  V30 45 H -3.105168 -1.565952 3.159998 0
M  V30 46 H -1.783399 -3.541707 2.145617 0
M  V30 47 H -3.731066 -3.055355 -0.159121 0
M  V30 48 H -2.014330 -3.791565 -0.181371 0
M  V30 49 H -4.442898 -5.319294 0.318234 0
M  V30 50 H -2.753134 -5.691670 1.056366 0
M  V30 51 H -3.687861 -4.795778 3.102280 0
M  V30 52 H -4.888835 -3.741680 2.098764 0
M  V30 53 H -0.356776 -1.632839 -4.108247 0
M  V30 54 H -0.752974 0.106140 -4.266938 0
M  V30 END ATOM
M  V30 BEGIN BOND
M  V30 1 3 1 2
M  V30 2 1 2 3
M  V30 3 2 3 4
M  V30 4 1 4 5
M  V30 5 1 5 6
M  V30 6 1 6 7
M  V30 7 1 7 8
M  V30 8 1 8 9
M  V30 9 1 9 10
M  V30 10 1 4 11
M  V30 11 2 11 12
M  V30 12 1 12 13
M  V30 13 2 13 14
M  V30 14 1 14 15
M  V30 15 1 14 16
M  V30 16 2 16 17
M  V30 17 1 17 18
M  V30 18 2 18 19
M  V30 19 1 19 20
M  V30 20 1 20 21
M  V30 21 1 21 22
M  V30 22 1 22 23
M  V30 23 1 23 24
M  V30 24 1 24 25
M  V30 25 1 12 26
M  V30 26 2 26 27
M  V30 27 1 27 28
M  V30 28 1 27 3
M  V30 29 1 10 5
M  V30 30 1 19 13
M  V30 31 1 25 22
M  V30 32 1 5 29
M  V30 33 1 6 30
M  V30 34 1 6 31
M  V30 35 1 7 32
M  V30 36 1 7 33
M  V30 37 1 8 34
M  V30 38 1 9 35
M  V30 39 1 9 36
M  V30 40 1 10 37
M  V30 41 1 10 38
M  V30 42 1 11 39
M  V30 43 1 15 40
M  V30 44 1 16 41
M  V30 45 1 17 42
M  V30 46 1 18 43
M  V30 47 1 21 44
M  V30 48 1 21 45
M  V30 49 1 22 46
M  V30 50 1 23 47
M  V30 51 1 23 48
M  V30 52 1 24 49
M  V30 53 1 24 50
M  V30 54 1 25 51
M  V30 55 1 25 52
M  V30 56 1 28 53
M  V30 57 1 28 54
M  V30 END BOND
M  V30 END CTAB
M  END
>  <Dataset>  (776) 
ChEMBL_Kinases

>  <Ligand_Instance>  (776) 
nan

>  <PDB_ID>  (776) 
nan

>  <Standardized_SMILES>  (776) 
N#Cc1c(C2CCNCC2)cc(-c2c(O)cccc2OCC2CCC2)nc1N

>  <Name>  (776) 
nan

>  <Pocket>  (776) 
nan

>  <ATP_Site>  (776) 
nan

>  <Peripheral>  (776) 
nan

>  <Num_H_Atoms_ProtBoundConf>  (776) 
nan

>  <Num_Resolved_Atoms>  (776) 
nan

>  <Num_Not_Resolved_Atoms>  (776) 
nan

$$$$
CHEMBL361948
     RDKit          3D

  0  0  0  0  0  0  0  0  0  0999 V3000
M  V30 BEGIN CTAB
M  V30 COUNTS 51 56 0 0 0
M  V30 BEGIN ATOM
M  V30 1 C 2.753149 -1.117401 4.083610 0
M  V30 2 C 2.514086 -2.313852 3.261874 0
M  V30 3 O 1.988221 -3.334432 3.793106 0
M  V30 4 N 2.872609 -2.328832 1.867168 0
M  V30 5 C 3.464802 -1.179290 1.257898 0
M  V30 6 C 2.780183 -0.580808 0.101987 0
M  V30 7 N 1.470100 -1.055392 -0.214047 0
M  V30 8 C 0.605334 -0.217445 -0.864262 0
M  V30 9 C -0.602754 -0.898319 -1.073737 0
M  V30 10 C -1.719961 -0.199809 -1.738949 0
M  V30 11 C -2.221319 1.028934 -1.498320 0
M  V30 12 C -1.787448 2.003306 -0.496866 0
M  V30 13 C -1.483484 3.340043 -0.667970 0
M  V30 14 N -1.153145 3.857779 0.536687 0
M  V30 15 C -1.240473 2.880134 1.475756 0
M  V30 16 C -1.008883 2.929456 2.850597 0
M  V30 17 C -1.182636 1.767406 3.612965 0
M  V30 18 C -1.578982 0.630767 2.946130 0
M  V30 19 C -1.792515 0.643235 1.586885 0
M  V30 20 N -1.630201 1.750596 0.829658 0
M  V30 21 C -3.332182 1.276292 -2.430207 0
M  V30 22 O -4.034857 2.327490 -2.488925 0
M  V30 23 N -3.460487 0.124187 -3.237865 0
M  V30 24 C -2.467992 -0.808385 -2.825998 0
M  V30 25 O -2.420507 -1.906818 -3.431912 0
M  V30 26 C -0.484159 -2.163445 -0.550085 0
M  V30 27 C -1.394551 -3.181507 -0.507493 0
M  V30 28 C -0.926975 -4.334453 0.119736 0
M  V30 29 C 0.337887 -4.427647 0.643680 0
M  V30 30 C 1.210773 -3.373551 0.572506 0
M  V30 31 C 0.789797 -2.188880 -0.048281 0
M  V30 32 C 2.567951 -3.603772 1.189400 0
M  V30 33 H 3.813507 -0.750451 4.031017 0
M  V30 34 H 2.570243 -1.340312 5.152625 0
M  V30 35 H 2.017690 -0.324219 3.819622 0
M  V30 36 H 4.530173 -1.429358 0.977120 0
M  V30 37 H 3.606324 -0.377113 2.046538 0
M  V30 38 H 3.395821 -0.779010 -0.830873 0
M  V30 39 H 2.820140 0.537117 0.180764 0
M  V30 40 H 0.830664 0.820735 -1.169638 0
M  V30 41 H -1.514809 3.865239 -1.637631 0
M  V30 42 H -0.698844 3.832100 3.348028 0
M  V30 43 H -1.024072 1.718101 4.684674 0
M  V30 44 H -1.717020 -0.283687 3.550271 0
M  V30 45 H -2.114650 -0.305962 1.194573 0
M  V30 46 H -4.207660 0.072067 -3.995064 0
M  V30 47 H -2.382186 -3.053693 -0.934840 0
M  V30 48 H -1.617205 -5.182316 0.188189 0
M  V30 49 H 0.700588 -5.308414 1.127961 0
M  V30 50 H 3.300996 -3.808346 0.374845 0
M  V30 51 H 2.506622 -4.374774 1.961751 0
M  V30 END ATOM
M  V30 BEGIN BOND
M  V30 1 1 1 2
M  V30 2 2 2 3
M  V30 3 1 2 4
M  V30 4 1 4 5
M  V30 5 1 5 6
M  V30 6 1 6 7
M  V30 7 1 7 8
M  V30 8 2 8 9
M  V30 9 1 9 10
M  V30 10 2 10 11
M  V30 11 1 11 12
M  V30 12 2 12 13
M  V30 13 1 13 14
M  V30 14 2 14 15
M  V30 15 1 15 16
M  V30 16 2 16 17
M  V30 17 1 17 18
M  V30 18 2 18 19
M  V30 19 1 19 20
M  V30 20 1 11 21
M  V30 21 2 21 22
M  V30 22 1 21 23
M  V30 23 1 23 24
M  V30 24 2 24 25
M  V30 25 1 9 26
M  V30 26 2 26 27
M  V30 27 1 27 28
M  V30 28 2 28 29
M  V30 29 1 29 30
M  V30 30 2 30 31
M  V30 31 1 30 32
M  V30 32 1 32 4
M  V30 33 1 31 7
M  V30 34 1 24 10
M  V30 35 1 31 26
M  V30 36 1 20 12
M  V30 37 1 20 15
M  V30 38 1 1 33
M  V30 39 1 1 34
M  V30 40 1 1 35
M  V30 41 1 5 36
M  V30 42 1 5 37
M  V30 43 1 6 38
M  V30 44 1 6 39
M  V30 45 1 8 40
M  V30 46 1 13 41
M  V30 47 1 16 42
M  V30 48 1 17 43
M  V30 49 1 18 44
M  V30 50 1 19 45
M  V30 51 1 23 46
M  V30 52 1 27 47
M  V30 53 1 28 48
M  V30 54 1 29 49
M  V30 55 1 32 50
M  V30 56 1 32 51
M  V30 END BOND
M  V30 END CTAB
M  END
>  <Dataset>  (777) 
ChEMBL_Kinases

>  <Ligand_Instance>  (777) 
nan

>  <PDB_ID>  (777) 
nan

>  <Standardized_SMILES>  (777) 
CC(=O)N1CCn2cc(C3=C(c4cnc5ccccn45)C(=O)NC3=O)c3cccc(c32)C1

>  <Name>  (777) 
nan

>  <Pocket>  (777) 
nan

>  <ATP_Site>  (777) 
nan

>  <Peripheral>  (777) 
nan

>  <Num_H_Atoms_ProtBoundConf>  (777) 
nan

>  <Num_Resolved_Atoms>  (777) 
nan

>  <Num_Not_Resolved_Atoms>  (777) 
nan

$$$$
CHEMBL362030
     RDKit          3D

  0  0  0  0  0  0  0  0  0  0999 V3000
M  V30 BEGIN CTAB
M  V30 COUNTS 38 41 0 0 0
M  V30 BEGIN ATOM
M  V30 1 C -1.323587 -6.099350 4.424344 0
M  V30 2 O -1.068663 -4.707278 4.536758 0
M  V30 3 C -0.721030 -4.007696 3.388715 0
M  V30 4 C -0.609560 -4.606236 2.127317 0
M  V30 5 C -0.258478 -3.843851 1.028527 0
M  V30 6 C -0.011495 -2.489672 1.143361 0
M  V30 7 C 0.359197 -1.686415 -0.018613 0
M  V30 8 C 0.622129 -0.344284 -0.004307 0
M  V30 9 C 0.925392 -0.017793 -1.313868 0
M  V30 10 C 1.266921 1.225067 -1.838567 0
M  V30 11 N 1.335455 2.359866 -0.982615 0
M  V30 12 C 0.097025 3.062666 -0.872102 0
M  V30 13 O -1.079597 2.952754 -1.338279 0
M  V30 14 C -0.055886 4.265324 -0.038829 0
M  V30 15 C 0.546989 4.097758 1.353006 0
M  V30 16 C 1.049833 5.144601 0.351414 0
M  V30 17 N 1.514459 1.247597 -3.172338 0
M  V30 18 C 1.421187 0.103086 -3.903056 0
M  V30 19 N 1.088915 -1.092672 -3.378003 0
M  V30 20 C 0.831247 -1.181688 -2.060819 0
M  V30 21 O 0.487738 -2.158899 -1.236846 0
M  V30 22 C -0.124695 -1.911226 2.392447 0
M  V30 23 C -0.473230 -2.641694 3.511906 0
M  V30 24 H -2.217367 -6.214394 3.776017 0
M  V30 25 H -1.474652 -6.583461 5.386199 0
M  V30 26 H -0.424260 -6.591190 3.957110 0
M  V30 27 H -0.812304 -5.674193 2.080440 0
M  V30 28 H -0.183452 -4.342128 0.075993 0
M  V30 29 H 0.590839 0.294506 0.860846 0
M  V30 30 H 2.099926 2.768085 -0.432362 0
M  V30 31 H -1.091646 4.682155 -0.071991 0
M  V30 32 H 1.206790 3.229146 1.554292 0
M  V30 33 H -0.054188 4.446661 2.215282 0
M  V30 34 H 0.780909 6.212481 0.571791 0
M  V30 35 H 2.075486 5.033644 0.003859 0
M  V30 36 H 1.637397 0.214796 -4.968151 0
M  V30 37 H 0.064964 -0.852814 2.500737 0
M  V30 38 H -0.543993 -2.114392 4.472565 0
M  V30 END ATOM
M  V30 BEGIN BOND
M  V30 1 1 1 2
M  V30 2 1 2 3
M  V30 3 2 3 4
M  V30 4 1 4 5
M  V30 5 2 5 6
M  V30 6 1 6 7
M  V30 7 2 7 8
M  V30 8 1 8 9
M  V30 9 2 9 10
M  V30 10 1 10 11
M  V30 11 1 11 12
M  V30 12 2 12 13
M  V30 13 1 12 14
M  V30 14 1 14 15
M  V30 15 1 15 16
M  V30 16 1 10 17
M  V30 17 2 17 18
M  V30 18 1 18 19
M  V30 19 2 19 20
M  V30 20 1 20 21
M  V30 21 1 6 22
M  V30 22 2 22 23
M  V30 23 1 23 3
M  V30 24 1 21 7
M  V30 25 1 20 9
M  V30 26 1 16 14
M  V30 27 1 1 24
M  V30 28 1 1 25
M  V30 29 1 1 26
M  V30 30 1 4 27
M  V30 31 1 5 28
M  V30 32 1 8 29
M  V30 33 1 11 30
M  V30 34 1 14 31
M  V30 35 1 15 32
M  V30 36 1 15 33
M  V30 37 1 16 34
M  V30 38 1 16 35
M  V30 39 1 18 36
M  V30 40 1 22 37
M  V30 41 1 23 38
M  V30 END BOND
M  V30 END CTAB
M  END
>  <Dataset>  (778) 
ChEMBL_Kinases

>  <Ligand_Instance>  (778) 
nan

>  <PDB_ID>  (778) 
nan

>  <Standardized_SMILES>  (778) 
COc1ccc(-c2cc3c(NC(=O)C4CC4)ncnc3o2)cc1

>  <Name>  (778) 
nan

>  <Pocket>  (778) 
nan

>  <ATP_Site>  (778) 
nan

>  <Peripheral>  (778) 
nan

>  <Num_H_Atoms_ProtBoundConf>  (778) 
nan

>  <Num_Resolved_Atoms>  (778) 
nan

>  <Num_Not_Resolved_Atoms>  (778) 
nan

$$$$
CHEMBL362086
     RDKit          3D

  0  0  0  0  0  0  0  0  0  0999 V3000
M  V30 BEGIN CTAB
M  V30 COUNTS 47 51 0 0 0
M  V30 BEGIN ATOM
M  V30 1 F 4.246655 0.146602 4.591039 0
M  V30 2 C 3.558368 -0.541704 3.585356 0
M  V30 3 F 2.242829 -0.578307 3.987792 0
M  V30 4 F 4.017677 -1.832361 3.509285 0
M  V30 5 C 3.703116 0.201682 2.320629 0
M  V30 6 C 4.904599 0.322671 1.685012 0
M  V30 7 C 4.996568 1.034191 0.495560 0
M  V30 8 C 3.881174 1.619573 -0.047772 0
M  V30 9 C 2.634009 1.534676 0.545918 0
M  V30 10 N 1.437925 2.127119 0.031104 0
M  V30 11 C 0.220878 1.908999 0.753626 0
M  V30 12 N -0.285595 2.619930 1.777786 0
M  V30 13 C -1.459326 2.249464 2.325566 0
M  V30 14 C -2.135585 1.145032 1.834848 0
M  V30 15 C -1.629817 0.406021 0.785738 0
M  V30 16 C -2.303433 -0.778664 0.217677 0
M  V30 17 C -1.820071 -2.072761 0.130704 0
M  V30 18 C -0.519253 -2.551564 0.585597 0
M  V30 19 C 0.199748 -3.062942 -0.490411 0
M  V30 20 C 1.484128 -3.584714 -0.303836 0
M  V30 21 C 2.009133 -3.575200 0.971557 0
M  V30 22 Cl 3.612829 -4.216054 1.263740 0
M  V30 23 C 1.290059 -3.067450 2.028060 0
M  V30 24 C 0.020336 -2.549616 1.854610 0
M  V30 25 N -2.800474 -2.787103 -0.461792 0
M  V30 26 N -3.836609 -2.018984 -0.737284 0
M  V30 27 N -5.000964 -2.275791 -1.305258 0
M  V30 28 C -5.936936 -1.319249 -1.494035 0
M  V30 29 C -5.706618 -0.018085 -1.093660 0
M  V30 30 C -4.495370 0.270505 -0.497922 0
M  V30 31 C -3.578387 -0.755028 -0.333407 0
M  V30 32 N -0.454187 0.842052 0.296132 0
M  V30 33 C 2.626693 0.804314 1.734972 0
M  V30 34 H 5.796723 -0.131974 2.097965 0
M  V30 35 H 5.951932 1.138586 -0.022902 0
M  V30 36 H 3.945437 2.180663 -0.982451 0
M  V30 37 H 1.564470 2.679117 -0.848792 0
M  V30 38 H -1.846030 2.833245 3.145156 0
M  V30 39 H -3.079822 0.843536 2.271816 0
M  V30 40 H -0.107365 -3.122551 -1.528348 0
M  V30 41 H 2.095316 -3.997906 -1.100921 0
M  V30 42 H 1.646239 -3.034106 3.041137 0
M  V30 43 H -0.651043 -2.123216 2.586853 0
M  V30 44 H -6.877196 -1.591550 -1.967854 0
M  V30 45 H -6.411460 0.771021 -1.220029 0
M  V30 46 H -4.225996 1.262442 -0.151162 0
M  V30 47 H 1.664784 0.701167 2.254199 0
M  V30 END ATOM
M  V30 BEGIN BOND
M  V30 1 1 1 2
M  V30 2 1 2 3
M  V30 3 1 2 4
M  V30 4 1 2 5
M  V30 5 2 5 6
M  V30 6 1 6 7
M  V30 7 2 7 8
M  V30 8 1 8 9
M  V30 9 1 9 10
M  V30 10 1 10 11
M  V30 11 2 11 12
M  V30 12 1 12 13
M  V30 13 2 13 14
M  V30 14 1 14 15
M  V30 15 1 15 16
M  V30 16 1 16 17
M  V30 17 1 17 18
M  V30 18 2 18 19
M  V30 19 1 19 20
M  V30 20 2 20 21
M  V30 21 1 21 22
M  V30 22 1 21 23
M  V30 23 2 23 24
M  V30 24 2 17 25
M  V30 25 1 25 26
M  V30 26 1 26 27
M  V30 27 2 27 28
M  V30 28 1 28 29
M  V30 29 2 29 30
M  V30 30 1 30 31
M  V30 31 2 15 32
M  V30 32 2 9 33
M  V30 33 1 33 5
M  V30 34 1 32 11
M  V30 35 2 31 16
M  V30 36 1 24 18
M  V30 37 1 31 26
M  V30 38 1 6 34
M  V30 39 1 7 35
M  V30 40 1 8 36
M  V30 41 1 10 37
M  V30 42 1 13 38
M  V30 43 1 14 39
M  V30 44 1 19 40
M  V30 45 1 20 41
M  V30 46 1 23 42
M  V30 47 1 24 43
M  V30 48 1 28 44
M  V30 49 1 29 45
M  V30 50 1 30 46
M  V30 51 1 33 47
M  V30 END BOND
M  V30 END CTAB
M  END
>  <Dataset>  (779) 
ChEMBL_Kinases

>  <Ligand_Instance>  (779) 
nan

>  <PDB_ID>  (779) 
nan

>  <Standardized_SMILES>  (779) 
FC(F)(F)c1cccc(Nc2nccc(-c3c(-c4ccc(Cl)cc4)nn4ncccc34)n2)c1

>  <Name>  (779) 
nan

>  <Pocket>  (779) 
nan

>  <ATP_Site>  (779) 
nan

>  <Peripheral>  (779) 
nan

>  <Num_H_Atoms_ProtBoundConf>  (779) 
nan

>  <Num_Resolved_Atoms>  (779) 
nan

>  <Num_Not_Resolved_Atoms>  (779) 
nan

$$$$
CHEMBL3621515
     RDKit          3D

  0  0  0  0  0  0  0  0  0  0999 V3000
M  V30 BEGIN CTAB
M  V30 COUNTS 65 69 0 0 0
M  V30 BEGIN ATOM
M  V30 1 C 5.015147 -2.434666 0.189689 0
M  V30 2 C 4.271241 -1.276698 0.782375 0
M  V30 3 O 3.110403 -1.409570 1.298807 0
M  V30 4 N 4.740810 0.085408 0.849084 0
M  V30 5 C 3.678624 0.814961 1.501061 0
M  V30 6 C 3.838837 0.834133 2.866646 0
M  V30 7 C 2.941771 1.474637 3.730540 0
M  V30 8 C 1.867221 2.094490 3.085667 0
M  V30 9 C 1.697590 2.080693 1.715475 0
M  V30 10 C 0.583573 2.723140 1.060612 0
M  V30 11 C 0.708085 4.051344 0.672289 0
M  V30 12 C -0.309318 4.770804 0.030870 0
M  V30 13 C -1.455176 4.053412 -0.188002 0
M  V30 14 C -2.545251 4.768975 -0.856998 0
M  V30 15 N -3.851236 4.413634 -1.271789 0
M  V30 16 O -2.340452 5.989294 -1.162528 0
M  V30 17 C -1.637826 2.738759 0.172833 0
M  V30 18 N -2.684729 1.894400 0.034988 0
M  V30 19 C -2.342064 0.706060 0.562661 0
M  V30 20 C -3.062543 -0.468936 0.663176 0
M  V30 21 C -2.451924 -1.551893 1.261810 0
M  V30 22 C -3.061315 -2.879917 1.455121 0
M  V30 23 O -3.565953 -3.258932 2.542351 0
M  V30 24 N -3.015181 -3.678279 0.284433 0
M  V30 25 C -2.455004 -3.317310 -1.002043 0
M  V30 26 C -2.457983 -4.559367 -1.862153 0
M  V30 27 N -1.878819 -5.707690 -1.217547 0
M  V30 28 C -0.447990 -5.552961 -1.117880 0
M  V30 29 C -2.410076 -5.958108 0.101142 0
M  V30 30 C -3.592645 -5.022468 0.369132 0
M  V30 31 C -1.156874 -1.486291 1.754519 0
M  V30 32 C -0.428364 -0.297035 1.652790 0
M  V30 33 C -1.039122 0.774344 1.057776 0
M  V30 34 C -0.617016 2.058031 0.802804 0
M  V30 35 C 2.614308 1.432412 0.902718 0
M  V30 36 C 2.549239 1.345004 -0.561100 0
M  V30 37 H 6.047716 -2.456306 0.633825 0
M  V30 38 H 5.043445 -2.389576 -0.908455 0
M  V30 39 H 4.500421 -3.337103 0.586212 0
M  V30 40 H 5.686491 0.252659 0.440518 0
M  V30 41 H 4.666415 0.361745 3.420848 0
M  V30 42 H 3.055356 1.496589 4.792335 0
M  V30 43 H 1.144784 2.603333 3.708836 0
M  V30 44 H 1.636743 4.570363 0.870154 0
M  V30 45 H -0.143116 5.794651 -0.240500 0
M  V30 46 H -3.456467 3.823499 -2.057455 0
M  V30 47 H -4.704728 4.779884 -0.761920 0
M  V30 48 H -3.616618 2.092521 -0.399977 0
M  V30 49 H -4.058279 -0.611220 0.314462 0
M  V30 50 H -3.162495 -2.605502 -1.489800 0
M  V30 51 H -1.460050 -2.894053 -0.836776 0
M  V30 52 H -1.913801 -4.375154 -2.815213 0
M  V30 53 H -3.528677 -4.753031 -2.130303 0
M  V30 54 H -0.107844 -6.005986 -0.165107 0
M  V30 55 H -0.203055 -4.479012 -1.092152 0
M  V30 56 H 0.090904 -6.059080 -1.949353 0
M  V30 57 H -2.728974 -7.002327 0.262403 0
M  V30 58 H -1.640309 -5.684722 0.866472 0
M  V30 59 H -3.945939 -5.256817 1.390303 0
M  V30 60 H -4.400871 -5.186109 -0.342909 0
M  V30 61 H -0.641405 -2.326125 2.235236 0
M  V30 62 H 0.576527 -0.273354 2.043922 0
M  V30 63 H 2.211720 0.373001 -0.960882 0
M  V30 64 H 1.979445 2.207849 -1.017241 0
M  V30 65 H 3.581608 1.487765 -0.954022 0
M  V30 END ATOM
M  V30 BEGIN BOND
M  V30 1 1 1 2
M  V30 2 2 2 3
M  V30 3 1 2 4
M  V30 4 1 4 5
M  V30 5 2 5 6
M  V30 6 1 6 7
M  V30 7 2 7 8
M  V30 8 1 8 9
M  V30 9 1 9 10
M  V30 10 2 10 11
M  V30 11 1 11 12
M  V30 12 2 12 13
M  V30 13 1 13 14
M  V30 14 1 14 15
M  V30 15 2 14 16
M  V30 16 1 13 17
M  V30 17 1 17 18
M  V30 18 1 18 19
M  V30 19 2 19 20
M  V30 20 1 20 21
M  V30 21 1 21 22
M  V30 22 2 22 23
M  V30 23 1 22 24
M  V30 24 1 24 25
M  V30 25 1 25 26
M  V30 26 1 26 27
M  V30 27 1 27 28
M  V30 28 1 27 29
M  V30 29 1 29 30
M  V30 30 2 21 31
M  V30 31 1 31 32
M  V30 32 2 32 33
M  V30 33 1 33 34
M  V30 34 2 9 35
M  V30 35 1 35 36
M  V30 36 1 35 5
M  V30 37 1 34 10
M  V30 38 2 34 17
M  V30 39 1 33 19
M  V30 40 1 30 24
M  V30 41 1 1 37
M  V30 42 1 1 38
M  V30 43 1 1 39
M  V30 44 1 4 40
M  V30 45 1 6 41
M  V30 46 1 7 42
M  V30 47 1 8 43
M  V30 48 1 11 44
M  V30 49 1 12 45
M  V30 50 1 15 46
M  V30 51 1 15 47
M  V30 52 1 18 48
M  V30 53 1 20 49
M  V30 54 1 25 50
M  V30 55 1 25 51
M  V30 56 1 26 52
M  V30 57 1 26 53
M  V30 58 1 28 54
M  V30 59 1 28 55
M  V30 60 1 28 56
M  V30 61 1 29 57
M  V30 62 1 29 58
M  V30 63 1 30 59
M  V30 64 1 30 60
M  V30 65 1 31 61
M  V30 66 1 32 62
M  V30 67 1 36 63
M  V30 68 1 36 64
M  V30 69 1 36 65
M  V30 END BOND
M  V30 END CTAB
M  END
>  <Dataset>  (780) 
ChEMBL_Kinases

>  <Ligand_Instance>  (780) 
nan

>  <PDB_ID>  (780) 
nan

>  <Standardized_SMILES>  (780) 
CC(=O)Nc1cccc(-c2ccc(C(N)=O)c3[nH]c4cc(C(=O)N5CCN(C)CC5)ccc4c23)c1C

>  <Name>  (780) 
nan

>  <Pocket>  (780) 
nan

>  <ATP_Site>  (780) 
nan

>  <Peripheral>  (780) 
nan

>  <Num_H_Atoms_ProtBoundConf>  (780) 
nan

>  <Num_Resolved_Atoms>  (780) 
nan

>  <Num_Not_Resolved_Atoms>  (780) 
nan

$$$$
CHEMBL3618297
     RDKit          3D

  0  0  0  0  0  0  0  0  0  0999 V3000
M  V30 BEGIN CTAB
M  V30 COUNTS 44 47 0 0 0
M  V30 BEGIN ATOM
M  V30 1 C 1.210434 -4.839395 1.446207 0
M  V30 2 C 1.464097 -4.163215 0.119747 0
M  V30 3 C 1.095423 -2.785754 0.050016 0
M  V30 4 O -0.110433 -2.886678 -0.265634 0
M  V30 5 C 1.675393 -1.462013 0.224256 0
M  V30 6 C 2.939163 -1.334401 0.584982 0
M  V30 7 C 3.931943 -2.397882 0.866145 0
M  V30 8 N 3.414461 0.001438 0.686118 0
M  V30 9 C 2.680509 0.989450 0.446764 0
M  V30 10 S 3.069102 2.735085 0.510050 0
M  V30 11 C 1.416232 3.209534 -0.081417 0
M  V30 12 C 1.050269 4.511061 -0.300198 0
M  V30 13 C -0.226883 4.791914 -0.723481 0
M  V30 14 C -1.043144 3.720212 -0.894086 0
M  V30 15 C -0.641129 2.426446 -0.665118 0
M  V30 16 C 0.627382 2.092431 -0.240877 0
M  V30 17 N 1.330965 0.898429 0.052131 0
M  V30 18 C 0.677881 -0.391444 -0.040482 0
M  V30 19 C -0.483362 -0.476755 0.882631 0
M  V30 20 C -0.095625 -0.158981 2.192520 0
M  V30 21 C -1.019351 -0.161329 3.220595 0
M  V30 22 C -2.339273 -0.469196 3.015358 0
M  V30 23 C -2.699877 -0.777928 1.722691 0
M  V30 24 N -4.035699 -1.111024 1.396875 0 CHG=1 VAL=4
M  V30 25 O -4.893288 -1.126107 2.283004 0
M  V30 26 O -4.397003 -1.417581 0.115842 0 CHG=-1 VAL=1
M  V30 27 C -1.810380 -0.786851 0.669932 0
M  V30 28 H 1.833399 -5.716669 1.635060 0
M  V30 29 H 0.140389 -5.169413 1.564039 0
M  V30 30 H 1.460969 -4.102484 2.240211 0
M  V30 31 H 0.948766 -4.791048 -0.657965 0
M  V30 32 H 2.544878 -4.323123 -0.128124 0
M  V30 33 H 4.785676 -1.942295 1.428258 0
M  V30 34 H 3.574554 -3.189033 1.552541 0
M  V30 35 H 4.341449 -2.884481 -0.037245 0
M  V30 36 H 1.720743 5.339749 -0.156771 0
M  V30 37 H -0.596036 5.769643 -0.917324 0
M  V30 38 H -2.065320 3.899000 -1.228944 0
M  V30 39 H -1.380394 1.651445 -0.835484 0
M  V30 40 H 0.263554 -0.540721 -1.061593 0
M  V30 41 H 0.916426 0.111361 2.538567 0
M  V30 42 H -0.757648 0.081369 4.259422 0
M  V30 43 H -3.109628 -0.489418 3.774227 0
M  V30 44 H -2.011700 -1.004171 -0.365856 0
M  V30 END ATOM
M  V30 BEGIN BOND
M  V30 1 1 1 2
M  V30 2 1 2 3
M  V30 3 2 3 4
M  V30 4 1 3 5
M  V30 5 2 5 6
M  V30 6 1 6 7
M  V30 7 1 6 8
M  V30 8 2 8 9
M  V30 9 1 9 10
M  V30 10 1 10 11
M  V30 11 2 11 12
M  V30 12 1 12 13
M  V30 13 2 13 14
M  V30 14 1 14 15
M  V30 15 2 15 16
M  V30 16 1 16 17
M  V30 17 1 17 18
M  V30 18 1 18 19
M  V30 19 2 19 20
M  V30 20 1 20 21
M  V30 21 2 21 22
M  V30 22 1 22 23
M  V30 23 1 23 24
M  V30 24 2 24 25
M  V30 25 1 24 26
M  V30 26 2 23 27
M  V30 27 1 18 5
M  V30 28 1 27 19
M  V30 29 1 17 9
M  V30 30 1 16 11
M  V30 31 1 1 28
M  V30 32 1 1 29
M  V30 33 1 1 30
M  V30 34 1 2 31
M  V30 35 1 2 32
M  V30 36 1 7 33
M  V30 37 1 7 34
M  V30 38 1 7 35
M  V30 39 1 12 36
M  V30 40 1 13 37
M  V30 41 1 14 38
M  V30 42 1 15 39
M  V30 43 1 18 40
M  V30 44 1 20 41
M  V30 45 1 21 42
M  V30 46 1 22 43
M  V30 47 1 27 44
M  V30 END BOND
M  V30 END CTAB
M  END
>  <Dataset>  (781) 
ChEMBL_Kinases

>  <Ligand_Instance>  (781) 
nan

>  <PDB_ID>  (781) 
nan

>  <Standardized_SMILES>  (781) 
CCC(=O)C1=C(C)N=C2Sc3ccccc3N2C1c1cccc([N+](=O)[O-])c1

>  <Name>  (781) 
nan

>  <Pocket>  (781) 
nan

>  <ATP_Site>  (781) 
nan

>  <Peripheral>  (781) 
nan

>  <Num_H_Atoms_ProtBoundConf>  (781) 
nan

>  <Num_Resolved_Atoms>  (781) 
nan

>  <Num_Not_Resolved_Atoms>  (781) 
nan

$$$$
CHEMBL3640041
     RDKit          3D

  0  0  0  0  0  0  0  0  0  0999 V3000
M  V30 BEGIN CTAB
M  V30 COUNTS 64 67 0 0 0
M  V30 BEGIN ATOM
M  V30 1 C 5.273631 3.368181 4.916350 0
M  V30 2 C 5.423473 1.859097 4.957083 0
M  V30 3 C 5.297178 1.371982 6.384821 0
M  V30 4 C 6.776454 1.526101 4.440640 0
M  V30 5 O 4.368654 1.302293 4.212164 0
M  V30 6 C 4.161839 1.563738 2.865010 0
M  V30 7 O 4.935913 2.337774 2.225843 0
M  V30 8 N 3.010043 0.861922 2.357698 0
M  V30 9 C 2.045924 -0.040539 2.955868 0
M  V30 10 C 1.750099 -0.967715 1.800943 0
M  V30 11 C 1.540522 0.032932 0.689920 0
M  V30 12 N 0.242283 0.662227 0.870457 0
M  V30 13 C -0.748317 0.612767 -0.177520 0
M  V30 14 O -0.506120 0.023452 -1.264602 0
M  V30 15 N -2.016049 1.220697 -0.019739 0
M  V30 16 C -3.034820 1.187931 -1.056448 0
M  V30 17 C -3.446277 -0.193552 -1.414641 0
M  V30 18 C -3.124775 -0.954337 -2.518199 0
M  V30 19 N -3.619063 -2.198116 -2.637580 0
M  V30 20 C -3.244616 -2.923788 -3.802852 0
M  V30 21 C -2.213842 -3.841674 -3.800473 0
M  V30 22 C -1.864507 -4.540108 -4.948668 0
M  V30 23 C -2.625004 -4.238051 -6.063185 0
M  V30 24 C -3.666526 -3.330996 -6.125923 0
M  V30 25 C -3.978697 -2.654475 -4.944520 0
M  V30 26 C -4.425552 -2.711878 -1.691574 0
M  V30 27 C -4.910298 -3.994903 -1.855300 0
M  V30 28 C -5.745903 -4.589717 -0.921658 0
M  V30 29 Cl -6.392344 -6.210149 -1.070399 0
M  V30 30 C -6.115819 -3.883664 0.220599 0
M  V30 31 C -5.625980 -2.601977 0.375122 0
M  V30 32 C -4.794856 -2.014180 -0.556279 0
M  V30 33 C -4.281977 -0.730280 -0.437624 0
M  V30 34 O -4.662417 -0.144649 0.631331 0
M  V30 35 C 2.649199 1.023664 0.963636 0
M  V30 36 H 5.985122 3.796272 4.183323 0
M  V30 37 H 5.514366 3.756141 5.941603 0
M  V30 38 H 4.239957 3.632157 4.625686 0
M  V30 39 H 4.636525 2.080582 6.916088 0
M  V30 40 H 4.746701 0.387872 6.376787 0
M  V30 41 H 6.255594 1.265274 6.904968 0
M  V30 42 H 7.427345 1.256717 5.296534 0
M  V30 43 H 6.804992 0.660860 3.737319 0
M  V30 44 H 7.296310 2.420998 3.987415 0
M  V30 45 H 1.124682 0.511445 3.200756 0
M  V30 46 H 2.465515 -0.580203 3.828942 0
M  V30 47 H 2.635012 -1.602266 1.593679 0
M  V30 48 H 0.857900 -1.595189 1.981379 0
M  V30 49 H 1.630125 -0.429560 -0.312968 0
M  V30 50 H -0.071342 1.175011 1.717251 0
M  V30 51 H -2.237661 1.718062 0.881039 0
M  V30 52 H -2.638688 1.644955 -1.989007 0
M  V30 53 H -3.908298 1.797117 -0.761448 0
M  V30 54 H -2.471981 -0.433046 -3.204016 0
M  V30 55 H -1.656486 -4.030672 -2.889314 0
M  V30 56 H -1.070039 -5.265775 -5.000033 0
M  V30 57 H -2.355784 -4.784939 -6.973750 0
M  V30 58 H -4.188077 -3.180990 -7.059323 0
M  V30 59 H -4.796129 -1.955237 -5.029586 0
M  V30 60 H -4.664866 -4.604974 -2.719361 0
M  V30 61 H -6.769453 -4.268554 1.010250 0
M  V30 62 H -5.899341 -2.033535 1.254260 0
M  V30 63 H 2.332104 2.069916 0.739718 0
M  V30 64 H 3.554903 0.816169 0.335223 0
M  V30 END ATOM
M  V30 BEGIN BOND
M  V30 1 1 1 2
M  V30 2 1 2 3
M  V30 3 1 2 4
M  V30 4 1 2 5
M  V30 5 1 5 6
M  V30 6 2 6 7
M  V30 7 1 6 8
M  V30 8 1 8 9
M  V30 9 1 9 10
M  V30 10 1 10 11
M  V30 11 1 11 12
M  V30 12 1 12 13
M  V30 13 2 13 14
M  V30 14 1 13 15
M  V30 15 1 15 16
M  V30 16 1 16 17
M  V30 17 2 17 18
M  V30 18 1 18 19
M  V30 19 1 19 20
M  V30 20 2 20 21
M  V30 21 1 21 22
M  V30 22 2 22 23
M  V30 23 1 23 24
M  V30 24 2 24 25
M  V30 25 1 19 26
M  V30 26 2 26 27
M  V30 27 1 27 28
M  V30 28 1 28 29
M  V30 29 2 28 30
M  V30 30 1 30 31
M  V30 31 2 31 32
M  V30 32 1 32 33
M  V30 33 2 33 34
M  V30 34 1 11 35
M  V30 35 1 35 8
M  V30 36 1 33 17
M  V30 37 1 25 20
M  V30 38 1 32 26
M  V30 39 1 1 36
M  V30 40 1 1 37
M  V30 41 1 1 38
M  V30 42 1 3 39
M  V30 43 1 3 40
M  V30 44 1 3 41
M  V30 45 1 4 42
M  V30 46 1 4 43
M  V30 47 1 4 44
M  V30 48 1 9 45
M  V30 49 1 9 46
M  V30 50 1 10 47
M  V30 51 1 10 48
M  V30 52 1 11 49
M  V30 53 1 12 50
M  V30 54 1 15 51
M  V30 55 1 16 52
M  V30 56 1 16 53
M  V30 57 1 18 54
M  V30 58 1 21 55
M  V30 59 1 22 56
M  V30 60 1 23 57
M  V30 61 1 24 58
M  V30 62 1 25 59
M  V30 63 1 27 60
M  V30 64 1 30 61
M  V30 65 1 31 62
M  V30 66 1 35 63
M  V30 67 1 35 64
M  V30 END BOND
M  V30 END CTAB
M  END
>  <Dataset>  (782) 
ChEMBL_Kinases

>  <Ligand_Instance>  (782) 
nan

>  <PDB_ID>  (782) 
nan

>  <Standardized_SMILES>  (782) 
CC(C)(C)OC(=O)N1CCC(NC(=O)NCc2cn(-c3ccccc3)c3cc(Cl)ccc3c2=O)C1

>  <Name>  (782) 
nan

>  <Pocket>  (782) 
nan

>  <ATP_Site>  (782) 
nan

>  <Peripheral>  (782) 
nan

>  <Num_H_Atoms_ProtBoundConf>  (782) 
nan

>  <Num_Resolved_Atoms>  (782) 
nan

>  <Num_Not_Resolved_Atoms>  (782) 
nan

$$$$
CHEMBL3640040
     RDKit          3D

  0  0  0  0  0  0  0  0  0  0999 V3000
M  V30 BEGIN CTAB
M  V30 COUNTS 70 73 0 0 0
M  V30 BEGIN ATOM
M  V30 1 C 0.790963 -5.574438 3.323846 0
M  V30 2 C 1.457829 -5.749399 1.959306 0
M  V30 3 C 2.925149 -6.028425 2.181863 0
M  V30 4 C 0.794084 -6.975052 1.344766 0
M  V30 5 O 1.202050 -4.589729 1.230813 0
M  V30 6 C 1.648696 -4.372054 -0.066811 0
M  V30 7 O 2.311639 -5.359588 -0.490283 0
M  V30 8 N 1.416262 -3.203975 -0.860589 0
M  V30 9 C 1.950114 -3.128785 -2.200093 0 CFG=1
M  V30 10 C 0.913745 -3.048972 -3.277656 0
M  V30 11 C 0.929810 -1.679581 -3.963952 0
M  V30 12 C 1.100258 -0.656787 -2.869506 0 CFG=2
M  V30 13 N 0.703210 0.674136 -3.272973 0
M  V30 14 C -0.410232 1.302857 -2.656019 0
M  V30 15 O -1.038412 0.683310 -1.759047 0
M  V30 16 N -0.902232 2.612074 -2.964596 0
M  V30 17 C -2.036647 3.205381 -2.310393 0
M  V30 18 C -1.873889 3.355305 -0.840640 0
M  V30 19 C -2.544624 2.461974 -0.018918 0
M  V30 20 N -2.449596 2.531141 1.320404 0
M  V30 21 C -3.104042 1.654228 2.236355 0
M  V30 22 C -2.469182 0.431435 2.307710 0
M  V30 23 C -2.973149 -0.554969 3.156925 0
M  V30 24 C -4.097277 -0.280667 3.905770 0
M  V30 25 C -4.741466 0.958003 3.834272 0
M  V30 26 C -4.228434 1.917399 2.990526 0
M  V30 27 C -1.687184 3.486698 1.904770 0
M  V30 28 C -1.542292 3.619528 3.264192 0
M  V30 29 C -0.759167 4.604169 3.796439 0
M  V30 30 Cl -0.664281 4.658016 5.542936 0
M  V30 31 C -0.078235 5.509245 3.007038 0
M  V30 32 C -0.227804 5.370612 1.640299 0
M  V30 33 C -1.014050 4.382107 1.106216 0
M  V30 34 C -1.088113 4.341419 -0.273382 0
M  V30 35 O -0.526644 5.094348 -1.090520 0
M  V30 36 C 2.475256 -0.662300 -2.256656 0
M  V30 37 C 3.013584 -2.070456 -2.335057 0
M  V30 38 H -0.301045 -5.726678 3.143341 0
M  V30 39 H 1.118194 -6.363709 4.026588 0
M  V30 40 H 0.966439 -4.566275 3.750435 0
M  V30 41 H 3.485615 -5.116804 2.403890 0
M  V30 42 H 3.355191 -6.622573 1.352114 0
M  V30 43 H 2.979459 -6.690950 3.083154 0
M  V30 44 H 0.638472 -6.835461 0.256051 0
M  V30 45 H 1.388435 -7.866846 1.603439 0
M  V30 46 H -0.230722 -7.139737 1.762338 0
M  V30 47 H 0.851579 -2.530458 -0.306907 0
M  V30 48 H 2.498037 -4.103991 -2.345664 0
M  V30 49 H -0.069833 -3.195144 -2.773839 0
M  V30 50 H 1.042123 -3.850090 -4.002078 0
M  V30 51 H 1.762400 -1.587648 -4.662544 0
M  V30 52 H -0.073137 -1.561861 -4.421096 0
M  V30 53 H 0.387781 -0.973551 -2.063564 0
M  V30 54 H 1.199381 1.220526 -4.013604 0
M  V30 55 H -0.342272 3.099437 -3.726638 0
M  V30 56 H -2.126696 4.243452 -2.721509 0
M  V30 57 H -2.989267 2.691326 -2.542814 0
M  V30 58 H -3.173795 1.667982 -0.338464 0
M  V30 59 H -1.590496 0.103629 1.774960 0
M  V30 60 H -2.524260 -1.549858 3.267661 0
M  V30 61 H -4.504743 -1.028286 4.569760 0
M  V30 62 H -5.619890 1.201728 4.405698 0
M  V30 63 H -4.648730 2.924345 2.852010 0
M  V30 64 H -2.081400 2.902973 3.885707 0
M  V30 65 H 0.530764 6.271356 3.509915 0
M  V30 66 H 0.302797 6.076275 1.009980 0
M  V30 67 H 3.155741 0.073001 -2.729248 0
M  V30 68 H 2.364890 -0.316769 -1.202235 0
M  V30 69 H 3.740999 -2.184541 -1.486222 0
M  V30 70 H 3.614062 -2.217327 -3.249462 0
M  V30 END ATOM
M  V30 BEGIN BOND
M  V30 1 1 1 2
M  V30 2 1 2 3
M  V30 3 1 2 4
M  V30 4 1 2 5
M  V30 5 1 5 6
M  V30 6 2 6 7
M  V30 7 1 6 8
M  V30 8 1 8 9
M  V30 9 1 9 10
M  V30 10 1 10 11
M  V30 11 1 11 12
M  V30 12 1 12 13
M  V30 13 1 13 14
M  V30 14 2 14 15
M  V30 15 1 14 16
M  V30 16 1 16 17
M  V30 17 1 17 18
M  V30 18 2 18 19
M  V30 19 1 19 20
M  V30 20 1 20 21
M  V30 21 2 21 22
M  V30 22 1 22 23
M  V30 23 2 23 24
M  V30 24 1 24 25
M  V30 25 2 25 26
M  V30 26 1 20 27
M  V30 27 2 27 28
M  V30 28 1 28 29
M  V30 29 1 29 30
M  V30 30 2 29 31
M  V30 31 1 31 32
M  V30 32 2 32 33
M  V30 33 1 33 34
M  V30 34 2 34 35
M  V30 35 1 12 36
M  V30 36 1 36 37
M  V30 37 1 37 9
M  V30 38 1 34 18
M  V30 39 1 26 21
M  V30 40 1 33 27
M  V30 41 1 1 38
M  V30 42 1 1 39
M  V30 43 1 1 40
M  V30 44 1 3 41
M  V30 45 1 3 42
M  V30 46 1 3 43
M  V30 47 1 4 44
M  V30 48 1 4 45
M  V30 49 1 4 46
M  V30 50 1 8 47
M  V30 51 1 9 48 CFG=3
M  V30 52 1 10 49
M  V30 53 1 10 50
M  V30 54 1 11 51
M  V30 55 1 11 52
M  V30 56 1 12 53 CFG=1
M  V30 57 1 13 54
M  V30 58 1 16 55
M  V30 59 1 17 56
M  V30 60 1 17 57
M  V30 61 1 19 58
M  V30 62 1 22 59
M  V30 63 1 23 60
M  V30 64 1 24 61
M  V30 65 1 25 62
M  V30 66 1 26 63
M  V30 67 1 28 64
M  V30 68 1 31 65
M  V30 69 1 32 66
M  V30 70 1 36 67
M  V30 71 1 36 68
M  V30 72 1 37 69
M  V30 73 1 37 70
M  V30 END BOND
M  V30 END CTAB
M  END
>  <Dataset>  (783) 
ChEMBL_Kinases

>  <Ligand_Instance>  (783) 
nan

>  <PDB_ID>  (783) 
nan

>  <Standardized_SMILES>  (783) 
CC(C)(C)OC(=O)N[C@H]1CC[C@H](NC(=O)NCc2cn(-c3ccccc3)c3cc(Cl)ccc3c2=O)CC1

>  <Name>  (783) 
nan

>  <Pocket>  (783) 
nan

>  <ATP_Site>  (783) 
nan

>  <Peripheral>  (783) 
nan

>  <Num_H_Atoms_ProtBoundConf>  (783) 
nan

>  <Num_Resolved_Atoms>  (783) 
nan

>  <Num_Not_Resolved_Atoms>  (783) 
nan

$$$$
CHEMBL3640039
     RDKit          3D

  0  0  0  0  0  0  0  0  0  0999 V3000
M  V30 BEGIN CTAB
M  V30 COUNTS 70 73 0 0 0
M  V30 BEGIN ATOM
M  V30 1 C 6.362550 -6.313235 -1.020928 0
M  V30 2 C 5.275901 -6.180025 -2.059576 0
M  V30 3 C 5.926499 -5.533741 -3.285315 0
M  V30 4 C 4.829734 -7.556493 -2.465445 0
M  V30 5 O 4.218312 -5.374116 -1.585670 0
M  V30 6 C 3.079017 -5.059277 -2.297411 0
M  V30 7 O 2.922725 -5.500272 -3.465893 0
M  V30 8 N 2.143657 -4.220583 -1.597497 0
M  V30 9 C 0.880567 -3.766480 -2.157819 0 CFG=1
M  V30 10 C -0.220962 -4.254838 -1.270794 0
M  V30 11 C -0.281701 -3.377482 -0.040921 0
M  V30 12 C -0.656552 -1.951730 -0.329097 0 CFG=1
M  V30 13 N 0.144348 -0.997872 0.393206 0
M  V30 14 C -0.357994 -0.081176 1.360221 0
M  V30 15 O -1.576332 -0.113137 1.587502 0
M  V30 16 N 0.560472 0.804106 1.999258 0
M  V30 17 C 0.101346 1.730818 2.977763 0
M  V30 18 C -0.887655 2.712213 2.551556 0
M  V30 19 C -2.236044 2.570222 2.906846 0
M  V30 20 N -3.232153 3.438230 2.560015 0
M  V30 21 C -4.560216 3.170663 2.987758 0
M  V30 22 C -4.642361 3.109179 4.363464 0
M  V30 23 C -5.861605 2.852127 4.993805 0
M  V30 24 C -7.011187 2.655210 4.220442 0
M  V30 25 C -6.882635 2.725094 2.849681 0
M  V30 26 C -5.685729 2.978129 2.215797 0
M  V30 27 C -2.906858 4.522064 1.817576 0
M  V30 28 C -3.877738 5.427284 1.444755 0
M  V30 29 C -3.597909 6.553297 0.686581 0
M  V30 30 Cl -4.786411 7.724098 0.190134 0
M  V30 31 C -2.271163 6.764012 0.292811 0
M  V30 32 C -1.289447 5.862624 0.661013 0
M  V30 33 C -1.582765 4.741090 1.419005 0
M  V30 34 C -0.599429 3.830795 1.794228 0
M  V30 35 O 0.593630 4.017759 1.441651 0
M  V30 36 C -0.469788 -1.698705 -1.801623 0
M  V30 37 C 0.847420 -2.264021 -2.233740 0
M  V30 38 H 5.895431 -6.309777 -0.009190 0
M  V30 39 H 6.888303 -7.266441 -1.123443 0
M  V30 40 H 7.034145 -5.412224 -1.054293 0
M  V30 41 H 6.082264 -4.455568 -3.110374 0
M  V30 42 H 5.257575 -5.722546 -4.135508 0
M  V30 43 H 6.877439 -6.079113 -3.458301 0
M  V30 44 H 3.726809 -7.686205 -2.372843 0
M  V30 45 H 5.177323 -7.820680 -3.490987 0
M  V30 46 H 5.283137 -8.298013 -1.790811 0
M  V30 47 H 2.329246 -3.888166 -0.632349 0
M  V30 48 H 0.806933 -4.155278 -3.195096 0
M  V30 49 H 0.111301 -5.260038 -0.894460 0
M  V30 50 H -1.187084 -4.389098 -1.782175 0
M  V30 51 H 0.680703 -3.496903 0.481542 0
M  V30 52 H -1.054640 -3.868535 0.621536 0
M  V30 53 H -1.743941 -1.848923 -0.083383 0
M  V30 54 H 1.168348 -0.978982 0.191882 0
M  V30 55 H 1.589629 0.772791 1.745083 0
M  V30 56 H -0.336540 1.113056 3.818192 0
M  V30 57 H 0.987256 2.218173 3.481498 0
M  V30 58 H -2.466943 1.690427 3.502555 0
M  V30 59 H -3.863319 3.237995 5.087470 0
M  V30 60 H -6.015625 2.787528 6.062327 0
M  V30 61 H -7.971982 2.452675 4.707433 0
M  V30 62 H -7.738117 2.580721 2.216330 0
M  V30 63 H -5.528053 3.042336 1.154591 0
M  V30 64 H -4.896208 5.272465 1.744872 0
M  V30 65 H -1.988754 7.631519 -0.303826 0
M  V30 66 H -0.242194 6.001574 0.366938 0
M  V30 67 H -0.443403 -0.592686 -2.008577 0
M  V30 68 H -1.323153 -2.065070 -2.407873 0
M  V30 69 H 1.141225 -1.904375 -3.262131 0
M  V30 70 H 1.633112 -1.882789 -1.551459 0
M  V30 END ATOM
M  V30 BEGIN BOND
M  V30 1 1 1 2
M  V30 2 1 2 3
M  V30 3 1 2 4
M  V30 4 1 2 5
M  V30 5 1 5 6
M  V30 6 2 6 7
M  V30 7 1 6 8
M  V30 8 1 8 9
M  V30 9 1 9 10
M  V30 10 1 10 11
M  V30 11 1 11 12
M  V30 12 1 12 13
M  V30 13 1 13 14
M  V30 14 2 14 15
M  V30 15 1 14 16
M  V30 16 1 16 17
M  V30 17 1 17 18
M  V30 18 2 18 19
M  V30 19 1 19 20
M  V30 20 1 20 21
M  V30 21 2 21 22
M  V30 22 1 22 23
M  V30 23 2 23 24
M  V30 24 1 24 25
M  V30 25 2 25 26
M  V30 26 1 20 27
M  V30 27 2 27 28
M  V30 28 1 28 29
M  V30 29 1 29 30
M  V30 30 2 29 31
M  V30 31 1 31 32
M  V30 32 2 32 33
M  V30 33 1 33 34
M  V30 34 2 34 35
M  V30 35 1 12 36
M  V30 36 1 36 37
M  V30 37 1 37 9
M  V30 38 1 34 18
M  V30 39 1 26 21
M  V30 40 1 33 27
M  V30 41 1 1 38
M  V30 42 1 1 39
M  V30 43 1 1 40
M  V30 44 1 3 41
M  V30 45 1 3 42
M  V30 46 1 3 43
M  V30 47 1 4 44
M  V30 48 1 4 45
M  V30 49 1 4 46
M  V30 50 1 8 47
M  V30 51 1 9 48 CFG=3
M  V30 52 1 10 49
M  V30 53 1 10 50
M  V30 54 1 11 51
M  V30 55 1 11 52
M  V30 56 1 12 53 CFG=1
M  V30 57 1 13 54
M  V30 58 1 16 55
M  V30 59 1 17 56
M  V30 60 1 17 57
M  V30 61 1 19 58
M  V30 62 1 22 59
M  V30 63 1 23 60
M  V30 64 1 24 61
M  V30 65 1 25 62
M  V30 66 1 26 63
M  V30 67 1 28 64
M  V30 68 1 31 65
M  V30 69 1 32 66
M  V30 70 1 36 67
M  V30 71 1 36 68
M  V30 72 1 37 69
M  V30 73 1 37 70
M  V30 END BOND
M  V30 END CTAB
M  END
>  <Dataset>  (784) 
ChEMBL_Kinases

>  <Ligand_Instance>  (784) 
nan

>  <PDB_ID>  (784) 
nan

>  <Standardized_SMILES>  (784) 
CC(C)(C)OC(=O)N[C@H]1CC[C@@H](NC(=O)NCc2cn(-c3ccccc3)c3cc(Cl)ccc3c2=O)CC1

>  <Name>  (784) 
nan

>  <Pocket>  (784) 
nan

>  <ATP_Site>  (784) 
nan

>  <Peripheral>  (784) 
nan

>  <Num_H_Atoms_ProtBoundConf>  (784) 
nan

>  <Num_Resolved_Atoms>  (784) 
nan

>  <Num_Not_Resolved_Atoms>  (784) 
nan

$$$$
CHEMBL3640035
     RDKit          3D

  0  0  0  0  0  0  0  0  0  0999 V3000
M  V30 BEGIN CTAB
M  V30 COUNTS 36 39 0 0 0
M  V30 BEGIN ATOM
M  V30 1 C 0.576642 -4.555532 2.539115 0
M  V30 2 C 1.338707 -3.342819 2.152742 0
M  V30 3 C 2.164006 -2.715379 3.059618 0
M  V30 4 C 2.909292 -1.581110 2.781725 0
M  V30 5 C 2.819719 -1.045440 1.516679 0
M  V30 6 C 1.982586 -1.704289 0.640104 0
M  V30 7 N 1.866560 -1.181262 -0.676698 0
M  V30 8 N 2.707761 -1.537761 -1.655031 0
M  V30 9 C 2.357892 -0.889521 -2.779822 0
M  V30 10 C 1.245660 -0.096664 -2.471191 0
M  V30 11 C 0.554634 0.775320 -3.441159 0
M  V30 12 C 0.960473 -0.302624 -1.138305 0
M  V30 13 C -0.099231 0.303047 -0.386662 0
M  V30 14 C -0.551679 0.256347 0.871321 0
M  V30 15 C -1.634550 1.001201 1.252829 0
M  V30 16 C -2.249963 1.094892 2.481359 0
M  V30 17 N -3.296690 1.879225 2.652623 0
M  V30 18 C -3.891019 2.655197 1.735048 0
M  V30 19 C -3.326302 2.610605 0.480709 0
M  V30 20 C -2.225896 1.797307 0.266107 0
M  V30 21 S -1.213219 1.454603 -1.176815 0
M  V30 22 N 1.246637 -2.822153 0.910274 0
M  V30 23 H -0.301786 -4.198300 3.129350 0
M  V30 24 H 0.246414 -5.107581 1.635095 0
M  V30 25 H 1.201608 -5.236081 3.171032 0
M  V30 26 H 2.265658 -3.100748 4.065269 0
M  V30 27 H 3.548801 -1.099641 3.493570 0
M  V30 28 H 3.350671 -0.167930 1.184509 0
M  V30 29 H 2.832371 -0.952325 -3.755302 0
M  V30 30 H 1.154031 0.877491 -4.365965 0
M  V30 31 H -0.441325 0.370121 -3.743957 0
M  V30 32 H 0.465516 1.830789 -3.057507 0
M  V30 33 H 0.000995 -0.400700 1.526493 0
M  V30 34 H -1.938873 0.550679 3.385366 0
M  V30 35 H -4.748417 3.292486 1.891229 0
M  V30 36 H -3.664017 3.161681 -0.378770 0
M  V30 END ATOM
M  V30 BEGIN BOND
M  V30 1 1 1 2
M  V30 2 2 2 3
M  V30 3 1 3 4
M  V30 4 2 4 5
M  V30 5 1 5 6
M  V30 6 1 6 7
M  V30 7 1 7 8
M  V30 8 2 8 9
M  V30 9 1 9 10
M  V30 10 1 10 11
M  V30 11 2 10 12
M  V30 12 1 12 13
M  V30 13 2 13 14
M  V30 14 1 14 15
M  V30 15 2 15 16
M  V30 16 1 16 17
M  V30 17 2 17 18
M  V30 18 1 18 19
M  V30 19 2 19 20
M  V30 20 1 20 21
M  V30 21 2 6 22
M  V30 22 1 22 2
M  V30 23 1 12 7
M  V30 24 1 21 13
M  V30 25 1 20 15
M  V30 26 1 1 23
M  V30 27 1 1 24
M  V30 28 1 1 25
M  V30 29 1 3 26
M  V30 30 1 4 27
M  V30 31 1 5 28
M  V30 32 1 9 29
M  V30 33 1 11 30
M  V30 34 1 11 31
M  V30 35 1 11 32
M  V30 36 1 14 33
M  V30 37 1 16 34
M  V30 38 1 18 35
M  V30 39 1 19 36
M  V30 END BOND
M  V30 END CTAB
M  END
>  <Dataset>  (785) 
ChEMBL_Kinases

>  <Ligand_Instance>  (785) 
nan

>  <PDB_ID>  (785) 
nan

>  <Standardized_SMILES>  (785) 
Cc1cccc(-n2ncc(C)c2-c2cc3cnccc3s2)n1

>  <Name>  (785) 
nan

>  <Pocket>  (785) 
nan

>  <ATP_Site>  (785) 
nan

>  <Peripheral>  (785) 
nan

>  <Num_H_Atoms_ProtBoundConf>  (785) 
nan

>  <Num_Resolved_Atoms>  (785) 
nan

>  <Num_Not_Resolved_Atoms>  (785) 
nan

$$$$
CHEMBL3640011
     RDKit          3D

  0  0  0  0  0  0  0  0  0  0999 V3000
M  V30 BEGIN CTAB
M  V30 COUNTS 58 60 0 0 0
M  V30 BEGIN ATOM
M  V30 1 C -0.207075 -0.678765 0.239121 0
M  V30 2 C -1.062790 -1.287376 1.327528 0
M  V30 3 C -0.692182 -1.175452 2.631252 0
M  V30 4 C 0.487471 -0.534330 3.160860 0
M  V30 5 O 1.468005 0.049309 2.736889 0
M  V30 6 N 0.615889 -0.546766 4.604658 0
M  V30 7 C 1.551686 -0.027016 5.533231 0
M  V30 8 C 1.672452 1.436247 5.661145 0
M  V30 9 C 2.090978 2.297392 4.546328 0
M  V30 10 N 3.404497 2.029240 3.994708 0
M  V30 11 C 4.479179 2.340660 4.894391 0
M  V30 12 C 3.532116 2.863191 2.816552 0
M  V30 13 S -2.015442 -1.983528 3.536613 0
M  V30 14 C -2.944050 -2.385929 1.942704 0
M  V30 15 N -4.170291 -3.075880 2.064682 0
M  V30 16 C -4.704899 -3.270541 0.800624 0
M  V30 17 N -4.037977 -2.819008 -0.259758 0
M  V30 18 C -2.867451 -2.176746 -0.223361 0
M  V30 19 N -2.323047 -1.812628 -1.488224 0
M  V30 20 C -1.945129 -2.901452 -2.366775 0
M  V30 21 C -2.164036 -4.219295 -1.889072 0
M  V30 22 C -1.890779 -5.376549 -2.628845 0
M  V30 23 C -1.389166 -4.982428 -3.860220 0
M  V30 24 N -1.160794 -3.827538 -4.373998 0
M  V30 25 C -1.423969 -2.684535 -3.653011 0
M  V30 26 O -1.237938 -1.395593 -4.026772 0
M  V30 27 C -0.718417 -0.967340 -5.268510 0
M  V30 28 C -1.662243 0.024814 -5.877480 0
M  V30 29 C 0.650662 -0.346573 -5.142332 0
M  V30 30 C -2.176628 -1.880390 0.906471 0
M  V30 31 H 0.668868 -0.163276 0.636169 0
M  V30 32 H -0.859946 0.084035 -0.263551 0
M  V30 33 H 0.141081 -1.403547 -0.494712 0
M  V30 34 H -0.166711 -1.076319 5.129562 0
M  V30 35 H 1.314911 -0.421920 6.564439 0
M  V30 36 H 2.563932 -0.513049 5.328870 0
M  V30 37 H 0.640484 1.811077 5.976188 0
M  V30 38 H 2.269320 1.628852 6.602825 0
M  V30 39 H 1.372876 2.452895 3.749283 0
M  V30 40 H 2.219858 3.353773 4.995025 0
M  V30 41 H 4.158405 2.973094 5.727139 0
M  V30 42 H 4.892910 1.365647 5.242850 0
M  V30 43 H 5.343129 2.869895 4.401118 0
M  V30 44 H 4.424579 3.501916 2.945857 0
M  V30 45 H 2.654610 3.535548 2.639193 0
M  V30 46 H 3.740309 2.223589 1.905542 0
M  V30 47 H -5.627845 -3.756391 0.571175 0
M  V30 48 H -2.151440 -0.885568 -1.907564 0
M  V30 49 H -2.551711 -4.448139 -0.900922 0
M  V30 50 H -2.033794 -6.375311 -2.306867 0
M  V30 51 H -1.113564 -5.756613 -4.590118 0
M  V30 52 H -0.673008 -1.867419 -5.910886 0
M  V30 53 H -2.644729 -0.022501 -5.355936 0
M  V30 54 H -1.289056 1.068410 -5.769225 0
M  V30 55 H -1.810655 -0.245354 -6.954750 0
M  V30 56 H 0.835596 0.482458 -5.849823 0
M  V30 57 H 0.878320 0.019266 -4.131262 0
M  V30 58 H 1.389245 -1.158093 -5.431752 0
M  V30 END ATOM
M  V30 BEGIN BOND
M  V30 1 1 1 2
M  V30 2 2 2 3
M  V30 3 1 3 4
M  V30 4 2 4 5
M  V30 5 1 4 6
M  V30 6 1 6 7
M  V30 7 1 7 8
M  V30 8 1 8 9
M  V30 9 1 9 10
M  V30 10 1 10 11
M  V30 11 1 10 12
M  V30 12 1 3 13
M  V30 13 1 13 14
M  V30 14 2 14 15
M  V30 15 1 15 16
M  V30 16 2 16 17
M  V30 17 1 17 18
M  V30 18 1 18 19
M  V30 19 1 19 20
M  V30 20 2 20 21
M  V30 21 1 21 22
M  V30 22 2 22 23
M  V30 23 1 23 24
M  V30 24 2 24 25
M  V30 25 1 25 26
M  V30 26 1 26 27
M  V30 27 1 27 28
M  V30 28 1 27 29
M  V30 29 2 18 30
M  V30 30 1 30 2
M  V30 31 1 30 14
M  V30 32 1 25 20
M  V30 33 1 1 31
M  V30 34 1 1 32
M  V30 35 1 1 33
M  V30 36 1 6 34
M  V30 37 1 7 35
M  V30 38 1 7 36
M  V30 39 1 8 37
M  V30 40 1 8 38
M  V30 41 1 9 39
M  V30 42 1 9 40
M  V30 43 1 11 41
M  V30 44 1 11 42
M  V30 45 1 11 43
M  V30 46 1 12 44
M  V30 47 1 12 45
M  V30 48 1 12 46
M  V30 49 1 16 47
M  V30 50 1 19 48
M  V30 51 1 21 49
M  V30 52 1 22 50
M  V30 53 1 23 51
M  V30 54 1 27 52
M  V30 55 1 28 53
M  V30 56 1 28 54
M  V30 57 1 28 55
M  V30 58 1 29 56
M  V30 59 1 29 57
M  V30 60 1 29 58
M  V30 END BOND
M  V30 END CTAB
M  END
>  <Dataset>  (786) 
ChEMBL_Kinases

>  <Ligand_Instance>  (786) 
nan

>  <PDB_ID>  (786) 
nan

>  <Standardized_SMILES>  (786) 
Cc1c(C(=O)NCCCN(C)C)sc2ncnc(Nc3cccnc3OC(C)C)c12

>  <Name>  (786) 
nan

>  <Pocket>  (786) 
nan

>  <ATP_Site>  (786) 
nan

>  <Peripheral>  (786) 
nan

>  <Num_H_Atoms_ProtBoundConf>  (786) 
nan

>  <Num_Resolved_Atoms>  (786) 
nan

>  <Num_Not_Resolved_Atoms>  (786) 
nan

$$$$
CHEMBL3640010
     RDKit          3D

  0  0  0  0  0  0  0  0  0  0999 V3000
M  V30 BEGIN CTAB
M  V30 COUNTS 71 76 0 0 0
M  V30 BEGIN ATOM
M  V30 1 C 6.483187 1.626494 2.391327 0
M  V30 2 C 7.122279 0.794705 1.316525 0
M  V30 3 N 6.194550 0.048643 0.508985 0
M  V30 4 C 5.575221 -0.934993 1.205309 0
M  V30 5 C 4.563898 -1.847468 0.613730 0
M  V30 6 C 6.102973 0.521008 -0.764588 0
M  V30 7 C 5.608488 1.960094 -0.934148 0
M  V30 8 C 4.137000 2.112675 -0.913172 0
M  V30 9 N 3.493472 0.970996 -1.541157 0
M  V30 10 C 2.152427 0.670638 -1.172175 0
M  V30 11 C 1.418263 -0.402914 -1.627892 0
M  V30 12 C 0.123501 -0.578939 -1.190443 0
M  V30 13 C -0.517157 0.258751 -0.305499 0
M  V30 14 N -1.842419 0.108354 0.170420 0
M  V30 15 C -2.783085 -0.905738 -0.139267 0
M  V30 16 N -2.568983 -1.932217 -0.971811 0
M  V30 17 C -3.443310 -2.899928 -1.272066 0
M  V30 18 C -4.658331 -2.805004 -0.656837 0
M  V30 19 C -5.793481 -3.574468 -0.696329 0
M  V30 20 C -6.059474 -4.746575 -1.415444 0
M  V30 21 C -7.296959 -5.325149 -1.271038 0
M  V30 22 N -8.212139 -4.757957 -0.451674 0
M  V30 23 C -7.962275 -3.629087 0.243870 0
M  V30 24 F -8.935878 -3.146481 1.031463 0
M  V30 25 C -6.737916 -3.008070 0.135638 0
M  V30 26 N -6.199333 -1.893353 0.691362 0
M  V30 27 C -6.876311 -1.012055 1.627054 0
M  V30 28 C -6.497855 0.432801 1.470865 0
M  V30 29 C -5.862503 0.843843 2.776485 0
M  V30 30 C -5.526212 -0.473773 3.486420 0
M  V30 31 C -6.620001 -1.407297 3.049243 0
M  V30 32 C -4.928878 -1.768928 0.207576 0
M  V30 33 N -3.988020 -0.845225 0.446223 0
M  V30 34 N 0.256090 1.279643 0.095207 0
M  V30 35 N 1.494112 1.463822 -0.311545 0
M  V30 36 C 4.297469 0.272864 -2.479505 0
M  V30 37 C 5.582626 -0.322555 -1.881574 0
M  V30 38 H 7.337114 2.082817 2.954239 0
M  V30 39 H 5.940550 1.027382 3.141116 0
M  V30 40 H 5.851589 2.445297 2.058410 0
M  V30 41 H 7.886111 0.165967 1.806260 0
M  V30 42 H 7.709723 1.524584 0.684709 0
M  V30 43 H 6.401660 -1.665465 1.515440 0
M  V30 44 H 5.193393 -0.645941 2.243949 0
M  V30 45 H 3.774289 -1.393195 0.012322 0
M  V30 46 H 5.002288 -2.789055 0.158385 0
M  V30 47 H 3.987044 -2.296585 1.487092 0
M  V30 48 H 7.207425 0.676617 -1.058467 0
M  V30 49 H 5.917117 2.251539 -1.986216 0
M  V30 50 H 6.178965 2.633840 -0.300797 0
M  V30 51 H 3.704364 2.311221 0.086217 0
M  V30 52 H 3.858504 2.999085 -1.521656 0
M  V30 53 H 1.878251 -1.088410 -2.323868 0
M  V30 54 H -0.391674 -1.436754 -1.585972 0
M  V30 55 H -2.146347 0.867921 0.846512 0
M  V30 56 H -3.210615 -3.709446 -1.957312 0
M  V30 57 H -5.308059 -5.180046 -2.064565 0
M  V30 58 H -7.538757 -6.236971 -1.814642 0
M  V30 59 H -7.989386 -1.124544 1.471350 0
M  V30 60 H -5.874739 0.646828 0.579936 0
M  V30 61 H -7.421427 1.045803 1.350198 0
M  V30 62 H -6.609022 1.366749 3.428186 0
M  V30 63 H -4.978739 1.482881 2.662936 0
M  V30 64 H -4.550020 -0.865151 3.188283 0
M  V30 65 H -5.621012 -0.329179 4.601723 0
M  V30 66 H -6.288989 -2.454347 3.176132 0
M  V30 67 H -7.525680 -1.246194 3.684531 0
M  V30 68 H 4.530320 0.946155 -3.338964 0
M  V30 69 H 3.737118 -0.576031 -2.912385 0
M  V30 70 H 5.435964 -1.378980 -1.681084 0
M  V30 71 H 6.264916 -0.334981 -2.793935 0
M  V30 END ATOM
M  V30 BEGIN BOND
M  V30 1 1 1 2
M  V30 2 1 2 3
M  V30 3 1 3 4
M  V30 4 1 4 5
M  V30 5 1 3 6
M  V30 6 1 6 7
M  V30 7 1 7 8
M  V30 8 1 8 9
M  V30 9 1 9 10
M  V30 10 2 10 11
M  V30 11 1 11 12
M  V30 12 2 12 13
M  V30 13 1 13 14
M  V30 14 1 14 15
M  V30 15 2 15 16
M  V30 16 1 16 17
M  V30 17 2 17 18
M  V30 18 1 18 19
M  V30 19 2 19 20
M  V30 20 1 20 21
M  V30 21 2 21 22
M  V30 22 1 22 23
M  V30 23 1 23 24
M  V30 24 2 23 25
M  V30 25 1 25 26
M  V30 26 1 26 27
M  V30 27 1 27 28
M  V30 28 1 28 29
M  V30 29 1 29 30
M  V30 30 1 30 31
M  V30 31 1 26 32
M  V30 32 2 32 33
M  V30 33 1 13 34
M  V30 34 2 34 35
M  V30 35 1 9 36
M  V30 36 1 36 37
M  V30 37 1 37 6
M  V30 38 1 35 10
M  V30 39 1 33 15
M  V30 40 1 32 18
M  V30 41 1 25 19
M  V30 42 1 31 27
M  V30 43 1 1 38
M  V30 44 1 1 39
M  V30 45 1 1 40
M  V30 46 1 2 41
M  V30 47 1 2 42
M  V30 48 1 4 43
M  V30 49 1 4 44
M  V30 50 1 5 45
M  V30 51 1 5 46
M  V30 52 1 5 47
M  V30 53 1 6 48
M  V30 54 1 7 49
M  V30 55 1 7 50
M  V30 56 1 8 51
M  V30 57 1 8 52
M  V30 58 1 11 53
M  V30 59 1 12 54
M  V30 60 1 14 55
M  V30 61 1 17 56
M  V30 62 1 20 57
M  V30 63 1 21 58
M  V30 64 1 27 59
M  V30 65 1 28 60
M  V30 66 1 28 61
M  V30 67 1 29 62
M  V30 68 1 29 63
M  V30 69 1 30 64
M  V30 70 1 30 65
M  V30 71 1 31 66
M  V30 72 1 31 67
M  V30 73 1 36 68
M  V30 74 1 36 69
M  V30 75 1 37 70
M  V30 76 1 37 71
M  V30 END BOND
M  V30 END CTAB
M  END
>  <Dataset>  (787) 
ChEMBL_Kinases

>  <Ligand_Instance>  (787) 
nan

>  <PDB_ID>  (787) 
nan

>  <Standardized_SMILES>  (787) 
CCN(CC)C1CCN(c2ccc(Nc3ncc4c5ccnc(F)c5n(C5CCCC5)c4n3)nn2)CC1

>  <Name>  (787) 
nan

>  <Pocket>  (787) 
nan

>  <ATP_Site>  (787) 
nan

>  <Peripheral>  (787) 
nan

>  <Num_H_Atoms_ProtBoundConf>  (787) 
nan

>  <Num_Resolved_Atoms>  (787) 
nan

>  <Num_Not_Resolved_Atoms>  (787) 
nan

$$$$
CHEMBL3640009
     RDKit          3D

  0  0  0  0  0  0  0  0  0  0999 V3000
M  V30 BEGIN CTAB
M  V30 COUNTS 62 67 0 0 0
M  V30 BEGIN ATOM
M  V30 1 C 5.900659 -3.934918 -2.976711 0 CHG=-1 VAL=3
M  V30 2 N 5.747125 -3.796575 -1.835574 0 CHG=1 VAL=4
M  V30 3 C 5.548592 -3.648672 -0.465213 0
M  V30 4 C 4.109709 -3.961510 -0.063407 0
M  V30 5 C 3.162416 -3.038979 -0.767145 0
M  V30 6 C 1.783124 -3.378194 -0.183538 0
M  V30 7 N 1.772723 -2.804354 1.143891 0
M  V30 8 C 1.004286 -1.680586 1.556344 0
M  V30 9 C 0.979959 -1.192028 2.842992 0
M  V30 10 C 0.220467 -0.097375 3.195081 0
M  V30 11 C -0.559407 0.570265 2.273208 0
M  V30 12 N -1.339863 1.696061 2.637882 0
M  V30 13 C -2.143497 2.372121 1.653881 0
M  V30 14 N -2.878389 3.447404 2.040820 0
M  V30 15 C -3.628695 4.077623 1.118919 0
M  V30 16 C -3.661753 3.653799 -0.193538 0
M  V30 17 C -4.292311 4.055043 -1.330210 0
M  V30 18 C -5.171304 5.094048 -1.563628 0
M  V30 19 C -5.697333 5.322233 -2.812115 0
M  V30 20 N -5.314289 4.483619 -3.797332 0
M  V30 21 C -4.453602 3.466493 -3.568091 0
M  V30 22 F -4.134857 2.686660 -4.619261 0
M  V30 23 C -3.898501 3.195120 -2.336726 0
M  V30 24 N -3.036102 2.253765 -1.887967 0
M  V30 25 C -2.417798 1.197198 -2.640989 0
M  V30 26 C -3.333856 0.158996 -3.186325 0
M  V30 27 C -2.812174 -0.222257 -4.548706 0
M  V30 28 C -1.652789 0.687124 -4.871183 0
M  V30 29 C -1.464997 1.629048 -3.706001 0
M  V30 30 C -2.915653 2.570431 -0.562966 0
M  V30 31 N -2.158494 1.939491 0.381550 0
M  V30 32 N -0.531857 0.086581 1.011896 0
M  V30 33 C 0.215248 -0.982132 0.688187 0
M  V30 34 C 2.657707 -3.544573 1.970360 0
M  V30 35 C 4.014820 -3.834909 1.410591 0
M  V30 36 H 5.793351 -2.598748 -0.172474 0
M  V30 37 H 6.201898 -4.353494 0.095467 0
M  V30 38 H 3.900431 -4.985921 -0.412924 0
M  V30 39 H 3.377739 -2.002653 -0.446020 0
M  V30 40 H 3.179438 -3.190088 -1.861186 0
M  V30 41 H 1.017171 -2.951175 -0.840796 0
M  V30 42 H 1.743693 -4.505269 -0.174476 0
M  V30 43 H 1.553124 -1.650839 3.613918 0
M  V30 44 H 0.217332 0.268102 4.211511 0
M  V30 45 H -1.321932 2.018391 3.609314 0
M  V30 46 H -4.211015 4.928816 1.423160 0
M  V30 47 H -5.442216 5.732343 -0.739581 0
M  V30 48 H -6.384815 6.140985 -2.977421 0
M  V30 49 H -1.782099 0.642978 -1.885735 0
M  V30 50 H -3.328784 -0.812251 -2.604477 0
M  V30 51 H -4.416208 0.427652 -3.179948 0
M  V30 52 H -2.553383 -1.277840 -4.667431 0
M  V30 53 H -3.586578 -0.024792 -5.347000 0
M  V30 54 H -1.805819 1.281574 -5.797600 0
M  V30 55 H -0.769001 0.042299 -5.057019 0
M  V30 56 H -1.517970 2.702896 -3.982474 0
M  V30 57 H -0.381026 1.515496 -3.400227 0
M  V30 58 H 0.114966 -1.221775 -0.349216 0
M  V30 59 H 2.121642 -4.506160 2.226295 0
M  V30 60 H 2.822229 -3.063389 2.954671 0
M  V30 61 H 4.808699 -3.145114 1.785161 0
M  V30 62 H 4.318524 -4.836267 1.836057 0
M  V30 END ATOM
M  V30 BEGIN BOND
M  V30 1 3 1 2
M  V30 2 1 2 3
M  V30 3 1 3 4
M  V30 4 1 4 5
M  V30 5 1 5 6
M  V30 6 1 6 7
M  V30 7 1 7 8
M  V30 8 2 8 9
M  V30 9 1 9 10
M  V30 10 2 10 11
M  V30 11 1 11 12
M  V30 12 1 12 13
M  V30 13 2 13 14
M  V30 14 1 14 15
M  V30 15 2 15 16
M  V30 16 1 16 17
M  V30 17 2 17 18
M  V30 18 1 18 19
M  V30 19 2 19 20
M  V30 20 1 20 21
M  V30 21 1 21 22
M  V30 22 2 21 23
M  V30 23 1 23 24
M  V30 24 1 24 25
M  V30 25 1 25 26
M  V30 26 1 26 27
M  V30 27 1 27 28
M  V30 28 1 28 29
M  V30 29 1 24 30
M  V30 30 2 30 31
M  V30 31 1 11 32
M  V30 32 2 32 33
M  V30 33 1 7 34
M  V30 34 1 34 35
M  V30 35 1 35 4
M  V30 36 1 33 8
M  V30 37 1 31 13
M  V30 38 1 30 16
M  V30 39 1 23 17
M  V30 40 1 29 25
M  V30 41 1 3 36
M  V30 42 1 3 37
M  V30 43 1 4 38
M  V30 44 1 5 39
M  V30 45 1 5 40
M  V30 46 1 6 41
M  V30 47 1 6 42
M  V30 48 1 9 43
M  V30 49 1 10 44
M  V30 50 1 12 45
M  V30 51 1 15 46
M  V30 52 1 18 47
M  V30 53 1 19 48
M  V30 54 1 25 49
M  V30 55 1 26 50
M  V30 56 1 26 51
M  V30 57 1 27 52
M  V30 58 1 27 53
M  V30 59 1 28 54
M  V30 60 1 28 55
M  V30 61 1 29 56
M  V30 62 1 29 57
M  V30 63 1 33 58
M  V30 64 1 34 59
M  V30 65 1 34 60
M  V30 66 1 35 61
M  V30 67 1 35 62
M  V30 END BOND
M  V30 END CTAB
M  END
>  <Dataset>  (788) 
ChEMBL_Kinases

>  <Ligand_Instance>  (788) 
nan

>  <PDB_ID>  (788) 
nan

>  <Standardized_SMILES>  (788) 
[C-]#[N+]CC1CCN(c2ccc(Nc3ncc4c5ccnc(F)c5n(C5CCCC5)c4n3)nc2)CC1

>  <Name>  (788) 
nan

>  <Pocket>  (788) 
nan

>  <ATP_Site>  (788) 
nan

>  <Peripheral>  (788) 
nan

>  <Num_H_Atoms_ProtBoundConf>  (788) 
nan

>  <Num_Resolved_Atoms>  (788) 
nan

>  <Num_Not_Resolved_Atoms>  (788) 
nan

$$$$
CHEMBL3640006
     RDKit          3D

  0  0  0  0  0  0  0  0  0  0999 V3000
M  V30 BEGIN CTAB
M  V30 COUNTS 46 49 0 0 0
M  V30 BEGIN ATOM
M  V30 1 C 1.709087 -2.362918 3.880776 0
M  V30 2 C 2.176687 -1.260617 3.033085 0
M  V30 3 C 3.433252 -0.707397 3.164650 0
M  V30 4 C 3.867345 0.341700 2.351915 0
M  V30 5 C 3.040724 0.864154 1.378771 0
M  V30 6 C 3.551226 1.960136 0.560801 0
M  V30 7 O 4.701999 2.355702 0.792360 0
M  V30 8 N 2.769814 2.560402 -0.465483 0
M  V30 9 C 3.193421 3.630122 -1.304542 0
M  V30 10 C 3.836718 3.510072 -2.520283 0
M  V30 11 C 4.010003 4.840643 -2.893456 0
M  V30 12 O 3.527690 5.676909 -2.006969 0
M  V30 13 N 3.032388 4.949811 -1.043445 0
M  V30 14 C 1.786218 0.302852 1.256409 0
M  V30 15 C 1.356712 -0.732231 2.057627 0
M  V30 16 C -0.011506 -1.238990 1.818760 0
M  V30 17 C -0.974302 -1.534568 2.742622 0
M  V30 18 C -2.198209 -2.000260 2.307118 0
M  V30 19 C -2.492346 -2.181445 0.962810 0
M  V30 20 C -1.538235 -1.890411 0.013739 0
M  V30 21 C -0.320712 -1.426044 0.466699 0
M  V30 22 N -2.062813 -2.151915 -1.280684 0
M  V30 23 C -3.397148 -2.625535 -1.145314 0
M  V30 24 O -4.247345 -2.980060 -2.002929 0
M  V30 25 C -3.733115 -2.664842 0.319221 0
M  V30 26 C -4.064625 -4.087149 0.654371 0
M  V30 27 C -4.880623 -1.707648 0.596134 0
M  V30 28 H 2.610550 -3.001490 4.111791 0
M  V30 29 H 1.364841 -1.985593 4.873708 0
M  V30 30 H 0.996804 -3.054008 3.405267 0
M  V30 31 H 4.072255 -1.140978 3.946635 0
M  V30 32 H 4.889282 0.688950 2.561607 0
M  V30 33 H 1.799848 2.233783 -0.667457 0
M  V30 34 H 4.123841 2.625632 -3.035053 0
M  V30 35 H 4.485987 5.184602 -3.807505 0
M  V30 36 H 1.130216 0.701420 0.500179 0
M  V30 37 H -0.678210 -1.371114 3.756929 0
M  V30 38 H -2.936928 -2.224378 3.063559 0
M  V30 39 H 0.410385 -1.206743 -0.326895 0
M  V30 40 H -1.578967 -2.028455 -2.193863 0
M  V30 41 H -4.442464 -4.657909 -0.238739 0
M  V30 42 H -3.138071 -4.590600 0.982432 0
M  V30 43 H -4.902897 -4.165663 1.390283 0
M  V30 44 H -5.785120 -2.155985 0.125974 0
M  V30 45 H -4.650564 -0.763189 0.057418 0
M  V30 46 H -4.954795 -1.575221 1.686868 0
M  V30 END ATOM
M  V30 BEGIN BOND
M  V30 1 1 1 2
M  V30 2 2 2 3
M  V30 3 1 3 4
M  V30 4 2 4 5
M  V30 5 1 5 6
M  V30 6 2 6 7
M  V30 7 1 6 8
M  V30 8 1 8 9
M  V30 9 1 9 10
M  V30 10 2 10 11
M  V30 11 1 11 12
M  V30 12 1 12 13
M  V30 13 1 5 14
M  V30 14 2 14 15
M  V30 15 1 15 16
M  V30 16 2 16 17
M  V30 17 1 17 18
M  V30 18 2 18 19
M  V30 19 1 19 20
M  V30 20 2 20 21
M  V30 21 1 20 22
M  V30 22 1 22 23
M  V30 23 2 23 24
M  V30 24 1 23 25
M  V30 25 1 25 26
M  V30 26 1 25 27
M  V30 27 1 15 2
M  V30 28 1 21 16
M  V30 29 2 13 9
M  V30 30 1 25 19
M  V30 31 1 1 28
M  V30 32 1 1 29
M  V30 33 1 1 30
M  V30 34 1 3 31
M  V30 35 1 4 32
M  V30 36 1 8 33
M  V30 37 1 10 34
M  V30 38 1 11 35
M  V30 39 1 14 36
M  V30 40 1 17 37
M  V30 41 1 18 38
M  V30 42 1 21 39
M  V30 43 1 22 40
M  V30 44 1 26 41
M  V30 45 1 26 42
M  V30 46 1 26 43
M  V30 47 1 27 44
M  V30 48 1 27 45
M  V30 49 1 27 46
M  V30 END BOND
M  V30 END CTAB
M  END
>  <Dataset>  (789) 
ChEMBL_Kinases

>  <Ligand_Instance>  (789) 
nan

>  <PDB_ID>  (789) 
nan

>  <Standardized_SMILES>  (789) 
Cc1ccc(C(=O)Nc2ccon2)cc1-c1ccc2c(c1)NC(=O)C2(C)C

>  <Name>  (789) 
nan

>  <Pocket>  (789) 
nan

>  <ATP_Site>  (789) 
nan

>  <Peripheral>  (789) 
nan

>  <Num_H_Atoms_ProtBoundConf>  (789) 
nan

>  <Num_Resolved_Atoms>  (789) 
nan

>  <Num_Not_Resolved_Atoms>  (789) 
nan

$$$$
CHEMBL3639993
     RDKit          3D

  0  0  0  0  0  0  0  0  0  0999 V3000
M  V30 BEGIN CTAB
M  V30 COUNTS 41 45 0 0 0
M  V30 BEGIN ATOM
M  V30 1 F 5.907812 -1.656644 1.719665 0
M  V30 2 C 4.724786 -2.090311 1.084558 0
M  V30 3 F 3.809590 -2.170998 2.153059 0
M  V30 4 F 4.905182 -3.394796 0.676238 0
M  V30 5 O 4.379983 -1.182915 0.142047 0
M  V30 6 C 3.441080 -0.973372 -0.781389 0
M  V30 7 C 3.821948 -1.528290 -2.014290 0
M  V30 8 C 3.003013 -1.431961 -3.123296 0
M  V30 9 C 1.797052 -0.796586 -3.064485 0
M  V30 10 C 1.393766 -0.242776 -1.872278 0
M  V30 11 N 0.168549 0.456371 -1.749847 0
M  V30 12 C -0.666059 0.567331 -0.607708 0
M  V30 13 N -0.313907 -0.199440 0.418620 0
M  V30 14 C -0.902286 -0.297820 1.602981 0
M  V30 15 C -0.451689 -1.133311 2.596960 0
M  V30 16 C -1.206503 -1.098223 3.765965 0
M  V30 17 C -0.783529 -1.968361 4.855814 0
M  V30 18 N -1.333476 -2.100106 6.087463 0
M  V30 19 N -0.580200 -3.023356 6.723261 0
M  V30 20 N 0.366202 -3.430889 5.935601 0
M  V30 21 N 0.278611 -2.818183 4.798270 0
M  V30 22 C -2.324853 -0.292101 3.931745 0
M  V30 23 C -2.725859 0.533319 2.874692 0
M  V30 24 C -2.005920 0.519780 1.718886 0
M  V30 25 C -2.398555 1.322154 0.685705 0
M  V30 26 S -3.747646 2.428667 0.614096 0
M  V30 27 C -3.384524 2.985398 -1.157899 0
M  V30 28 C -2.196908 2.211872 -1.514250 0
M  V30 29 C -1.757538 1.390480 -0.522790 0
M  V30 30 C 2.196024 -0.327770 -0.752586 0
M  V30 31 H 4.738870 -2.063961 -2.237194 0
M  V30 32 H 3.254399 -1.848071 -4.106747 0
M  V30 33 H 1.134035 -0.698177 -3.893580 0
M  V30 34 H -0.149055 0.941093 -2.596291 0
M  V30 35 H 0.414393 -1.740949 2.436847 0
M  V30 36 H 0.932417 -2.968328 3.975703 0
M  V30 37 H -2.890562 -0.286484 4.851404 0
M  V30 38 H -3.600043 1.161592 3.004615 0
M  V30 39 H -3.893676 3.714235 -1.840518 0
M  V30 40 H -1.807588 2.373190 -2.501279 0
M  V30 41 H 2.005498 0.062647 0.237316 0
M  V30 END ATOM
M  V30 BEGIN BOND
M  V30 1 1 1 2
M  V30 2 1 2 3
M  V30 3 1 2 4
M  V30 4 1 2 5
M  V30 5 1 5 6
M  V30 6 2 6 7
M  V30 7 1 7 8
M  V30 8 2 8 9
M  V30 9 1 9 10
M  V30 10 1 10 11
M  V30 11 1 11 12
M  V30 12 2 12 13
M  V30 13 1 13 14
M  V30 14 2 14 15
M  V30 15 1 15 16
M  V30 16 1 16 17
M  V30 17 2 17 18
M  V30 18 1 18 19
M  V30 19 2 19 20
M  V30 20 1 20 21
M  V30 21 2 16 22
M  V30 22 1 22 23
M  V30 23 2 23 24
M  V30 24 1 24 25
M  V30 25 1 25 26
M  V30 26 1 26 27
M  V30 27 2 27 28
M  V30 28 1 28 29
M  V30 29 2 10 30
M  V30 30 1 30 6
M  V30 31 1 29 12
M  V30 32 1 24 14
M  V30 33 2 29 25
M  V30 34 1 21 17
M  V30 35 1 7 31
M  V30 36 1 8 32
M  V30 37 1 9 33
M  V30 38 1 11 34
M  V30 39 1 15 35
M  V30 40 1 21 36
M  V30 41 1 22 37
M  V30 42 1 23 38
M  V30 43 1 27 39
M  V30 44 1 28 40
M  V30 45 1 30 41
M  V30 END BOND
M  V30 END CTAB
M  END
>  <Dataset>  (790) 
ChEMBL_Kinases

>  <Ligand_Instance>  (790) 
nan

>  <PDB_ID>  (790) 
nan

>  <Standardized_SMILES>  (790) 
FC(F)(F)Oc1cccc(Nc2nc3cc(-c4nnn[nH]4)ccc3c3sccc23)c1

>  <Name>  (790) 
nan

>  <Pocket>  (790) 
nan

>  <ATP_Site>  (790) 
nan

>  <Peripheral>  (790) 
nan

>  <Num_H_Atoms_ProtBoundConf>  (790) 
nan

>  <Num_Resolved_Atoms>  (790) 
nan

>  <Num_Not_Resolved_Atoms>  (790) 
nan

$$$$
CHEMBL3639992
     RDKit          3D

  0  0  0  0  0  0  0  0  0  0999 V3000
M  V30 BEGIN CTAB
M  V30 COUNTS 39 42 0 0 0
M  V30 BEGIN ATOM
M  V30 1 C 0.097665 -6.621955 -0.661672 0
M  V30 2 O 0.925030 -6.086521 0.354192 0
M  V30 3 C 0.775206 -4.746741 0.660686 0
M  V30 4 C 1.652232 -4.376047 1.666845 0
M  V30 5 C 1.713384 -3.070895 2.172926 0
M  V30 6 C 0.824970 -2.156704 1.593128 0
M  V30 7 C -0.057617 -2.500358 0.590933 0
M  V30 8 N -0.953138 -1.558018 0.014516 0
M  V30 9 C -0.805568 -0.248917 0.553318 0
M  V30 10 N 0.052206 0.517402 -0.120260 0
M  V30 11 C 0.386654 1.781204 0.162805 0
M  V30 12 C 1.273753 2.557523 -0.544244 0
M  V30 13 C 1.476622 3.839915 -0.082421 0
M  V30 14 C 2.420350 4.709428 -0.810663 0
M  V30 15 O 2.670607 5.889690 -0.471162 0
M  V30 16 O 3.088255 4.242358 -1.932182 0
M  V30 17 C 0.847389 4.381782 1.035936 0
M  V30 18 C -0.033304 3.557408 1.707761 0
M  V30 19 C -0.259200 2.274347 1.275201 0
M  V30 20 C -1.150639 1.535215 2.007591 0
M  V30 21 S -2.083303 1.911727 3.426027 0
M  V30 22 C -2.899129 0.201573 3.511915 0
M  V30 23 C -2.341700 -0.488669 2.400701 0
M  V30 24 C -1.463233 0.220967 1.667590 0
M  V30 25 C -0.072908 -3.798072 0.133319 0
M  V30 26 H -0.901845 -6.875417 -0.294034 0
M  V30 27 H 0.655494 -7.535654 -1.022672 0
M  V30 28 H 0.067947 -5.879016 -1.481634 0
M  V30 29 H 2.381799 -5.022282 2.179268 0
M  V30 30 H 2.373877 -2.750055 2.945326 0
M  V30 31 H 0.864410 -1.132105 1.981938 0
M  V30 32 H -1.628465 -1.844782 -0.722877 0
M  V30 33 H 1.747072 2.130023 -1.396753 0
M  V30 34 H 3.521536 4.834541 -2.621443 0
M  V30 35 H 1.012475 5.375699 1.383970 0
M  V30 36 H -0.530566 3.971263 2.583008 0
M  V30 37 H -3.654959 -0.193296 4.261210 0
M  V30 38 H -2.691767 -1.499385 2.280733 0
M  V30 39 H -0.714625 -4.187978 -0.642714 0
M  V30 END ATOM
M  V30 BEGIN BOND
M  V30 1 1 1 2
M  V30 2 1 2 3
M  V30 3 2 3 4
M  V30 4 1 4 5
M  V30 5 2 5 6
M  V30 6 1 6 7
M  V30 7 1 7 8
M  V30 8 1 8 9
M  V30 9 2 9 10
M  V30 10 1 10 11
M  V30 11 2 11 12
M  V30 12 1 12 13
M  V30 13 1 13 14
M  V30 14 2 14 15
M  V30 15 1 14 16
M  V30 16 2 13 17
M  V30 17 1 17 18
M  V30 18 2 18 19
M  V30 19 1 19 20
M  V30 20 1 20 21
M  V30 21 1 21 22
M  V30 22 2 22 23
M  V30 23 1 23 24
M  V30 24 2 7 25
M  V30 25 1 25 3
M  V30 26 1 24 9
M  V30 27 1 19 11
M  V30 28 2 24 20
M  V30 29 1 1 26
M  V30 30 1 1 27
M  V30 31 1 1 28
M  V30 32 1 4 29
M  V30 33 1 5 30
M  V30 34 1 6 31
M  V30 35 1 8 32
M  V30 36 1 12 33
M  V30 37 1 16 34
M  V30 38 1 17 35
M  V30 39 1 18 36
M  V30 40 1 22 37
M  V30 41 1 23 38
M  V30 42 1 25 39
M  V30 END BOND
M  V30 END CTAB
M  END
>  <Dataset>  (791) 
ChEMBL_Kinases

>  <Ligand_Instance>  (791) 
nan

>  <PDB_ID>  (791) 
nan

>  <Standardized_SMILES>  (791) 
COc1cccc(Nc2nc3cc(C(=O)O)ccc3c3sccc23)c1

>  <Name>  (791) 
nan

>  <Pocket>  (791) 
nan

>  <ATP_Site>  (791) 
nan

>  <Peripheral>  (791) 
nan

>  <Num_H_Atoms_ProtBoundConf>  (791) 
nan

>  <Num_Resolved_Atoms>  (791) 
nan

>  <Num_Not_Resolved_Atoms>  (791) 
nan

$$$$
CHEMBL3639986
     RDKit          3D

  0  0  0  0  0  0  0  0  0  0999 V3000
M  V30 BEGIN CTAB
M  V30 COUNTS 62 65 0 0 0
M  V30 BEGIN ATOM
M  V30 1 C 4.052331 1.350356 2.348591 0
M  V30 2 C 4.235250 0.105345 3.199687 0
M  V30 3 N 3.045018 -0.304971 3.850577 0
M  V30 4 C 3.149511 -1.422017 4.694807 0
M  V30 5 C 4.051326 -1.043976 5.894247 0
M  V30 6 C 1.893875 -0.052507 3.133408 0
M  V30 7 C 0.586680 -0.653653 3.597338 0
M  V30 8 C -0.462259 -0.091153 2.620756 0
M  V30 9 N -0.055367 -0.728106 1.393042 0
M  V30 10 C 0.008949 -0.135937 0.127317 0
M  V30 11 O 0.253112 -0.893323 -0.846497 0
M  V30 12 C -0.139778 1.229391 -0.411465 0
M  V30 13 C -1.414667 1.302690 -1.198748 0
M  V30 14 N -1.727032 0.419867 -2.172140 0
M  V30 15 C -2.878732 0.547087 -2.883578 0
M  V30 16 N -3.200742 -0.428132 -3.895005 0
M  V30 17 C -2.437690 -1.662518 -3.797212 0
M  V30 18 C -3.328911 -2.827831 -4.183686 0
M  V30 19 O -3.978530 -2.508928 -5.400715 0
M  V30 20 C -4.912917 -1.515766 -5.181164 0
M  V30 21 C -4.185101 -0.204926 -4.927691 0
M  V30 22 C -3.729612 1.611416 -2.584264 0
M  V30 23 C -3.418670 2.512385 -1.595233 0
M  V30 24 O -4.241309 3.452789 -1.383827 0
M  V30 25 N -2.263518 2.327590 -0.927943 0
M  V30 26 C 0.210264 -2.073838 1.730865 0
M  V30 27 C 0.112295 -3.187581 0.923689 0
M  V30 28 C 0.375956 -4.419285 1.479044 0
M  V30 29 C 0.730299 -4.527510 2.821137 0
M  V30 30 C 0.797481 -3.354482 3.532424 0
M  V30 31 C 0.560786 -2.078246 3.089163 0
M  V30 32 H 3.554292 1.131830 1.377880 0
M  V30 33 H 5.054829 1.814582 2.127640 0
M  V30 34 H 3.465953 2.129258 2.869970 0
M  V30 35 H 5.110877 0.249812 3.898053 0
M  V30 36 H 4.631908 -0.668948 2.474055 0
M  V30 37 H 3.436407 -2.368823 4.233791 0
M  V30 38 H 2.140535 -1.558794 5.226325 0
M  V30 39 H 3.511252 -1.132573 6.850164 0
M  V30 40 H 4.911450 -1.775883 5.891462 0
M  V30 41 H 4.447090 -0.018097 5.785170 0
M  V30 42 H 1.773665 1.069550 3.014270 0
M  V30 43 H 2.082957 -0.381277 2.051030 0
M  V30 44 H 0.340559 -0.543114 4.632618 0
M  V30 45 H -0.423497 1.013401 2.565525 0
M  V30 46 H -1.439561 -0.506138 2.938454 0
M  V30 47 H 0.680384 1.569202 -1.062094 0
M  V30 48 H -0.196491 1.989898 0.415241 0
M  V30 49 H -2.129886 -1.852095 -2.735525 0
M  V30 50 H -1.538007 -1.685452 -4.421894 0
M  V30 51 H -2.680774 -3.699720 -4.376090 0
M  V30 52 H -4.053938 -3.082212 -3.398213 0
M  V30 53 H -5.496589 -1.413021 -6.138031 0
M  V30 54 H -5.612612 -1.780309 -4.343936 0
M  V30 55 H -3.604162 -0.018842 -5.874007 0
M  V30 56 H -4.876588 0.620605 -4.730218 0
M  V30 57 H -4.652707 1.750822 -3.121488 0
M  V30 58 H -2.108525 3.074968 -0.188507 0
M  V30 59 H -0.154504 -3.151317 -0.122952 0
M  V30 60 H 0.332500 -5.362749 0.940015 0
M  V30 61 H 0.937046 -5.484483 3.276145 0
M  V30 62 H 1.066658 -3.496549 4.581930 0
M  V30 END ATOM
M  V30 BEGIN BOND
M  V30 1 1 1 2
M  V30 2 1 2 3
M  V30 3 1 3 4
M  V30 4 1 4 5
M  V30 5 1 3 6
M  V30 6 1 6 7
M  V30 7 1 7 8
M  V30 8 1 8 9
M  V30 9 1 9 10
M  V30 10 2 10 11
M  V30 11 1 10 12
M  V30 12 1 12 13
M  V30 13 2 13 14
M  V30 14 1 14 15
M  V30 15 1 15 16
M  V30 16 1 16 17
M  V30 17 1 17 18
M  V30 18 1 18 19
M  V30 19 1 19 20
M  V30 20 1 20 21
M  V30 21 2 15 22
M  V30 22 1 22 23
M  V30 23 2 23 24
M  V30 24 1 23 25
M  V30 25 1 9 26
M  V30 26 2 26 27
M  V30 27 1 27 28
M  V30 28 2 28 29
M  V30 29 1 29 30
M  V30 30 2 30 31
M  V30 31 1 31 7
M  V30 32 1 25 13
M  V30 33 1 31 26
M  V30 34 1 21 16
M  V30 35 1 1 32
M  V30 36 1 1 33
M  V30 37 1 1 34
M  V30 38 1 2 35
M  V30 39 1 2 36
M  V30 40 1 4 37
M  V30 41 1 4 38
M  V30 42 1 5 39
M  V30 43 1 5 40
M  V30 44 1 5 41
M  V30 45 1 6 42
M  V30 46 1 6 43
M  V30 47 1 7 44
M  V30 48 1 8 45
M  V30 49 1 8 46
M  V30 50 1 12 47
M  V30 51 1 12 48
M  V30 52 1 17 49
M  V30 53 1 17 50
M  V30 54 1 18 51
M  V30 55 1 18 52
M  V30 56 1 20 53
M  V30 57 1 20 54
M  V30 58 1 21 55
M  V30 59 1 21 56
M  V30 60 1 22 57
M  V30 61 1 25 58
M  V30 62 1 27 59
M  V30 63 1 28 60
M  V30 64 1 29 61
M  V30 65 1 30 62
M  V30 END BOND
M  V30 END CTAB
M  END
>  <Dataset>  (792) 
ChEMBL_Kinases

>  <Ligand_Instance>  (792) 
nan

>  <PDB_ID>  (792) 
nan

>  <Standardized_SMILES>  (792) 
CCN(CC)CC1CN(C(=O)Cc2nc(N3CCOCC3)cc(=O)[nH]2)c2ccccc21

>  <Name>  (792) 
nan

>  <Pocket>  (792) 
nan

>  <ATP_Site>  (792) 
nan

>  <Peripheral>  (792) 
nan

>  <Num_H_Atoms_ProtBoundConf>  (792) 
nan

>  <Num_Resolved_Atoms>  (792) 
nan

>  <Num_Not_Resolved_Atoms>  (792) 
nan

$$$$
CHEMBL3639977
     RDKit          3D

  0  0  0  0  0  0  0  0  0  0999 V3000
M  V30 BEGIN CTAB
M  V30 COUNTS 66 68 0 0 0
M  V30 BEGIN ATOM
M  V30 1 C 1.201899 -3.115059 3.690231 0
M  V30 2 C 2.233665 -2.110046 3.278540 0
M  V30 3 C 3.550057 -2.340086 3.602958 0
M  V30 4 C 4.173587 -3.440441 4.316379 0
M  V30 5 O 3.785075 -4.512426 4.839632 0
M  V30 6 N 5.600025 -3.347836 4.500796 0
M  V30 7 C 6.450237 -4.310038 5.175015 0
M  V30 8 C 6.045408 -4.474542 6.624784 0
M  V30 9 O 6.152467 -3.212092 7.265102 0
M  V30 10 S 4.405855 -0.918171 2.959547 0
M  V30 11 C 2.966645 -0.117793 2.301558 0
M  V30 12 N 2.848676 1.056473 1.644189 0
M  V30 13 C 1.649870 1.486210 1.234278 0
M  V30 14 N 0.627432 0.679015 1.517490 0
M  V30 15 C 0.695501 -0.478451 2.154746 0
M  V30 16 N -0.577806 -1.144216 2.348760 0
M  V30 17 C -1.598166 -0.246312 1.840080 0
M  V30 18 C -2.365291 0.210336 2.928526 0
M  V30 19 C -3.361046 1.171263 2.700938 0
M  V30 20 C -3.626370 1.689899 1.467779 0
M  V30 21 F -4.577089 2.619220 1.180743 0
M  V30 22 C -2.835593 1.190894 0.474219 0
M  V30 23 C -1.842582 0.265735 0.527862 0
M  V30 24 O -1.084802 -0.245380 -0.366345 0
M  V30 25 C -0.322971 -0.753397 -1.282177 0
M  V30 26 C 0.823914 -1.691461 -0.897802 0
M  V30 27 C -0.951147 -1.403743 -2.537623 0
M  V30 28 N -1.663292 -0.588052 -3.402469 0
M  V30 29 C -2.740087 0.227426 -3.660274 0
M  V30 30 O -3.614535 0.455873 -2.833048 0
M  V30 31 O -3.048647 0.924664 -4.824291 0
M  V30 32 C -4.170536 1.755547 -5.002740 0
M  V30 33 C -5.500310 1.074037 -4.893900 0
M  V30 34 C -4.169288 2.873712 -3.942416 0
M  V30 35 C -4.070663 2.434394 -6.357331 0
M  V30 36 C 1.900574 -0.964370 2.602354 0
M  V30 37 H 0.669768 -3.582725 2.869703 0
M  V30 38 H 0.515587 -2.529137 4.365605 0
M  V30 39 H 1.639311 -3.891065 4.338447 0
M  V30 40 H 6.118110 -2.508837 4.120825 0
M  V30 41 H 7.500121 -3.953379 5.173251 0
M  V30 42 H 6.378199 -5.326531 4.714027 0
M  V30 43 H 5.009008 -4.810924 6.771907 0
M  V30 44 H 6.760818 -5.193015 7.120952 0
M  V30 45 H 6.329806 -2.475630 6.599605 0
M  V30 46 H 1.516346 2.417110 0.709357 0
M  V30 47 H -1.033246 -2.009054 2.695729 0
M  V30 48 H -2.282915 -0.107430 3.957659 0
M  V30 49 H -3.945107 1.528494 3.545227 0
M  V30 50 H -2.987954 1.593948 -0.519060 0
M  V30 51 H 0.227051 0.137777 -1.818420 0
M  V30 52 H 1.717895 -1.089481 -0.613639 0
M  V30 53 H 0.585736 -2.329847 -0.037328 0
M  V30 54 H 1.136068 -2.292512 -1.785149 0
M  V30 55 H -1.652056 -2.232472 -2.160238 0
M  V30 56 H -0.170577 -1.972193 -3.049076 0
M  V30 57 H -1.108408 -0.585939 -4.337831 0
M  V30 58 H -6.235944 1.735664 -5.422271 0
M  V30 59 H -5.876996 0.949304 -3.872281 0
M  V30 60 H -5.535193 0.101499 -5.456215 0
M  V30 61 H -4.919253 2.685558 -3.156618 0
M  V30 62 H -3.172603 2.919360 -3.471614 0
M  V30 63 H -4.462293 3.807571 -4.441720 0
M  V30 64 H -3.721032 1.633240 -7.060208 0
M  V30 65 H -5.069536 2.810368 -6.670337 0
M  V30 66 H -3.364595 3.295185 -6.369140 0
M  V30 END ATOM
M  V30 BEGIN BOND
M  V30 1 1 1 2
M  V30 2 2 2 3
M  V30 3 1 3 4
M  V30 4 2 4 5
M  V30 5 1 4 6
M  V30 6 1 6 7
M  V30 7 1 7 8
M  V30 8 1 8 9
M  V30 9 1 3 10
M  V30 10 1 10 11
M  V30 11 2 11 12
M  V30 12 1 12 13
M  V30 13 2 13 14
M  V30 14 1 14 15
M  V30 15 1 15 16
M  V30 16 1 16 17
M  V30 17 2 17 18
M  V30 18 1 18 19
M  V30 19 2 19 20
M  V30 20 1 20 21
M  V30 21 1 20 22
M  V30 22 2 22 23
M  V30 23 1 23 24
M  V30 24 1 24 25
M  V30 25 1 25 26
M  V30 26 1 25 27
M  V30 27 1 27 28
M  V30 28 1 28 29
M  V30 29 2 29 30
M  V30 30 1 29 31
M  V30 31 1 31 32
M  V30 32 1 32 33
M  V30 33 1 32 34
M  V30 34 1 32 35
M  V30 35 2 15 36
M  V30 36 1 36 2
M  V30 37 1 36 11
M  V30 38 1 23 17
M  V30 39 1 1 37
M  V30 40 1 1 38
M  V30 41 1 1 39
M  V30 42 1 6 40
M  V30 43 1 7 41
M  V30 44 1 7 42
M  V30 45 1 8 43
M  V30 46 1 8 44
M  V30 47 1 9 45
M  V30 48 1 13 46
M  V30 49 1 16 47
M  V30 50 1 18 48
M  V30 51 1 19 49
M  V30 52 1 22 50
M  V30 53 1 25 51
M  V30 54 1 26 52
M  V30 55 1 26 53
M  V30 56 1 26 54
M  V30 57 1 27 55
M  V30 58 1 27 56
M  V30 59 1 28 57
M  V30 60 1 33 58
M  V30 61 1 33 59
M  V30 62 1 33 60
M  V30 63 1 34 61
M  V30 64 1 34 62
M  V30 65 1 34 63
M  V30 66 1 35 64
M  V30 67 1 35 65
M  V30 68 1 35 66
M  V30 END BOND
M  V30 END CTAB
M  END
>  <Dataset>  (793) 
ChEMBL_Kinases

>  <Ligand_Instance>  (793) 
nan

>  <PDB_ID>  (793) 
nan

>  <Standardized_SMILES>  (793) 
Cc1c(C(=O)NCCO)sc2ncnc(Nc3ccc(F)cc3OC(C)CNC(=O)OC(C)(C)C)c12

>  <Name>  (793) 
nan

>  <Pocket>  (793) 
nan

>  <ATP_Site>  (793) 
nan

>  <Peripheral>  (793) 
nan

>  <Num_H_Atoms_ProtBoundConf>  (793) 
nan

>  <Num_Resolved_Atoms>  (793) 
nan

>  <Num_Not_Resolved_Atoms>  (793) 
nan

$$$$
CHEMBL3639975
     RDKit          3D

  0  0  0  0  0  0  0  0  0  0999 V3000
M  V30 BEGIN CTAB
M  V30 COUNTS 59 64 0 0 0
M  V30 BEGIN ATOM
M  V30 1 C 1.846800 -5.785172 4.237046 0
M  V30 2 C 2.367145 -4.529947 3.899824 0
M  V30 3 C 2.111166 -4.072117 2.606742 0
M  V30 4 C 2.486100 -2.905214 2.006478 0
M  V30 5 C 3.217578 -1.822908 2.461418 0
M  V30 6 N 3.396824 -0.824654 1.579098 0
M  V30 7 C 2.903652 -0.847016 0.313624 0
M  V30 8 N 3.192427 0.303030 -0.471997 0
M  V30 9 C 2.193702 1.313850 -0.454102 0
M  V30 10 C 2.364810 2.477584 -1.169679 0
M  V30 11 N 1.490118 3.486646 -1.228887 0
M  V30 12 C 0.316658 3.404406 -0.541185 0
M  V30 13 N -0.743735 4.322310 -0.444472 0
M  V30 14 C -2.038424 4.385180 0.214357 0
M  V30 15 C -2.004945 4.202652 1.678758 0
M  V30 16 C -2.966006 3.258472 2.291359 0
M  V30 17 N -3.389830 2.147685 1.538736 0
M  V30 18 C -3.440548 2.276311 0.139240 0
M  V30 19 C -3.086305 3.581334 -0.459430 0
M  V30 20 C 0.122418 2.249712 0.182718 0
M  V30 21 N 1.031972 1.231037 0.227882 0
M  V30 22 N 2.194814 -1.921372 -0.092380 0
M  V30 23 C 1.967782 -2.972416 0.735922 0
M  V30 24 N 1.297524 -4.124346 0.540755 0
M  V30 25 C 0.603078 -4.606011 -0.622186 0
M  V30 26 C -0.868692 -4.770575 -0.435493 0
M  V30 27 C -1.506759 -4.355463 -1.753015 0
M  V30 28 C -0.345441 -4.064748 -2.685784 0
M  V30 29 C 0.663375 -3.513101 -1.668959 0
M  V30 30 C 1.379990 -4.818564 1.700273 0
M  V30 31 C 0.900569 -6.043489 2.104036 0
M  V30 32 N 1.126055 -6.517803 3.339526 0
M  V30 33 H 2.063620 -6.116059 5.254223 0
M  V30 34 H 2.937728 -3.962239 4.626190 0
M  V30 35 H 3.630165 -1.751678 3.447926 0
M  V30 36 H 4.040760 0.441076 -1.026421 0
M  V30 37 H 3.234913 2.687981 -1.759431 0
M  V30 38 H -0.427912 5.151114 -1.039063 0
M  V30 39 H -2.352357 5.476107 0.050872 0
M  V30 40 H -0.929631 3.971595 1.951836 0
M  V30 41 H -2.162414 5.197020 2.201803 0
M  V30 42 H -2.448022 2.839163 3.209597 0
M  V30 43 H -3.880716 3.746117 2.742197 0
M  V30 44 H -3.178408 1.219511 1.914628 0
M  V30 45 H -4.464535 1.981214 -0.198998 0
M  V30 46 H -2.762033 1.490838 -0.308546 0
M  V30 47 H -4.026764 4.177118 -0.533123 0
M  V30 48 H -2.801165 3.412542 -1.547673 0
M  V30 49 H -0.697963 1.899854 0.823489 0
M  V30 50 H 1.029738 -5.511203 -1.052703 0
M  V30 51 H -1.103048 -5.842728 -0.314522 0
M  V30 52 H -1.318128 -4.116559 0.333069 0
M  V30 53 H -2.106729 -3.426728 -1.665808 0
M  V30 54 H -2.098095 -5.143797 -2.212924 0
M  V30 55 H -0.607510 -3.314938 -3.457288 0
M  V30 56 H 0.116042 -4.990315 -3.084184 0
M  V30 57 H 0.260585 -2.545371 -1.332192 0
M  V30 58 H 1.615083 -3.463098 -2.214406 0
M  V30 59 H 0.321796 -6.666769 1.430781 0
M  V30 END ATOM
M  V30 BEGIN BOND
M  V30 1 2 1 2
M  V30 2 1 2 3
M  V30 3 1 3 4
M  V30 4 2 4 5
M  V30 5 1 5 6
M  V30 6 2 6 7
M  V30 7 1 7 8
M  V30 8 1 8 9
M  V30 9 2 9 10
M  V30 10 1 10 11
M  V30 11 2 11 12
M  V30 12 1 12 13
M  V30 13 1 13 14
M  V30 14 1 14 15
M  V30 15 1 15 16
M  V30 16 1 16 17
M  V30 17 1 17 18
M  V30 18 1 18 19
M  V30 19 1 12 20
M  V30 20 2 20 21
M  V30 21 1 7 22
M  V30 22 2 22 23
M  V30 23 1 23 24
M  V30 24 1 24 25
M  V30 25 1 25 26
M  V30 26 1 26 27
M  V30 27 1 27 28
M  V30 28 1 28 29
M  V30 29 1 24 30
M  V30 30 1 30 31
M  V30 31 2 31 32
M  V30 32 1 32 1
M  V30 33 2 30 3
M  V30 34 1 23 4
M  V30 35 1 29 25
M  V30 36 1 21 9
M  V30 37 1 19 14
M  V30 38 1 1 33
M  V30 39 1 2 34
M  V30 40 1 5 35
M  V30 41 1 8 36
M  V30 42 1 10 37
M  V30 43 1 13 38
M  V30 44 1 14 39
M  V30 45 1 15 40
M  V30 46 1 15 41
M  V30 47 1 16 42
M  V30 48 1 16 43
M  V30 49 1 17 44
M  V30 50 1 18 45
M  V30 51 1 18 46
M  V30 52 1 19 47
M  V30 53 1 19 48
M  V30 54 1 20 49
M  V30 55 1 25 50
M  V30 56 1 26 51
M  V30 57 1 26 52
M  V30 58 1 27 53
M  V30 59 1 27 54
M  V30 60 1 28 55
M  V30 61 1 28 56
M  V30 62 1 29 57
M  V30 63 1 29 58
M  V30 64 1 31 59
M  V30 END BOND
M  V30 END CTAB
M  END
>  <Dataset>  (794) 
ChEMBL_Kinases

>  <Ligand_Instance>  (794) 
nan

>  <PDB_ID>  (794) 
nan

>  <Standardized_SMILES>  (794) 
c1cc2c3cnc(Nc4cnc(NC5CCNCC5)cn4)nc3n(C3CCCC3)c2cn1

>  <Name>  (794) 
nan

>  <Pocket>  (794) 
nan

>  <ATP_Site>  (794) 
nan

>  <Peripheral>  (794) 
nan

>  <Num_H_Atoms_ProtBoundConf>  (794) 
nan

>  <Num_Resolved_Atoms>  (794) 
nan

>  <Num_Not_Resolved_Atoms>  (794) 
nan

$$$$
CHEMBL3639951
     RDKit          3D

  0  0  0  0  0  0  0  0  0  0999 V3000
M  V30 BEGIN CTAB
M  V30 COUNTS 41 43 0 0 0
M  V30 BEGIN ATOM
M  V30 1 O -0.647244 -3.414980 3.998614 0
M  V30 2 C 0.117178 -2.796390 3.166118 0
M  V30 3 C 1.587135 -2.687096 3.029541 0
M  V30 4 C 2.075552 -1.355612 2.638404 0
M  V30 5 N 1.892222 -0.711382 1.501695 0
M  V30 6 C 2.347125 0.435091 1.077099 0
M  V30 7 N 1.965871 0.905018 -0.250855 0
M  V30 8 C 0.554862 0.816756 -0.626443 0
M  V30 9 C 0.371557 -0.148716 -1.786913 0
M  V30 10 O 1.477384 -0.071527 -2.640536 0
M  V30 11 C 1.991172 1.226152 -2.626162 0
M  V30 12 C 2.751115 1.452792 -1.337309 0
M  V30 13 C 3.166316 1.129569 1.929269 0
M  V30 14 C 3.425508 0.554075 3.156569 0
M  V30 15 O 4.165312 1.177512 3.956027 0
M  V30 16 N 2.867485 -0.639564 3.433610 0
M  V30 17 N -0.682861 -2.108346 2.216325 0
M  V30 18 C -1.931402 -1.738829 1.665742 0
M  V30 19 C -2.632969 -0.643450 2.205205 0
M  V30 20 C -3.854331 -0.396985 1.634148 0
M  V30 21 C -4.360896 -1.191356 0.587864 0
M  V30 22 C -3.615797 -2.275235 0.082208 0
M  V30 23 F -4.122285 -3.051022 -0.912356 0
M  V30 24 C -2.369941 -2.544896 0.645721 0
M  V30 25 F -1.683134 -3.589687 0.114911 0
M  V30 26 H 1.922477 -3.453544 2.319616 0
M  V30 27 H 2.063617 -2.941959 4.031628 0
M  V30 28 H -0.032767 0.472028 0.215011 0
M  V30 29 H 0.186331 1.842649 -0.903556 0
M  V30 30 H 0.224113 -1.187518 -1.450427 0
M  V30 31 H -0.585185 0.153707 -2.315950 0
M  V30 32 H 2.681230 1.344819 -3.506683 0
M  V30 33 H 1.144561 1.924107 -2.680929 0
M  V30 34 H 2.872092 2.535344 -1.169183 0
M  V30 35 H 3.760445 0.976695 -1.375626 0
M  V30 36 H 3.553726 2.092310 1.587993 0
M  V30 37 H 3.164325 -0.968393 4.402866 0
M  V30 38 H -0.132383 -1.566853 1.470825 0
M  V30 39 H -2.253431 -0.037690 3.006183 0
M  V30 40 H -4.536248 0.419171 1.932063 0
M  V30 41 H -5.335003 -1.032816 0.132755 0
M  V30 END ATOM
M  V30 BEGIN BOND
M  V30 1 2 1 2
M  V30 2 1 2 3
M  V30 3 1 3 4
M  V30 4 2 4 5
M  V30 5 1 5 6
M  V30 6 1 6 7
M  V30 7 1 7 8
M  V30 8 1 8 9
M  V30 9 1 9 10
M  V30 10 1 10 11
M  V30 11 1 11 12
M  V30 12 2 6 13
M  V30 13 1 13 14
M  V30 14 2 14 15
M  V30 15 1 14 16
M  V30 16 1 2 17
M  V30 17 1 17 18
M  V30 18 2 18 19
M  V30 19 1 19 20
M  V30 20 2 20 21
M  V30 21 1 21 22
M  V30 22 1 22 23
M  V30 23 2 22 24
M  V30 24 1 24 25
M  V30 25 1 16 4
M  V30 26 1 24 18
M  V30 27 1 12 7
M  V30 28 1 3 26
M  V30 29 1 3 27
M  V30 30 1 8 28
M  V30 31 1 8 29
M  V30 32 1 9 30
M  V30 33 1 9 31
M  V30 34 1 11 32
M  V30 35 1 11 33
M  V30 36 1 12 34
M  V30 37 1 12 35
M  V30 38 1 13 36
M  V30 39 1 16 37
M  V30 40 1 17 38
M  V30 41 1 19 39
M  V30 42 1 20 40
M  V30 43 1 21 41
M  V30 END BOND
M  V30 END CTAB
M  END
>  <Dataset>  (795) 
ChEMBL_Kinases

>  <Ligand_Instance>  (795) 
nan

>  <PDB_ID>  (795) 
nan

>  <Standardized_SMILES>  (795) 
O=C(Cc1nc(N2CCOCC2)cc(=O)[nH]1)Nc1cccc(F)c1F

>  <Name>  (795) 
nan

>  <Pocket>  (795) 
nan

>  <ATP_Site>  (795) 
nan

>  <Peripheral>  (795) 
nan

>  <Num_H_Atoms_ProtBoundConf>  (795) 
nan

>  <Num_Resolved_Atoms>  (795) 
nan

>  <Num_Not_Resolved_Atoms>  (795) 
nan

$$$$
CHEMBL3639932
     RDKit          3D

  0  0  0  0  0  0  0  0  0  0999 V3000
M  V30 BEGIN CTAB
M  V30 COUNTS 51 53 0 0 0
M  V30 BEGIN ATOM
M  V30 1 C -0.084755 -4.799211 3.227707 0
M  V30 2 C -0.259753 -3.566301 2.390235 0 CFG=1
M  V30 3 N 1.039857 -2.967292 2.152097 0
M  V30 4 C 1.695856 -2.588486 3.386522 0
M  V30 5 C 3.064585 -1.957365 3.091897 0
M  V30 6 C 2.846479 -0.745345 2.246199 0
M  V30 7 C 3.124964 -0.815783 0.908466 0
M  V30 8 C 2.937133 0.277900 0.091003 0
M  V30 9 C 2.461256 1.440641 0.662684 0
M  V30 10 N 2.192088 2.696235 0.003896 0
M  V30 11 C 0.885157 2.814228 -0.486548 0
M  V30 12 O 0.118924 1.834489 -0.299310 0
M  V30 13 N 0.286266 3.908452 -1.182163 0
M  V30 14 C -1.055110 3.883287 -1.617869 0
M  V30 15 C -1.878353 4.394229 -0.613850 0
M  V30 16 N -3.230156 4.492343 -0.753836 0
M  V30 17 C -3.821500 4.080155 -1.914198 0
M  V30 18 C -5.244757 4.179259 -2.070630 0
M  V30 19 N -6.376860 4.239204 -2.195093 0
M  V30 20 C -2.980199 3.580101 -2.886819 0
M  V30 21 N -1.645149 3.476587 -2.764541 0
M  V30 22 C 2.178117 1.515491 2.018111 0
M  V30 23 C 2.372645 0.398942 2.838620 0
M  V30 24 Cl 2.031118 0.433985 4.565776 0
M  V30 25 C -0.814488 -3.969893 1.061055 0
M  V30 26 C -0.010016 -4.616770 0.160711 0
M  V30 27 C -0.519283 -4.991030 -1.068663 0
M  V30 28 C -1.842145 -4.731524 -1.434729 0
M  V30 29 F -2.245300 -5.147543 -2.683140 0
M  V30 30 C -2.653887 -4.070229 -0.506652 0
M  V30 31 C -2.118975 -3.711838 0.705068 0
M  V30 32 H -0.624569 -5.674858 2.776580 0
M  V30 33 H -0.523841 -4.606678 4.229471 0
M  V30 34 H 0.980029 -5.100114 3.253676 0
M  V30 35 H -0.945064 -2.826700 2.854290 0
M  V30 36 H 0.931772 -2.132435 1.563580 0
M  V30 37 H 1.823920 -3.439706 4.085050 0
M  V30 38 H 1.053821 -1.855291 3.923537 0
M  V30 39 H 3.690405 -2.704137 2.604197 0
M  V30 40 H 3.429827 -1.597503 4.071663 0
M  V30 41 H 3.499468 -1.704861 0.412066 0
M  V30 42 H 3.117145 0.347163 -0.964528 0
M  V30 43 H 2.807853 3.545686 -0.175053 0
M  V30 44 H 1.004404 4.681703 -1.292253 0
M  V30 45 H -1.594569 4.771735 0.376218 0
M  V30 46 H -3.407652 3.246747 -3.810707 0
M  V30 47 H 1.803705 2.382862 2.544467 0
M  V30 48 H 1.036426 -4.838368 0.412666 0
M  V30 49 H 0.165303 -5.506276 -1.753689 0
M  V30 50 H -3.661461 -3.883099 -0.810064 0
M  V30 51 H -2.792975 -3.199496 1.391487 0
M  V30 END ATOM
M  V30 BEGIN BOND
M  V30 1 1 1 2
M  V30 2 1 2 3
M  V30 3 1 3 4
M  V30 4 1 4 5
M  V30 5 1 5 6
M  V30 6 2 6 7
M  V30 7 1 7 8
M  V30 8 2 8 9
M  V30 9 1 9 10
M  V30 10 1 10 11
M  V30 11 2 11 12
M  V30 12 1 11 13
M  V30 13 1 13 14
M  V30 14 2 14 15
M  V30 15 1 15 16
M  V30 16 2 16 17
M  V30 17 1 17 18
M  V30 18 3 18 19
M  V30 19 1 17 20
M  V30 20 2 20 21
M  V30 21 1 9 22
M  V30 22 2 22 23
M  V30 23 1 23 24
M  V30 24 1 2 25
M  V30 25 2 25 26
M  V30 26 1 26 27
M  V30 27 2 27 28
M  V30 28 1 28 29
M  V30 29 1 28 30
M  V30 30 2 30 31
M  V30 31 1 23 6
M  V30 32 1 31 25
M  V30 33 1 21 14
M  V30 34 1 1 32
M  V30 35 1 1 33
M  V30 36 1 1 34
M  V30 37 1 2 35 CFG=1
M  V30 38 1 3 36
M  V30 39 1 4 37
M  V30 40 1 4 38
M  V30 41 1 5 39
M  V30 42 1 5 40
M  V30 43 1 7 41
M  V30 44 1 8 42
M  V30 45 1 10 43
M  V30 46 1 13 44
M  V30 47 1 15 45
M  V30 48 1 20 46
M  V30 49 1 22 47
M  V30 50 1 26 48
M  V30 51 1 27 49
M  V30 52 1 30 50
M  V30 53 1 31 51
M  V30 END BOND
M  V30 END CTAB
M  END
>  <Dataset>  (796) 
ChEMBL_Kinases

>  <Ligand_Instance>  (796) 
nan

>  <PDB_ID>  (796) 
nan

>  <Standardized_SMILES>  (796) 
C[C@@H](NCCc1ccc(NC(=O)Nc2cnc(C#N)cn2)cc1Cl)c1ccc(F)cc1

>  <Name>  (796) 
nan

>  <Pocket>  (796) 
nan

>  <ATP_Site>  (796) 
nan

>  <Peripheral>  (796) 
nan

>  <Num_H_Atoms_ProtBoundConf>  (796) 
nan

>  <Num_Resolved_Atoms>  (796) 
nan

>  <Num_Not_Resolved_Atoms>  (796) 
nan

$$$$
CHEMBL3629155
     RDKit          3D

  0  0  0  0  0  0  0  0  0  0999 V3000
M  V30 BEGIN CTAB
M  V30 COUNTS 56 59 0 0 0
M  V30 BEGIN ATOM
M  V30 1 C 3.981463 0.017743 4.169793 0
M  V30 2 C 2.780020 -0.852263 3.997043 0
M  V30 3 C 2.534459 -1.251063 2.563001 0
M  V30 4 C 2.323552 -0.117630 1.670404 0
M  V30 5 C 3.429292 0.431806 1.048299 0
M  V30 6 N 3.267718 1.488306 0.205258 0
M  V30 7 C 2.031838 1.956715 0.011486 0
M  V30 8 N 1.817868 3.063975 -0.868346 0
M  V30 9 C 0.883316 1.430127 0.622177 0
M  V30 10 C -0.474356 2.054132 0.321835 0
M  V30 11 N -0.819717 1.602346 -0.934375 0
M  V30 12 C -1.212004 0.268331 -1.239888 0
M  V30 13 N -2.010697 -0.233891 -0.414029 0
M  V30 14 C -2.520901 0.410833 0.738195 0
M  V30 15 O -3.159785 1.414721 0.300812 0
M  V30 16 C -2.329373 -0.025549 2.123759 0
M  V30 17 C -2.881236 0.733886 3.133411 0
M  V30 18 C -2.700110 0.301036 4.426053 0
M  V30 19 C -2.003299 -0.839046 4.763730 0
M  V30 20 C -1.485298 -1.539045 3.689595 0
M  V30 21 C -1.619236 -1.178340 2.362738 0
M  V30 22 N -0.820333 -0.497206 -2.359321 0
M  V30 23 C -1.249939 -1.801056 -2.691615 0
M  V30 24 C -2.099570 -2.650101 -2.047064 0
M  V30 25 C -2.467703 -3.908119 -2.455115 0
M  V30 26 C -1.947525 -4.395381 -3.629729 0
M  V30 27 N -2.148683 -5.574331 -4.234177 0
M  V30 28 C -1.371337 -5.481231 -5.354141 0
M  V30 29 O -1.248186 -6.376491 -6.235006 0
M  V30 30 O -0.754197 -4.316992 -5.399057 0
M  V30 31 C -1.082601 -3.607490 -4.348250 0
M  V30 32 C -0.759528 -2.362990 -3.880860 0
M  V30 33 N 1.110055 0.389468 1.441917 0
M  V30 34 H 4.005306 0.365618 5.232271 0
M  V30 35 H 4.933600 -0.523452 3.998637 0
M  V30 36 H 3.980757 0.918219 3.527298 0
M  V30 37 H 1.877272 -0.381075 4.415588 0
M  V30 38 H 2.964901 -1.780864 4.600971 0
M  V30 39 H 3.417473 -1.827528 2.215509 0
M  V30 40 H 1.692215 -1.997428 2.558979 0
M  V30 41 H 4.436210 0.099360 1.164240 0
M  V30 42 H 1.650455 4.096154 -0.813695 0
M  V30 43 H 1.654641 4.088616 -0.744372 0
M  V30 44 H -0.163984 3.139220 0.096059 0
M  V30 45 H -0.863426 2.213858 1.243387 0
M  V30 46 H -0.817603 2.199467 -1.849811 0
M  V30 47 H -3.442427 1.648442 2.923283 0
M  V30 48 H -3.110752 0.849282 5.291513 0
M  V30 49 H -1.856376 -1.190456 5.782871 0
M  V30 50 H -0.917072 -2.456278 3.875916 0
M  V30 51 H -1.178180 -1.790563 1.566716 0
M  V30 52 H -0.144473 -0.025867 -3.001165 0
M  V30 53 H -2.524929 -2.314116 -1.133836 0
M  V30 54 H -3.149653 -4.500105 -1.863825 0
M  V30 55 H -2.743152 -6.372732 -3.945887 0
M  V30 56 H -0.071264 -1.818850 -4.516336 0
M  V30 END ATOM
M  V30 BEGIN BOND
M  V30 1 1 1 2
M  V30 2 1 2 3
M  V30 3 1 3 4
M  V30 4 2 4 5
M  V30 5 1 5 6
M  V30 6 2 6 7
M  V30 7 1 7 8
M  V30 8 1 7 9
M  V30 9 1 9 10
M  V30 10 1 10 11
M  V30 11 1 11 12
M  V30 12 2 12 13
M  V30 13 1 13 14
M  V30 14 2 14 15
M  V30 15 1 14 16
M  V30 16 2 16 17
M  V30 17 1 17 18
M  V30 18 2 18 19
M  V30 19 1 19 20
M  V30 20 2 20 21
M  V30 21 1 12 22
M  V30 22 1 22 23
M  V30 23 2 23 24
M  V30 24 1 24 25
M  V30 25 2 25 26
M  V30 26 1 26 27
M  V30 27 1 27 28
M  V30 28 2 28 29
M  V30 29 1 28 30
M  V30 30 1 30 31
M  V30 31 2 31 32
M  V30 32 2 9 33
M  V30 33 1 33 4
M  V30 34 1 21 16
M  V30 35 1 32 23
M  V30 36 1 31 26
M  V30 37 1 1 34
M  V30 38 1 1 35
M  V30 39 1 1 36
M  V30 40 1 2 37
M  V30 41 1 2 38
M  V30 42 1 3 39
M  V30 43 1 3 40
M  V30 44 1 5 41
M  V30 45 1 8 42
M  V30 46 1 8 43
M  V30 47 1 10 44
M  V30 48 1 10 45
M  V30 49 1 11 46
M  V30 50 1 17 47
M  V30 51 1 18 48
M  V30 52 1 19 49
M  V30 53 1 20 50
M  V30 54 1 21 51
M  V30 55 1 22 52
M  V30 56 1 24 53
M  V30 57 1 25 54
M  V30 58 1 27 55
M  V30 59 1 32 56
M  V30 END BOND
M  V30 END CTAB
M  END
>  <Dataset>  (797) 
ChEMBL_Kinases

>  <Ligand_Instance>  (797) 
nan

>  <PDB_ID>  (797) 
nan

>  <Standardized_SMILES>  (797) 
CCCc1cnc(N)c(CN/C(=N\C(=O)c2ccccc2)Nc2ccc3[nH]c(=O)oc3c2)n1

>  <Name>  (797) 
nan

>  <Pocket>  (797) 
nan

>  <ATP_Site>  (797) 
nan

>  <Peripheral>  (797) 
nan

>  <Num_H_Atoms_ProtBoundConf>  (797) 
nan

>  <Num_Resolved_Atoms>  (797) 
nan

>  <Num_Not_Resolved_Atoms>  (797) 
nan

$$$$
CHEMBL3639699
     RDKit          3D

  0  0  0  0  0  0  0  0  0  0999 V3000
M  V30 BEGIN CTAB
M  V30 COUNTS 69 73 0 0 0
M  V30 BEGIN ATOM
M  V30 1 O 1.624823 1.182631 1.886429 0
M  V30 2 C 1.682096 2.326316 2.443277 0
M  V30 3 N 2.971528 2.721081 2.853050 0
M  V30 4 C 4.129544 1.921710 2.662362 0
M  V30 5 C 4.599935 1.605375 1.291815 0
M  V30 6 C 5.045389 2.730288 0.438627 0
M  V30 7 C 4.073775 3.747954 -0.035368 0
M  V30 8 C 3.056337 3.300846 -0.983752 0
M  V30 9 C 1.761978 2.887334 -1.124307 0
M  V30 10 C 1.133812 2.482812 -2.269985 0
M  V30 11 C 1.829339 2.468982 -3.447214 0
M  V30 12 C 3.153082 2.868537 -3.432517 0
M  V30 13 C 3.732360 3.270532 -2.220820 0
M  V30 14 N 0.487950 3.077785 2.598180 0
M  V30 15 C -0.793099 2.633463 2.166571 0
M  V30 16 C -1.900810 3.438960 2.358060 0
M  V30 17 C -3.173118 3.075919 1.966368 0
M  V30 18 C -3.271936 1.839133 1.362216 0
M  V30 19 N -4.504003 1.454673 0.967771 0
M  V30 20 C -4.681945 0.258089 0.369414 0
M  V30 21 C -3.601462 -0.577309 0.159049 0
M  V30 22 C -3.826389 -1.864357 -0.488137 0
M  V30 23 C -5.028408 -2.369562 -0.934687 0
M  V30 24 N -4.832422 -3.585441 -1.473120 0
M  V30 25 N -3.528927 -3.902525 -1.396093 0
M  V30 26 C -2.983816 -5.156747 -1.892799 0
M  V30 27 C -2.999878 -6.218608 -0.842663 0
M  V30 28 N -2.220626 -5.912446 0.338667 0
M  V30 29 C -2.333106 -6.964900 1.338217 0
M  V30 30 C -1.767213 -6.451099 2.643634 0
M  V30 31 O -0.946154 -5.380773 2.385816 0
M  V30 32 C -0.086526 -5.541864 1.319345 0
M  V30 33 C -0.822313 -5.683388 0.004013 0
M  V30 34 C -2.924296 -2.859255 -0.800057 0
M  V30 35 N -2.379880 -0.179538 0.558070 0
M  V30 36 C -2.183861 1.011438 1.156828 0
M  V30 37 N -0.964949 1.438487 1.569651 0
M  V30 38 H 3.040227 3.668633 3.323543 0
M  V30 39 H 3.968161 0.962671 3.259165 0
M  V30 40 H 5.010025 2.393382 3.229774 0
M  V30 41 H 3.743765 1.116400 0.743818 0
M  V30 42 H 5.393739 0.807363 1.392912 0
M  V30 43 H 5.917723 3.285171 0.947562 0
M  V30 44 H 5.598988 2.263913 -0.443911 0
M  V30 45 H 4.570130 4.701404 -0.346799 0
M  V30 46 H 3.487614 4.062576 0.894371 0
M  V30 47 H 1.312842 2.958171 -0.162379 0
M  V30 48 H 0.106923 2.210774 -2.079532 0
M  V30 49 H 1.267277 2.139128 -4.302800 0
M  V30 50 H 3.580117 2.810429 -4.419518 0
M  V30 51 H 4.769875 3.529625 -2.497424 0
M  V30 52 H 0.585400 4.006868 3.059282 0
M  V30 53 H -1.805727 4.412729 2.836806 0
M  V30 54 H -4.040057 3.723027 2.123662 0
M  V30 55 H -5.662864 -0.071815 0.043996 0
M  V30 56 H -5.994314 -1.883764 -0.873901 0
M  V30 57 H -1.979942 -5.013011 -2.348052 0
M  V30 58 H -3.632366 -5.480412 -2.731663 0
M  V30 59 H -2.506458 -7.128416 -1.296819 0
M  V30 60 H -4.016502 -6.535656 -0.613182 0
M  V30 61 H -3.346748 -7.366961 1.414985 0
M  V30 62 H -1.685502 -7.816889 0.982865 0
M  V30 63 H -2.605828 -6.119396 3.302061 0
M  V30 64 H -1.147220 -7.205210 3.182014 0
M  V30 65 H 0.552173 -6.420536 1.557747 0
M  V30 66 H 0.563882 -4.658960 1.273430 0
M  V30 67 H -0.460340 -6.651240 -0.446766 0
M  V30 68 H -0.634161 -4.815013 -0.613271 0
M  V30 69 H -1.868807 -2.785297 -0.583559 0
M  V30 END ATOM
M  V30 BEGIN BOND
M  V30 1 2 1 2
M  V30 2 1 2 3
M  V30 3 1 3 4
M  V30 4 1 4 5
M  V30 5 1 5 6
M  V30 6 1 6 7
M  V30 7 1 7 8
M  V30 8 2 8 9
M  V30 9 1 9 10
M  V30 10 2 10 11
M  V30 11 1 11 12
M  V30 12 2 12 13
M  V30 13 1 2 14
M  V30 14 1 14 15
M  V30 15 2 15 16
M  V30 16 1 16 17
M  V30 17 2 17 18
M  V30 18 1 18 19
M  V30 19 2 19 20
M  V30 20 1 20 21
M  V30 21 1 21 22
M  V30 22 1 22 23
M  V30 23 2 23 24
M  V30 24 1 24 25
M  V30 25 1 25 26
M  V30 26 1 26 27
M  V30 27 1 27 28
M  V30 28 1 28 29
M  V30 29 1 29 30
M  V30 30 1 30 31
M  V30 31 1 31 32
M  V30 32 1 32 33
M  V30 33 1 25 34
M  V30 34 2 21 35
M  V30 35 1 35 36
M  V30 36 2 36 37
M  V30 37 1 13 8
M  V30 38 1 37 15
M  V30 39 1 36 18
M  V30 40 2 34 22
M  V30 41 1 33 28
M  V30 42 1 3 38
M  V30 43 1 4 39
M  V30 44 1 4 40
M  V30 45 1 5 41
M  V30 46 1 5 42
M  V30 47 1 6 43
M  V30 48 1 6 44
M  V30 49 1 7 45
M  V30 50 1 7 46
M  V30 51 1 9 47
M  V30 52 1 10 48
M  V30 53 1 11 49
M  V30 54 1 12 50
M  V30 55 1 13 51
M  V30 56 1 14 52
M  V30 57 1 16 53
M  V30 58 1 17 54
M  V30 59 1 20 55
M  V30 60 1 23 56
M  V30 61 1 26 57
M  V30 62 1 26 58
M  V30 63 1 27 59
M  V30 64 1 27 60
M  V30 65 1 29 61
M  V30 66 1 29 62
M  V30 67 1 30 63
M  V30 68 1 30 64
M  V30 69 1 32 65
M  V30 70 1 32 66
M  V30 71 1 33 67
M  V30 72 1 33 68
M  V30 73 1 34 69
M  V30 END BOND
M  V30 END CTAB
M  END
>  <Dataset>  (798) 
ChEMBL_Kinases

>  <Ligand_Instance>  (798) 
nan

>  <PDB_ID>  (798) 
nan

>  <Standardized_SMILES>  (798) 
O=C(NCCCCc1ccccc1)Nc1ccc2ncc(-c3cnn(CCN4CCOCC4)c3)nc2n1

>  <Name>  (798) 
nan

>  <Pocket>  (798) 
nan

>  <ATP_Site>  (798) 
nan

>  <Peripheral>  (798) 
nan

>  <Num_H_Atoms_ProtBoundConf>  (798) 
nan

>  <Num_Resolved_Atoms>  (798) 
nan

>  <Num_Not_Resolved_Atoms>  (798) 
nan

$$$$
CHEMBL3639724
     RDKit          3D

  0  0  0  0  0  0  0  0  0  0999 V3000
M  V30 BEGIN CTAB
M  V30 COUNTS 52 56 0 0 0
M  V30 BEGIN ATOM
M  V30 1 C -0.136989 -4.468278 4.186760 0
M  V30 2 C -0.181958 -3.728297 2.871645 0
M  V30 3 C -1.466520 -3.963267 2.123955 0
M  V30 4 N 0.952678 -3.996793 2.017852 0
M  V30 5 C 1.699479 -3.106716 1.318729 0
M  V30 6 N 1.496086 -1.702110 1.297403 0
M  V30 7 C 0.701789 -0.905239 0.436589 0
M  V30 8 O 0.091782 -1.574494 -0.436983 0
M  V30 9 C 0.659637 0.541397 0.623800 0
M  V30 10 C 1.334198 1.263921 1.587126 0
M  V30 11 C 1.192716 2.635480 1.637629 0
M  V30 12 C 0.376699 3.258635 0.720550 0
M  V30 13 N 0.096685 4.585780 0.590441 0
M  V30 14 C -0.754145 4.739377 -0.448042 0
M  V30 15 N -1.005394 3.503015 -0.967217 0
M  V30 16 C -0.314457 2.586311 -0.255202 0
M  V30 17 C -0.155533 1.200574 -0.286246 0
M  V30 18 C -1.821165 3.039262 -2.064182 0
M  V30 19 C -2.231641 4.131726 -3.007723 0
M  V30 20 C -3.232266 5.082506 -2.404104 0
M  V30 21 N -2.497252 6.179682 -1.758301 0
M  V30 22 C -1.319475 5.992705 -0.947175 0
M  V30 23 O -0.643253 6.996457 -0.586311 0
M  V30 24 N 2.658472 -3.733605 0.648510 0
M  V30 25 C 2.576854 -5.045943 0.881136 0
M  V30 26 C 3.297177 -6.136467 0.457395 0
M  V30 27 C 3.004160 -7.425264 0.852513 0
M  V30 28 C 1.924887 -7.590678 1.718767 0
M  V30 29 C 1.188991 -6.493911 2.153898 0
M  V30 30 C 1.495823 -5.215491 1.749297 0
M  V30 31 H -0.942224 -5.250721 4.255086 0
M  V30 32 H -0.363292 -3.794352 5.048814 0
M  V30 33 H 0.875171 -4.869059 4.402248 0
M  V30 34 H -0.138745 -2.640828 3.124540 0
M  V30 35 H -1.323262 -4.669479 1.260413 0
M  V30 36 H -2.289643 -4.328320 2.786823 0
M  V30 37 H -1.832365 -3.010548 1.682287 0
M  V30 38 H 2.072611 -1.324532 2.080743 0
M  V30 39 H 1.944362 0.703733 2.257241 0
M  V30 40 H 1.743933 3.152667 2.412677 0
M  V30 41 H -0.711045 0.693609 -1.064955 0
M  V30 42 H -2.695232 2.492039 -1.656272 0
M  V30 43 H -1.223397 2.302982 -2.639575 0
M  V30 44 H -2.664984 3.621441 -3.909996 0
M  V30 45 H -1.325987 4.664782 -3.343432 0
M  V30 46 H -3.874079 4.574611 -1.639148 0
M  V30 47 H -3.857837 5.502977 -3.207549 0
M  V30 48 H -2.709901 7.198859 -1.791414 0
M  V30 49 H 4.130106 -6.004800 -0.211662 0
M  V30 50 H 3.554344 -8.299054 0.534119 0
M  V30 51 H 1.643095 -8.592731 2.068237 0
M  V30 52 H 0.364649 -6.670096 2.821953 0
M  V30 END ATOM
M  V30 BEGIN BOND
M  V30 1 1 1 2
M  V30 2 1 2 3
M  V30 3 1 2 4
M  V30 4 1 4 5
M  V30 5 1 5 6
M  V30 6 1 6 7
M  V30 7 2 7 8
M  V30 8 1 7 9
M  V30 9 2 9 10
M  V30 10 1 10 11
M  V30 11 2 11 12
M  V30 12 1 12 13
M  V30 13 2 13 14
M  V30 14 1 14 15
M  V30 15 1 15 16
M  V30 16 2 16 17
M  V30 17 1 15 18
M  V30 18 1 18 19
M  V30 19 1 19 20
M  V30 20 1 20 21
M  V30 21 1 21 22
M  V30 22 2 22 23
M  V30 23 2 5 24
M  V30 24 1 24 25
M  V30 25 2 25 26
M  V30 26 1 26 27
M  V30 27 2 27 28
M  V30 28 1 28 29
M  V30 29 2 29 30
M  V30 30 1 30 4
M  V30 31 1 17 9
M  V30 32 1 30 25
M  V30 33 1 16 12
M  V30 34 1 22 14
M  V30 35 1 1 31
M  V30 36 1 1 32
M  V30 37 1 1 33
M  V30 38 1 2 34
M  V30 39 1 3 35
M  V30 40 1 3 36
M  V30 41 1 3 37
M  V30 42 1 6 38
M  V30 43 1 10 39
M  V30 44 1 11 40
M  V30 45 1 17 41
M  V30 46 1 18 42
M  V30 47 1 18 43
M  V30 48 1 19 44
M  V30 49 1 19 45
M  V30 50 1 20 46
M  V30 51 1 20 47
M  V30 52 1 21 48
M  V30 53 1 26 49
M  V30 54 1 27 50
M  V30 55 1 28 51
M  V30 56 1 29 52
M  V30 END BOND
M  V30 END CTAB
M  END
>  <Dataset>  (799) 
ChEMBL_Kinases

>  <Ligand_Instance>  (799) 
nan

>  <PDB_ID>  (799) 
nan

>  <Standardized_SMILES>  (799) 
CC(C)n1c(NC(=O)c2ccc3nc4n(c3c2)CCCNC4=O)nc2ccccc21

>  <Name>  (799) 
nan

>  <Pocket>  (799) 
nan

>  <ATP_Site>  (799) 
nan

>  <Peripheral>  (799) 
nan

>  <Num_H_Atoms_ProtBoundConf>  (799) 
nan

>  <Num_Resolved_Atoms>  (799) 
nan

>  <Num_Not_Resolved_Atoms>  (799) 
nan

$$$$
CHEMBL3639725
     RDKit          3D

  0  0  0  0  0  0  0  0  0  0999 V3000
M  V30 BEGIN CTAB
M  V30 COUNTS 57 61 0 0 0
M  V30 BEGIN ATOM
M  V30 1 C 2.355005 -5.894812 2.237319 0
M  V30 2 N 1.762930 -4.642969 1.787156 0
M  V30 3 C 2.259181 -3.397963 1.914645 0
M  V30 4 C 1.416239 -2.458081 1.365503 0
M  V30 5 N 1.532250 -1.043560 1.272872 0
M  V30 6 C 2.637078 -0.313651 1.778264 0
M  V30 7 O 3.592395 -0.901557 2.347835 0
M  V30 8 C 2.678331 1.146518 1.641232 0
M  V30 9 C 3.750317 1.861934 2.129885 0
M  V30 10 C 3.683368 3.235936 1.944808 0
M  V30 11 C 2.616232 3.842249 1.314718 0
M  V30 12 C 2.322654 5.168216 1.015116 0
M  V30 13 C 1.106461 5.157113 0.373542 0
M  V30 14 N 0.633973 3.894901 0.261317 0
M  V30 15 C 1.563752 3.097224 0.839612 0
M  V30 16 N 1.665301 1.787184 1.036011 0
M  V30 17 C -0.555738 3.280026 -0.300400 0
M  V30 18 C -1.148593 4.143039 -1.388919 0
M  V30 19 C -1.812176 5.376252 -0.857836 0
M  V30 20 N -0.897308 6.495963 -0.743722 0
M  V30 21 C 0.382251 6.323812 -0.136274 0
M  V30 22 O 1.078026 7.382871 0.015078 0
M  V30 23 N 0.389017 -3.189483 0.900652 0
M  V30 24 C 0.587531 -4.495043 1.148032 0
M  V30 25 C -0.313571 -5.585267 0.788995 0
M  V30 26 O 0.012030 -6.764736 1.090050 0
M  V30 27 N -1.521903 -5.330425 0.120581 0
M  V30 28 C -2.557562 -6.216402 -0.332125 0
M  V30 29 C -3.934116 -5.787948 0.123963 0
M  V30 30 C -4.333168 -4.628694 -0.739888 0
M  V30 31 C -3.643325 -4.899787 -2.046953 0
M  V30 32 C -2.670247 -6.025701 -1.846697 0
M  V30 33 H 1.626385 -6.509228 2.796013 0
M  V30 34 H 2.696754 -6.485995 1.361924 0
M  V30 35 H 3.218385 -5.691083 2.882255 0
M  V30 36 H 3.200231 -3.191732 2.391053 0
M  V30 37 H 0.788329 -0.492653 0.819065 0
M  V30 38 H 4.561963 1.339602 2.615800 0
M  V30 39 H 4.523631 3.839161 2.323177 0
M  V30 40 H 2.919208 6.046085 1.234706 0
M  V30 41 H -1.332213 3.225346 0.496827 0
M  V30 42 H -0.324968 2.279484 -0.694568 0
M  V30 43 H -0.444282 4.389962 -2.202172 0
M  V30 44 H -1.960978 3.519835 -1.860049 0
M  V30 45 H -2.602904 5.672928 -1.578263 0
M  V30 46 H -2.326218 5.162689 0.105189 0
M  V30 47 H -1.031873 7.479888 -1.056423 0
M  V30 48 H -1.793131 -4.353794 -0.129537 0
M  V30 49 H -2.355465 -7.280331 -0.109208 0
M  V30 50 H -4.661220 -6.608588 0.077456 0
M  V30 51 H -3.804919 -5.396271 1.167508 0
M  V30 52 H -5.438641 -4.552324 -0.867209 0
M  V30 53 H -3.960197 -3.688525 -0.289720 0
M  V30 54 H -3.036567 -3.997754 -2.321981 0
M  V30 55 H -4.329991 -5.050594 -2.895907 0
M  V30 56 H -3.028277 -6.969168 -2.316698 0
M  V30 57 H -1.677639 -5.817852 -2.312516 0
M  V30 END ATOM
M  V30 BEGIN BOND
M  V30 1 1 1 2
M  V30 2 1 2 3
M  V30 3 2 3 4
M  V30 4 1 4 5
M  V30 5 1 5 6
M  V30 6 2 6 7
M  V30 7 1 6 8
M  V30 8 2 8 9
M  V30 9 1 9 10
M  V30 10 2 10 11
M  V30 11 1 11 12
M  V30 12 2 12 13
M  V30 13 1 13 14
M  V30 14 1 14 15
M  V30 15 2 15 16
M  V30 16 1 14 17
M  V30 17 1 17 18
M  V30 18 1 18 19
M  V30 19 1 19 20
M  V30 20 1 20 21
M  V30 21 2 21 22
M  V30 22 1 4 23
M  V30 23 2 23 24
M  V30 24 1 24 25
M  V30 25 2 25 26
M  V30 26 1 25 27
M  V30 27 1 27 28
M  V30 28 1 28 29
M  V30 29 1 29 30
M  V30 30 1 30 31
M  V30 31 1 31 32
M  V30 32 1 24 2
M  V30 33 1 32 28
M  V30 34 1 16 8
M  V30 35 1 15 11
M  V30 36 1 21 13
M  V30 37 1 1 33
M  V30 38 1 1 34
M  V30 39 1 1 35
M  V30 40 1 3 36
M  V30 41 1 5 37
M  V30 42 1 9 38
M  V30 43 1 10 39
M  V30 44 1 12 40
M  V30 45 1 17 41
M  V30 46 1 17 42
M  V30 47 1 18 43
M  V30 48 1 18 44
M  V30 49 1 19 45
M  V30 50 1 19 46
M  V30 51 1 20 47
M  V30 52 1 27 48
M  V30 53 1 28 49
M  V30 54 1 29 50
M  V30 55 1 29 51
M  V30 56 1 30 52
M  V30 57 1 30 53
M  V30 58 1 31 54
M  V30 59 1 31 55
M  V30 60 1 32 56
M  V30 61 1 32 57
M  V30 END BOND
M  V30 END CTAB
M  END
>  <Dataset>  (800) 
ChEMBL_Kinases

>  <Ligand_Instance>  (800) 
nan

>  <PDB_ID>  (800) 
nan

>  <Standardized_SMILES>  (800) 
Cn1cc(NC(=O)c2ccc3cc4n(c3n2)CCCNC4=O)nc1C(=O)NC1CCCC1

>  <Name>  (800) 
nan

>  <Pocket>  (800) 
nan

>  <ATP_Site>  (800) 
nan

>  <Peripheral>  (800) 
nan

>  <Num_H_Atoms_ProtBoundConf>  (800) 
nan

>  <Num_Resolved_Atoms>  (800) 
nan

>  <Num_Not_Resolved_Atoms>  (800) 
nan

$$$$
CHEMBL3639728
     RDKit          3D

  0  0  0  0  0  0  0  0  0  0999 V3000
M  V30 BEGIN CTAB
M  V30 COUNTS 48 51 0 0 0
M  V30 BEGIN ATOM
M  V30 1 C 3.863643 -3.069199 0.480957 0
M  V30 2 O 3.911682 -1.687082 0.327296 0
M  V30 3 C 3.907541 -1.022374 -0.888667 0
M  V30 4 N 3.857134 -1.677867 -2.051324 0
M  V30 5 C 3.856267 -1.057475 -3.246739 0
M  V30 6 C 3.910094 0.325652 -3.275591 0
M  V30 7 F 3.914692 1.020451 -4.418063 0
M  V30 8 C 3.960215 0.954721 -2.049805 0
M  V30 9 C 3.962427 0.343037 -0.785100 0
M  V30 10 C 3.988467 1.251782 0.388439 0
M  V30 11 N 2.712745 1.535979 0.969281 0
M  V30 12 C 1.565799 1.027237 1.620537 0
M  V30 13 C 0.414278 1.681528 2.064488 0
M  V30 14 C -0.539737 0.910950 2.674211 0
M  V30 15 C -0.437492 -0.443883 2.873493 0
M  V30 16 C -1.518833 -1.207629 3.544274 0
M  V30 17 C -2.339480 -1.993213 2.571105 0
M  V30 18 C -2.339827 -3.318922 2.274758 0
M  V30 19 N -3.251183 -3.571694 1.325882 0
M  V30 20 C -3.896173 -2.450675 0.944506 0
M  V30 21 N -4.863623 -2.177500 0.060184 0
M  V30 22 C -5.345109 -0.937907 -0.131963 0
M  V30 23 C -4.814004 0.099824 0.620260 0
M  V30 24 C -5.325335 1.494007 0.439055 0
M  V30 25 C -3.813073 -0.178993 1.535943 0
M  V30 26 C -3.320977 -1.471073 1.726508 0
M  V30 27 C 0.716675 -1.032706 2.416114 0
M  V30 28 F 0.816914 -2.382157 2.615161 0
M  V30 29 N 1.656226 -0.292847 1.819238 0
M  V30 30 H 4.557820 -3.467543 1.259535 0
M  V30 31 H 2.839243 -3.340701 0.824908 0
M  V30 32 H 4.085319 -3.632307 -0.451067 0
M  V30 33 H 3.814464 -1.612468 -4.172210 0
M  V30 34 H 4.001024 2.055657 -2.101331 0
M  V30 35 H 4.494001 2.190566 0.079566 0
M  V30 36 H 4.685340 0.819226 1.184279 0
M  V30 37 H 2.508577 2.568513 0.893690 0
M  V30 38 H 0.414354 2.732222 1.870180 0
M  V30 39 H -1.385127 1.495717 2.982707 0
M  V30 40 H -1.096151 -1.956081 4.259875 0
M  V30 41 H -2.157103 -0.543469 4.168951 0
M  V30 42 H -1.683883 -4.043420 2.755697 0
M  V30 43 H -3.491478 -4.505267 0.881135 0
M  V30 44 H -6.135257 -0.688414 -0.848096 0
M  V30 45 H -6.440758 1.396862 0.590089 0
M  V30 46 H -4.981835 2.107215 1.311269 0
M  V30 47 H -5.054186 1.930320 -0.527027 0
M  V30 48 H -3.440291 0.654185 2.088139 0
M  V30 END ATOM
M  V30 BEGIN BOND
M  V30 1 1 1 2
M  V30 2 1 2 3
M  V30 3 2 3 4
M  V30 4 1 4 5
M  V30 5 2 5 6
M  V30 6 1 6 7
M  V30 7 1 6 8
M  V30 8 2 8 9
M  V30 9 1 9 10
M  V30 10 1 10 11
M  V30 11 1 11 12
M  V30 12 2 12 13
M  V30 13 1 13 14
M  V30 14 2 14 15
M  V30 15 1 15 16
M  V30 16 1 16 17
M  V30 17 2 17 18
M  V30 18 1 18 19
M  V30 19 1 19 20
M  V30 20 2 20 21
M  V30 21 1 21 22
M  V30 22 2 22 23
M  V30 23 1 23 24
M  V30 24 1 23 25
M  V30 25 2 25 26
M  V30 26 1 15 27
M  V30 27 1 27 28
M  V30 28 2 27 29
M  V30 29 1 9 3
M  V30 30 1 29 12
M  V30 31 1 26 17
M  V30 32 1 26 20
M  V30 33 1 1 30
M  V30 34 1 1 31
M  V30 35 1 1 32
M  V30 36 1 5 33
M  V30 37 1 8 34
M  V30 38 1 10 35
M  V30 39 1 10 36
M  V30 40 1 11 37
M  V30 41 1 13 38
M  V30 42 1 14 39
M  V30 43 1 16 40
M  V30 44 1 16 41
M  V30 45 1 18 42
M  V30 46 1 19 43
M  V30 47 1 22 44
M  V30 48 1 24 45
M  V30 49 1 24 46
M  V30 50 1 24 47
M  V30 51 1 25 48
M  V30 END BOND
M  V30 END CTAB
M  END
>  <Dataset>  (801) 
ChEMBL_Kinases

>  <Ligand_Instance>  (801) 
nan

>  <PDB_ID>  (801) 
nan

>  <Standardized_SMILES>  (801) 
COc1ncc(F)cc1CNc1ccc(Cc2c[nH]c3ncc(C)cc23)c(F)n1

>  <Name>  (801) 
PLX-5622

>  <Pocket>  (801) 
nan

>  <ATP_Site>  (801) 
nan

>  <Peripheral>  (801) 
nan

>  <Num_H_Atoms_ProtBoundConf>  (801) 
nan

>  <Num_Resolved_Atoms>  (801) 
nan

>  <Num_Not_Resolved_Atoms>  (801) 
nan

$$$$
CHEMBL3639783
     RDKit          3D

  0  0  0  0  0  0  0  0  0  0999 V3000
M  V30 BEGIN CTAB
M  V30 COUNTS 61 65 0 0 0
M  V30 BEGIN ATOM
M  V30 1 C 3.092411 -2.038674 3.875776 0
M  V30 2 N 3.663544 -1.207960 2.871847 0
M  V30 3 C 4.591450 -1.878587 1.987158 0
M  V30 4 C 4.795713 -0.985260 0.748118 0
M  V30 5 N 4.246529 0.321065 1.050889 0
M  V30 6 C 3.242169 1.227657 0.648109 0
M  V30 7 C 3.076564 2.563481 0.944433 0
M  V30 8 C 1.917580 3.156226 0.541857 0
M  V30 9 C 1.004841 2.386518 -0.120315 0
M  V30 10 C -0.273136 3.137969 -0.349742 0
M  V30 11 O -0.677968 4.240009 -0.804048 0
M  V30 12 N -1.507295 2.441739 0.095986 0
M  V30 13 C -2.748236 1.767152 0.534109 0
M  V30 14 C -2.578714 0.329273 0.297817 0
M  V30 15 C -3.380423 -0.286920 -0.684321 0
M  V30 16 N -3.224567 -1.616346 -0.952492 0
M  V30 17 C -4.206908 -1.997908 -1.925004 0
M  V30 18 C -5.026352 -2.923993 -1.274186 0
M  V30 19 C -6.147174 -3.516985 -1.848125 0
M  V30 20 C -6.360090 -3.076489 -3.167096 0
M  V30 21 C -5.602375 -2.180000 -3.859414 0
M  V30 22 C -4.496341 -1.621297 -3.227149 0
M  V30 23 C -2.343507 -2.415647 -0.339492 0
M  V30 24 C -2.273412 -3.713241 -0.726249 0
M  V30 25 C -1.334601 -4.482807 -0.091053 0
M  V30 26 Cl -1.178223 -6.166827 -0.538766 0
M  V30 27 C -0.464726 -4.028453 0.909103 0
M  V30 28 C -0.628201 -2.678651 1.224802 0
M  V30 29 C -1.558992 -1.842581 0.616011 0
M  V30 30 C -1.682085 -0.498046 0.923684 0
M  V30 31 O -0.906341 -0.126502 1.812747 0
M  V30 32 C 1.153368 1.037727 -0.435458 0
M  V30 33 N 2.315598 0.522945 -0.009642 0
M  V30 34 C 4.987210 0.730655 2.246455 0
M  V30 35 C 4.252126 0.016810 3.442705 0
M  V30 36 H 3.466116 -1.746384 4.866405 0
M  V30 37 H 3.332336 -3.123541 3.686365 0
M  V30 38 H 1.960824 -1.904599 3.931454 0
M  V30 39 H 5.519448 -2.036388 2.546106 0
M  V30 40 H 4.134401 -2.810444 1.630725 0
M  V30 41 H 4.201109 -1.442119 -0.065691 0
M  V30 42 H 5.841057 -0.960531 0.438511 0
M  V30 43 H 3.853073 3.042459 1.482314 0
M  V30 44 H 1.806802 4.181681 0.789127 0
M  V30 45 H -0.971967 1.626100 0.494518 0
M  V30 46 H -3.597192 2.142470 -0.038852 0
M  V30 47 H -2.930306 1.948917 1.586929 0
M  V30 48 H -4.091487 0.372996 -1.149173 0
M  V30 49 H -4.935776 -3.338984 -0.261347 0
M  V30 50 H -6.789073 -4.221288 -1.392265 0
M  V30 51 H -7.196408 -3.443037 -3.746892 0
M  V30 52 H -5.731004 -1.804833 -4.869805 0
M  V30 53 H -3.753070 -0.888865 -3.550403 0
M  V30 54 H -2.918856 -4.126680 -1.500003 0
M  V30 55 H 0.281789 -4.644393 1.382861 0
M  V30 56 H 0.032367 -2.306681 1.986443 0
M  V30 57 H 0.285490 0.648650 -0.981143 0
M  V30 58 H 4.928669 1.793426 2.475653 0
M  V30 59 H 6.024743 0.390651 2.227256 0
M  V30 60 H 4.999671 -0.266131 4.189343 0
M  V30 61 H 3.479996 0.660878 3.857943 0
M  V30 END ATOM
M  V30 BEGIN BOND
M  V30 1 1 1 2
M  V30 2 1 2 3
M  V30 3 1 3 4
M  V30 4 1 4 5
M  V30 5 1 5 6
M  V30 6 2 6 7
M  V30 7 1 7 8
M  V30 8 2 8 9
M  V30 9 1 9 10
M  V30 10 2 10 11
M  V30 11 1 10 12
M  V30 12 1 12 13
M  V30 13 1 13 14
M  V30 14 2 14 15
M  V30 15 1 15 16
M  V30 16 1 16 17
M  V30 17 2 17 18
M  V30 18 1 18 19
M  V30 19 2 19 20
M  V30 20 1 20 21
M  V30 21 2 21 22
M  V30 22 1 16 23
M  V30 23 2 23 24
M  V30 24 1 24 25
M  V30 25 1 25 26
M  V30 26 2 25 27
M  V30 27 1 27 28
M  V30 28 2 28 29
M  V30 29 1 29 30
M  V30 30 2 30 31
M  V30 31 1 9 32
M  V30 32 2 32 33
M  V30 33 1 5 34
M  V30 34 1 34 35
M  V30 35 1 35 2
M  V30 36 1 33 6
M  V30 37 1 30 14
M  V30 38 1 22 17
M  V30 39 1 29 23
M  V30 40 1 1 36
M  V30 41 1 1 37
M  V30 42 1 1 38
M  V30 43 1 3 39
M  V30 44 1 3 40
M  V30 45 1 4 41
M  V30 46 1 4 42
M  V30 47 1 7 43
M  V30 48 1 8 44
M  V30 49 1 12 45
M  V30 50 1 13 46
M  V30 51 1 13 47
M  V30 52 1 15 48
M  V30 53 1 18 49
M  V30 54 1 19 50
M  V30 55 1 20 51
M  V30 56 1 21 52
M  V30 57 1 22 53
M  V30 58 1 24 54
M  V30 59 1 27 55
M  V30 60 1 28 56
M  V30 61 1 32 57
M  V30 62 1 34 58
M  V30 63 1 34 59
M  V30 64 1 35 60
M  V30 65 1 35 61
M  V30 END BOND
M  V30 END CTAB
M  END
>  <Dataset>  (802) 
ChEMBL_Kinases

>  <Ligand_Instance>  (802) 
nan

>  <PDB_ID>  (802) 
nan

>  <Standardized_SMILES>  (802) 
CN1CCN(c2ccc(C(=O)NCc3cn(-c4ccccc4)c4cc(Cl)ccc4c3=O)cn2)CC1

>  <Name>  (802) 
nan

>  <Pocket>  (802) 
nan

>  <ATP_Site>  (802) 
nan

>  <Peripheral>  (802) 
nan

>  <Num_H_Atoms_ProtBoundConf>  (802) 
nan

>  <Num_Resolved_Atoms>  (802) 
nan

>  <Num_Not_Resolved_Atoms>  (802) 
nan

$$$$
CHEMBL3639795
     RDKit          3D

  0  0  0  0  0  0  0  0  0  0999 V3000
M  V30 BEGIN CTAB
M  V30 COUNTS 60 64 0 0 0
M  V30 BEGIN ATOM
M  V30 1 C 5.788232 -3.785047 3.490613 0
M  V30 2 N 6.819705 -2.798472 3.331880 0
M  V30 3 C 6.757550 -1.823682 4.372612 0
M  V30 4 C 6.466682 -0.430432 3.883915 0
M  V30 5 C 5.332058 -0.442532 2.898281 0
M  V30 6 N 4.250878 0.311838 2.881615 0
M  V30 7 C 3.374221 0.267167 2.077578 0
M  V30 8 N 2.122974 0.865342 1.725483 0
M  V30 9 C 1.963241 1.976203 0.885116 0
M  V30 10 O 2.985271 2.517819 0.379481 0
M  V30 11 C 0.668249 2.560928 0.548898 0
M  V30 12 C 0.659646 3.668072 -0.291339 0
M  V30 13 C -0.561473 4.251126 -0.628962 0
M  V30 14 C -1.726018 3.714636 -0.121067 0
M  V30 15 C -1.765797 2.620341 0.713353 0
M  V30 16 C -2.996305 2.013495 1.279614 0
M  V30 17 N -3.459189 0.986645 0.380936 0
M  V30 18 C -4.143236 1.124900 -0.837814 0
M  V30 19 O -4.415617 2.283611 -1.249330 0
M  V30 20 C -4.575429 0.024976 -1.686666 0
M  V30 21 C -5.240759 0.322830 -2.859394 0
M  V30 22 C -5.698393 -0.655784 -3.743844 0
M  V30 23 C -5.492469 -1.990409 -3.462636 0
M  V30 24 C -4.829615 -2.297754 -2.295060 0
M  V30 25 C -4.618755 -3.710716 -2.008104 0
M  V30 26 C -4.431788 -4.682145 -2.982884 0
M  V30 27 C -4.242360 -5.989947 -2.574932 0
M  V30 28 C -4.236223 -6.338311 -1.242596 0
M  V30 29 N -4.421020 -5.361588 -0.349435 0
M  V30 30 C -4.608784 -4.077951 -0.698047 0
M  V30 31 C -4.391841 -1.305071 -1.445247 0
M  V30 32 C -0.527077 2.064161 1.028997 0
M  V30 33 S 3.985120 -1.134985 0.911869 0
M  V30 34 C 5.475162 -1.406965 1.859377 0
M  V30 35 C 6.791868 -2.203900 2.027674 0
M  V30 36 H 5.079441 -3.576093 4.319871 0
M  V30 37 H 6.213575 -4.803978 3.731983 0
M  V30 38 H 5.182664 -3.938927 2.585640 0
M  V30 39 H 6.071190 -2.136375 5.168498 0
M  V30 40 H 7.775618 -1.771783 4.844037 0
M  V30 41 H 6.264504 0.186004 4.759343 0
M  V30 42 H 7.345318 0.014213 3.375568 0
M  V30 43 H 1.289419 0.404159 2.151871 0
M  V30 44 H 1.532030 4.136912 -0.722448 0
M  V30 45 H -0.608074 5.121414 -1.286130 0
M  V30 46 H -2.655790 4.184662 -0.393268 0
M  V30 47 H -2.704716 1.535453 2.237026 0
M  V30 48 H -3.746187 2.818656 1.427076 0
M  V30 49 H -3.287957 -0.035593 0.619893 0
M  V30 50 H -5.454319 1.334391 -3.175530 0
M  V30 51 H -6.222997 -0.386018 -4.666033 0
M  V30 52 H -5.830596 -2.774243 -4.119569 0
M  V30 53 H -4.441127 -4.380483 -4.013664 0
M  V30 54 H -4.092560 -6.774606 -3.323988 0
M  V30 55 H -4.087465 -7.366281 -0.923334 0
M  V30 56 H -4.746914 -3.385363 0.129678 0
M  V30 57 H -3.875703 -1.590580 -0.539380 0
M  V30 58 H -0.527870 1.201762 1.683927 0
M  V30 59 H 7.630469 -1.490718 1.904747 0
M  V30 60 H 6.796009 -3.009952 1.289120 0
M  V30 END ATOM
M  V30 BEGIN BOND
M  V30 1 1 1 2
M  V30 2 1 2 3
M  V30 3 1 3 4
M  V30 4 1 4 5
M  V30 5 1 5 6
M  V30 6 2 6 7
M  V30 7 1 7 8
M  V30 8 1 8 9
M  V30 9 2 9 10
M  V30 10 1 9 11
M  V30 11 2 11 12
M  V30 12 1 12 13
M  V30 13 2 13 14
M  V30 14 1 14 15
M  V30 15 1 15 16
M  V30 16 1 16 17
M  V30 17 1 17 18
M  V30 18 2 18 19
M  V30 19 1 18 20
M  V30 20 2 20 21
M  V30 21 1 21 22
M  V30 22 2 22 23
M  V30 23 1 23 24
M  V30 24 1 24 25
M  V30 25 2 25 26
M  V30 26 1 26 27
M  V30 27 2 27 28
M  V30 28 1 28 29
M  V30 29 2 29 30
M  V30 30 2 24 31
M  V30 31 2 15 32
M  V30 32 1 7 33
M  V30 33 1 33 34
M  V30 34 1 34 35
M  V30 35 1 35 2
M  V30 36 2 34 5
M  V30 37 1 32 11
M  V30 38 1 31 20
M  V30 39 1 30 25
M  V30 40 1 1 36
M  V30 41 1 1 37
M  V30 42 1 1 38
M  V30 43 1 3 39
M  V30 44 1 3 40
M  V30 45 1 4 41
M  V30 46 1 4 42
M  V30 47 1 8 43
M  V30 48 1 12 44
M  V30 49 1 13 45
M  V30 50 1 14 46
M  V30 51 1 16 47
M  V30 52 1 16 48
M  V30 53 1 17 49
M  V30 54 1 21 50
M  V30 55 1 22 51
M  V30 56 1 23 52
M  V30 57 1 26 53
M  V30 58 1 27 54
M  V30 59 1 28 55
M  V30 60 1 30 56
M  V30 61 1 31 57
M  V30 62 1 32 58
M  V30 63 1 35 59
M  V30 64 1 35 60
M  V30 END BOND
M  V30 END CTAB
M  END
>  <Dataset>  (803) 
ChEMBL_Kinases

>  <Ligand_Instance>  (803) 
nan

>  <PDB_ID>  (803) 
nan

>  <Standardized_SMILES>  (803) 
CN1CCc2nc(NC(=O)c3cccc(CNC(=O)c4cccc(-c5cccnc5)c4)c3)sc2C1

>  <Name>  (803) 
nan

>  <Pocket>  (803) 
nan

>  <ATP_Site>  (803) 
nan

>  <Peripheral>  (803) 
nan

>  <Num_H_Atoms_ProtBoundConf>  (803) 
nan

>  <Num_Resolved_Atoms>  (803) 
nan

>  <Num_Not_Resolved_Atoms>  (803) 
nan

$$$$
CHEMBL3639796
     RDKit          3D

  0  0  0  0  0  0  0  0  0  0999 V3000
M  V30 BEGIN CTAB
M  V30 COUNTS 61 65 0 0 0
M  V30 BEGIN ATOM
M  V30 1 C 5.590724 -0.392867 7.273419 0
M  V30 2 N 5.240859 -0.619335 5.894607 0
M  V30 3 C 6.350282 -0.390083 5.006676 0
M  V30 4 C 6.037266 -0.866374 3.622673 0
M  V30 5 C 4.667034 -0.422783 3.264303 0
M  V30 6 C 4.291950 -0.592777 1.956770 0
M  V30 7 C 3.024988 -0.214604 1.498998 0
M  V30 8 C 2.137557 0.343709 2.398097 0
M  V30 9 N 0.871254 0.697095 1.846976 0
M  V30 10 C 0.377825 1.883798 1.248330 0
M  V30 11 O 1.073722 2.918161 1.101974 0
M  V30 12 C -1.001084 1.909496 0.778981 0
M  V30 13 C -1.439480 3.086474 0.208722 0
M  V30 14 C -2.739049 3.252249 -0.286885 0
M  V30 15 C -3.637513 2.182967 -0.203916 0
M  V30 16 C -3.187580 1.013344 0.367699 0
M  V30 17 C -4.057575 -0.181945 0.500824 0
M  V30 18 N -3.950763 -1.061310 -0.647284 0
M  V30 19 C -4.515245 -0.889689 -1.918577 0
M  V30 20 O -5.210525 0.124767 -2.163578 0
M  V30 21 C -4.357626 -1.824668 -3.023809 0
M  V30 22 C -4.961112 -1.538980 -4.233930 0
M  V30 23 C -4.852881 -2.389785 -5.341972 0
M  V30 24 C -4.118801 -3.549224 -5.215639 0
M  V30 25 C -3.499657 -3.873922 -4.026782 0
M  V30 26 C -3.641779 -2.998254 -2.972076 0
M  V30 27 O -2.754306 -5.034452 -3.870838 0
M  V30 28 C -2.277843 -5.779203 -4.992366 0
M  V30 29 C -3.192562 -5.675794 -6.140317 0
M  V30 30 O -3.287895 -6.633892 -6.959455 0
M  V30 31 N -3.955612 -4.481994 -6.298148 0
M  V30 32 C -1.904368 0.869675 0.850033 0
M  V30 33 C 2.502038 0.521289 3.719852 0
M  V30 34 C 3.759693 0.138488 4.143140 0
M  V30 35 C 4.188232 0.311561 5.548626 0
M  V30 36 H 4.948080 -1.056874 7.907083 0
M  V30 37 H 6.666501 -0.581311 7.418734 0
M  V30 38 H 5.401951 0.649375 7.614686 0
M  V30 39 H 6.708365 0.652413 4.974607 0
M  V30 40 H 7.204329 -0.992219 5.380949 0
M  V30 41 H 6.045685 -1.980830 3.635854 0
M  V30 42 H 6.801114 -0.552780 2.894364 0
M  V30 43 H 4.967081 -1.028867 1.225004 0
M  V30 44 H 2.781201 -0.369921 0.464153 0
M  V30 45 H 0.338248 -0.187116 1.993264 0
M  V30 46 H -0.816689 3.970261 0.099312 0
M  V30 47 H -3.055792 4.186373 -0.728504 0
M  V30 48 H -4.640578 2.282621 -0.574776 0
M  V30 49 H -3.795620 -0.732291 1.421523 0
M  V30 50 H -5.134978 0.123516 0.657779 0
M  V30 51 H -3.389932 -1.935245 -0.538322 0
M  V30 52 H -5.550441 -0.656799 -4.415796 0
M  V30 53 H -5.328753 -2.156003 -6.282774 0
M  V30 54 H -3.154521 -3.264924 -2.054743 0
M  V30 55 H -1.279374 -5.367835 -5.276057 0
M  V30 56 H -2.156360 -6.821501 -4.638725 0
M  V30 57 H -4.410907 -4.257938 -7.197884 0
M  V30 58 H -1.560868 -0.052046 1.296864 0
M  V30 59 H 1.778143 0.961832 4.390742 0
M  V30 60 H 3.354796 0.340130 6.249741 0
M  V30 61 H 4.681333 1.326227 5.583223 0
M  V30 END ATOM
M  V30 BEGIN BOND
M  V30 1 1 1 2
M  V30 2 1 2 3
M  V30 3 1 3 4
M  V30 4 1 4 5
M  V30 5 2 5 6
M  V30 6 1 6 7
M  V30 7 2 7 8
M  V30 8 1 8 9
M  V30 9 1 9 10
M  V30 10 2 10 11
M  V30 11 1 10 12
M  V30 12 2 12 13
M  V30 13 1 13 14
M  V30 14 2 14 15
M  V30 15 1 15 16
M  V30 16 1 16 17
M  V30 17 1 17 18
M  V30 18 1 18 19
M  V30 19 2 19 20
M  V30 20 1 19 21
M  V30 21 2 21 22
M  V30 22 1 22 23
M  V30 23 2 23 24
M  V30 24 1 24 25
M  V30 25 2 25 26
M  V30 26 1 25 27
M  V30 27 1 27 28
M  V30 28 1 28 29
M  V30 29 2 29 30
M  V30 30 1 29 31
M  V30 31 2 16 32
M  V30 32 1 8 33
M  V30 33 2 33 34
M  V30 34 1 34 35
M  V30 35 1 35 2
M  V30 36 1 34 5
M  V30 37 1 32 12
M  V30 38 1 26 21
M  V30 39 1 31 24
M  V30 40 1 1 36
M  V30 41 1 1 37
M  V30 42 1 1 38
M  V30 43 1 3 39
M  V30 44 1 3 40
M  V30 45 1 4 41
M  V30 46 1 4 42
M  V30 47 1 6 43
M  V30 48 1 7 44
M  V30 49 1 9 45
M  V30 50 1 13 46
M  V30 51 1 14 47
M  V30 52 1 15 48
M  V30 53 1 17 49
M  V30 54 1 17 50
M  V30 55 1 18 51
M  V30 56 1 22 52
M  V30 57 1 23 53
M  V30 58 1 26 54
M  V30 59 1 28 55
M  V30 60 1 28 56
M  V30 61 1 31 57
M  V30 62 1 32 58
M  V30 63 1 33 59
M  V30 64 1 35 60
M  V30 65 1 35 61
M  V30 END BOND
M  V30 END CTAB
M  END
>  <Dataset>  (804) 
ChEMBL_Kinases

>  <Ligand_Instance>  (804) 
nan

>  <PDB_ID>  (804) 
nan

>  <Standardized_SMILES>  (804) 
CN1CCc2ccc(NC(=O)c3cccc(CNC(=O)c4ccc5c(c4)OCC(=O)N5)c3)cc2C1

>  <Name>  (804) 
nan

>  <Pocket>  (804) 
nan

>  <ATP_Site>  (804) 
nan

>  <Peripheral>  (804) 
nan

>  <Num_H_Atoms_ProtBoundConf>  (804) 
nan

>  <Num_Resolved_Atoms>  (804) 
nan

>  <Num_Not_Resolved_Atoms>  (804) 
nan

$$$$
CHEMBL3639904
     RDKit          3D

  0  0  0  0  0  0  0  0  0  0999 V3000
M  V30 BEGIN CTAB
M  V30 COUNTS 71 77 0 0 0
M  V30 BEGIN ATOM
M  V30 1 C 6.754004 0.996693 4.536717 0
M  V30 2 N 5.865846 1.184296 3.396743 0
M  V30 3 C 6.017535 0.148088 2.382148 0
M  V30 4 C 4.936548 2.285897 3.295848 0
M  V30 5 O 5.248618 2.797306 4.378266 0
M  V30 6 C 4.126363 2.304815 2.087052 0
M  V30 7 C 4.716398 2.699177 0.894827 0
M  V30 8 C 3.679527 2.580807 -0.008601 0
M  V30 9 C 3.755664 2.856804 -1.380044 0
M  V30 10 N 2.594947 2.643531 -2.037951 0
M  V30 11 C 1.464286 2.199192 -1.405882 0
M  V30 12 N 0.485010 2.068471 -2.419750 0
M  V30 13 C -0.413024 0.941523 -2.546789 0
M  V30 14 C -1.345473 0.751550 -3.585436 0
M  V30 15 C -2.087832 -0.408711 -3.499514 0
M  V30 16 C -1.947272 -1.326924 -2.487338 0
M  V30 17 C -2.704832 -2.556547 -2.374990 0
M  V30 18 O -2.530771 -3.347804 -1.385342 0
M  V30 19 C -3.723511 -3.334366 -3.047885 0
M  V30 20 C -3.460837 -4.749057 -3.430669 0
M  V30 21 C -3.998669 -4.312549 -4.790616 0 CFG=1
M  V30 22 C -5.231310 -5.039167 -5.190420 0
M  V30 23 C -6.431689 -4.205981 -5.478754 0 CFG=2
M  V30 24 O -6.480080 -3.897478 -6.837432 0
M  V30 25 C -6.583988 -2.985723 -4.643095 0
M  V30 26 C -5.374853 -2.555821 -3.881496 0 CFG=1
M  V30 27 C -5.138861 -3.122152 -2.524435 0
M  V30 28 N -4.120985 -2.962584 -4.389224 0
M  V30 29 C -1.023790 -1.084439 -1.508433 0
M  V30 30 N -0.287176 0.024505 -1.553400 0
M  V30 31 N 1.461238 1.957045 -0.091549 0
M  V30 32 C 2.561529 2.135352 0.667700 0
M  V30 33 N 2.845463 1.967265 1.969006 0
M  V30 34 C 1.923614 1.527448 2.975966 0
M  V30 35 C 1.675449 2.533051 4.072211 0
M  V30 36 C 1.320004 1.779355 5.323117 0
M  V30 37 C 1.809566 0.391424 5.100062 0
M  V30 38 C 2.283595 0.260669 3.673830 0
M  V30 39 H 6.682188 -0.032791 4.968821 0
M  V30 40 H 6.613478 1.783223 5.284416 0
M  V30 41 H 7.813591 1.092222 4.192818 0
M  V30 42 H 5.617957 -0.816141 2.731773 0
M  V30 43 H 5.485533 0.397203 1.447968 0
M  V30 44 H 7.126402 -0.001929 2.232780 0
M  V30 45 H 5.727733 3.021375 0.704190 0
M  V30 46 H 4.669214 3.206066 -1.844785 0
M  V30 47 H 0.291133 2.762026 -3.175095 0
M  V30 48 H -1.375099 1.507820 -4.314963 0
M  V30 49 H -2.816204 -0.602290 -4.273053 0
M  V30 50 H -2.423852 -5.112034 -3.415123 0
M  V30 51 H -4.151941 -5.471042 -2.910938 0
M  V30 52 H -3.149463 -4.427516 -5.529628 0
M  V30 53 H -5.020523 -5.622714 -6.137884 0
M  V30 54 H -5.494060 -5.867248 -4.463511 0
M  V30 55 H -7.325669 -4.861499 -5.233359 0
M  V30 56 H -7.407487 -3.566810 -7.025789 0
M  V30 57 H -7.443287 -3.064716 -3.912983 0
M  V30 58 H -6.902980 -2.151240 -5.318052 0
M  V30 59 H -5.368517 -1.424661 -3.792358 0
M  V30 60 H -5.197538 -2.395962 -1.685926 0
M  V30 61 H -5.711311 -4.026313 -2.280644 0
M  V30 62 H -0.856359 -1.771158 -0.666261 0
M  V30 63 H 0.905710 1.348577 2.518162 0
M  V30 64 H 0.837601 3.239048 3.791828 0
M  V30 65 H 2.564234 3.144755 4.284253 0
M  V30 66 H 1.834872 2.249801 6.207874 0
M  V30 67 H 0.227698 1.824535 5.560655 0
M  V30 68 H 2.668363 0.196690 5.812318 0
M  V30 69 H 1.016283 -0.357721 5.358271 0
M  V30 70 H 1.747823 -0.630213 3.232876 0
M  V30 71 H 3.358803 -0.003856 3.662957 0
M  V30 END ATOM
M  V30 BEGIN BOND
M  V30 1 1 1 2
M  V30 2 1 2 3
M  V30 3 1 2 4
M  V30 4 2 4 5
M  V30 5 1 4 6
M  V30 6 2 6 7
M  V30 7 1 7 8
M  V30 8 2 8 9
M  V30 9 1 9 10
M  V30 10 2 10 11
M  V30 11 1 11 12
M  V30 12 1 12 13
M  V30 13 2 13 14
M  V30 14 1 14 15
M  V30 15 2 15 16
M  V30 16 1 16 17
M  V30 17 2 17 18
M  V30 18 1 17 19
M  V30 19 1 19 20
M  V30 20 1 20 21
M  V30 21 1 21 22
M  V30 22 1 22 23
M  V30 23 1 23 24
M  V30 24 1 23 25
M  V30 25 1 25 26
M  V30 26 1 26 27
M  V30 27 1 26 28
M  V30 28 1 16 29
M  V30 29 2 29 30
M  V30 30 1 11 31
M  V30 31 2 31 32
M  V30 32 1 32 33
M  V30 33 1 33 34
M  V30 34 1 34 35
M  V30 35 1 35 36
M  V30 36 1 36 37
M  V30 37 1 37 38
M  V30 38 1 33 6
M  V30 39 1 38 34
M  V30 40 1 32 8
M  V30 41 1 30 13
M  V30 42 1 27 19
M  V30 43 1 28 19
M  V30 44 1 28 21
M  V30 45 1 1 39
M  V30 46 1 1 40
M  V30 47 1 1 41
M  V30 48 1 3 42
M  V30 49 1 3 43
M  V30 50 1 3 44
M  V30 51 1 7 45
M  V30 52 1 9 46
M  V30 53 1 12 47
M  V30 54 1 14 48
M  V30 55 1 15 49
M  V30 56 1 20 50
M  V30 57 1 20 51
M  V30 58 1 21 52 CFG=3
M  V30 59 1 22 53
M  V30 60 1 22 54
M  V30 61 1 23 55 CFG=1
M  V30 62 1 24 56
M  V30 63 1 25 57
M  V30 64 1 25 58
M  V30 65 1 26 59 CFG=1
M  V30 66 1 27 60
M  V30 67 1 27 61
M  V30 68 1 29 62
M  V30 69 1 34 63
M  V30 70 1 35 64
M  V30 71 1 35 65
M  V30 72 1 36 66
M  V30 73 1 36 67
M  V30 74 1 37 68
M  V30 75 1 37 69
M  V30 76 1 38 70
M  V30 77 1 38 71
M  V30 END BOND
M  V30 END CTAB
M  END
>  <Dataset>  (805) 
ChEMBL_Kinases

>  <Ligand_Instance>  (805) 
nan

>  <PDB_ID>  (805) 
nan

>  <Standardized_SMILES>  (805) 
CN(C)C(=O)c1cc2cnc(Nc3ccc(C(=O)C45C[C@H]6C[C@H](O)C[C@@H](C4)N65)cn3)nc2n1C1CCCC1

>  <Name>  (805) 
nan

>  <Pocket>  (805) 
nan

>  <ATP_Site>  (805) 
nan

>  <Peripheral>  (805) 
nan

>  <Num_H_Atoms_ProtBoundConf>  (805) 
nan

>  <Num_Resolved_Atoms>  (805) 
nan

>  <Num_Not_Resolved_Atoms>  (805) 
nan

$$$$
CHEMBL3639833
     RDKit          3D

  0  0  0  0  0  0  0  0  0  0999 V3000
M  V30 BEGIN CTAB
M  V30 COUNTS 79 85 0 0 0
M  V30 BEGIN ATOM
M  V30 1 O 6.184385 -1.315980 -1.509459 0
M  V30 2 S 4.854325 -0.656614 -1.277476 0
M  V30 3 O 4.523724 0.077738 -2.544859 0
M  V30 4 C 3.626380 -1.884278 -0.976704 0
M  V30 5 C 3.480004 -2.807944 -2.173308 0
M  V30 6 C 2.420820 -3.861394 -1.902531 0
M  V30 7 C 2.574624 -4.916555 -2.980297 0
M  V30 8 C 2.520189 -4.283562 -4.356467 0
M  V30 9 C 2.148824 -2.816686 -4.261378 0
M  V30 10 C 3.096187 -2.042268 -3.409759 0
M  V30 11 N 5.049187 0.412796 0.058632 0
M  V30 12 C 3.829210 1.144013 0.346523 0
M  V30 13 C 3.385964 0.985943 1.767374 0
M  V30 14 C 3.316991 2.283368 2.543612 0
M  V30 15 N 2.610455 3.275562 1.842682 0
M  V30 16 C 1.312032 3.581998 2.321131 0
M  V30 17 C 0.395229 2.417611 2.274637 0
M  V30 18 C -0.272488 2.226939 1.081815 0
M  V30 19 C -1.155377 1.171596 0.957846 0
M  V30 20 C -1.424002 0.256514 1.995481 0
M  V30 21 C -2.337142 -0.846108 1.783637 0
M  V30 22 N -1.748112 -2.063574 1.906051 0
M  V30 23 N -2.637955 -3.025923 1.644873 0
M  V30 24 C -3.799829 -2.433387 1.353886 0
M  V30 25 N -3.600074 -1.109234 1.446307 0
M  V30 26 C -4.509087 -0.049941 1.241898 0
M  V30 27 C -4.114224 1.049385 1.954951 0
M  V30 28 C -4.889313 2.180948 1.799997 0
M  V30 29 C -5.982916 2.120398 0.957497 0
M  V30 30 N -6.385907 1.025986 0.245326 0
M  V30 31 C -5.610535 -0.062852 0.416636 0
M  V30 32 N -6.167646 -1.183231 -0.316328 0
M  V30 33 C -6.023822 -2.541435 0.178488 0
M  V30 34 C -7.126744 -3.305402 -0.203963 0
M  V30 35 C -7.152385 -4.619589 0.204766 0
M  V30 36 C -6.134267 -5.185726 0.967201 0
M  V30 37 C -5.033951 -4.444289 1.354574 0
M  V30 38 C -5.011604 -3.136712 0.945466 0
M  V30 39 C -0.729338 0.475884 3.199108 0
M  V30 40 C 0.146189 1.533963 3.302316 0
M  V30 41 C 2.881916 3.450353 0.464616 0
M  V30 42 C 4.113466 2.606511 0.086182 0
M  V30 43 H 2.663650 -1.480777 -0.668657 0
M  V30 44 H 3.990077 -2.546710 -0.144350 0
M  V30 45 H 4.452146 -3.318503 -2.290712 0
M  V30 46 H 1.405628 -3.446160 -1.894414 0
M  V30 47 H 2.642902 -4.298489 -0.920741 0
M  V30 48 H 3.541204 -5.409645 -2.869155 0
M  V30 49 H 1.773441 -5.650383 -2.861357 0
M  V30 50 H 3.489220 -4.398519 -4.890013 0
M  V30 51 H 1.759576 -4.820727 -4.942756 0
M  V30 52 H 2.152214 -2.426327 -5.300026 0
M  V30 53 H 1.089766 -2.732928 -3.924072 0
M  V30 54 H 3.987200 -1.712663 -3.993014 0
M  V30 55 H 2.575411 -1.101685 -3.072995 0
M  V30 56 H 5.850047 1.055892 -0.205462 0
M  V30 57 H 3.010835 0.855520 -0.372646 0
M  V30 58 H 4.119288 0.347274 2.341961 0
M  V30 59 H 2.401139 0.500080 1.831602 0
M  V30 60 H 4.354500 2.678787 2.734503 0
M  V30 61 H 2.825647 2.066225 3.509539 0
M  V30 62 H 1.364360 3.884345 3.398825 0
M  V30 63 H 0.895366 4.440369 1.727618 0
M  V30 64 H -0.217907 2.806435 0.171752 0
M  V30 65 H -1.720785 0.963611 0.033185 0
M  V30 66 H -3.336911 1.201354 2.655813 0
M  V30 67 H -4.717271 3.129770 2.286475 0
M  V30 68 H -6.616098 3.000514 0.811812 0
M  V30 69 H -6.684144 -1.022277 -1.185501 0
M  V30 70 H -7.883636 -2.816060 -0.794871 0
M  V30 71 H -7.995867 -5.229467 -0.079010 0
M  V30 72 H -6.154729 -6.218021 1.288385 0
M  V30 73 H -4.189598 -4.771627 1.940343 0
M  V30 74 H -0.905291 -0.199716 4.018149 0
M  V30 75 H 0.646808 1.666700 4.247339 0
M  V30 76 H 3.170338 4.488343 0.174848 0
M  V30 77 H 2.095556 3.110552 -0.237430 0
M  V30 78 H 4.281612 2.755650 -0.986074 0
M  V30 79 H 4.981377 2.988163 0.633931 0
M  V30 END ATOM
M  V30 BEGIN BOND
M  V30 1 2 1 2
M  V30 2 2 2 3
M  V30 3 1 2 4
M  V30 4 1 4 5
M  V30 5 1 5 6
M  V30 6 1 6 7
M  V30 7 1 7 8
M  V30 8 1 8 9
M  V30 9 1 9 10
M  V30 10 1 2 11
M  V30 11 1 11 12
M  V30 12 1 12 13
M  V30 13 1 13 14
M  V30 14 1 14 15
M  V30 15 1 15 16
M  V30 16 1 16 17
M  V30 17 2 17 18
M  V30 18 1 18 19
M  V30 19 2 19 20
M  V30 20 1 20 21
M  V30 21 2 21 22
M  V30 22 1 22 23
M  V30 23 2 23 24
M  V30 24 1 24 25
M  V30 25 1 25 26
M  V30 26 2 26 27
M  V30 27 1 27 28
M  V30 28 2 28 29
M  V30 29 1 29 30
M  V30 30 2 30 31
M  V30 31 1 31 32
M  V30 32 1 32 33
M  V30 33 2 33 34
M  V30 34 1 34 35
M  V30 35 2 35 36
M  V30 36 1 36 37
M  V30 37 2 37 38
M  V30 38 1 20 39
M  V30 39 2 39 40
M  V30 40 1 15 41
M  V30 41 1 41 42
M  V30 42 1 10 5
M  V30 43 1 42 12
M  V30 44 1 40 17
M  V30 45 1 25 21
M  V30 46 1 31 26
M  V30 47 1 38 33
M  V30 48 1 38 24
M  V30 49 1 4 43
M  V30 50 1 4 44
M  V30 51 1 5 45
M  V30 52 1 6 46
M  V30 53 1 6 47
M  V30 54 1 7 48
M  V30 55 1 7 49
M  V30 56 1 8 50
M  V30 57 1 8 51
M  V30 58 1 9 52
M  V30 59 1 9 53
M  V30 60 1 10 54
M  V30 61 1 10 55
M  V30 62 1 11 56
M  V30 63 1 12 57
M  V30 64 1 13 58
M  V30 65 1 13 59
M  V30 66 1 14 60
M  V30 67 1 14 61
M  V30 68 1 16 62
M  V30 69 1 16 63
M  V30 70 1 18 64
M  V30 71 1 19 65
M  V30 72 1 27 66
M  V30 73 1 28 67
M  V30 74 1 29 68
M  V30 75 1 32 69
M  V30 76 1 34 70
M  V30 77 1 35 71
M  V30 78 1 36 72
M  V30 79 1 37 73
M  V30 80 1 39 74
M  V30 81 1 40 75
M  V30 82 1 41 76
M  V30 83 1 41 77
M  V30 84 1 42 78
M  V30 85 1 42 79
M  V30 END BOND
M  V30 END CTAB
M  END
>  <Dataset>  (806) 
ChEMBL_Kinases

>  <Ligand_Instance>  (806) 
nan

>  <PDB_ID>  (806) 
nan

>  <Standardized_SMILES>  (806) 
O=S(=O)(CC1CCCCC1)NC1CCN(Cc2ccc(-c3nnc4n3-c3cccnc3Nc3ccccc3-4)cc2)CC1

>  <Name>  (806) 
nan

>  <Pocket>  (806) 
nan

>  <ATP_Site>  (806) 
nan

>  <Peripheral>  (806) 
nan

>  <Num_H_Atoms_ProtBoundConf>  (806) 
nan

>  <Num_Resolved_Atoms>  (806) 
nan

>  <Num_Not_Resolved_Atoms>  (806) 
nan

$$$$
CHEMBL3639846
     RDKit          3D

  0  0  0  0  0  0  0  0  0  0999 V3000
M  V30 BEGIN CTAB
M  V30 COUNTS 53 57 0 0 0
M  V30 BEGIN ATOM
M  V30 1 N 2.427017 -3.008950 4.224579 0
M  V30 2 C 2.495085 -1.654225 3.785304 0 CFG=1
M  V30 3 C 3.826731 -0.986057 4.165120 0
M  V30 4 C 3.785126 0.452802 3.719702 0
M  V30 5 C 2.595488 0.756197 2.846546 0
M  V30 6 N 2.371009 -0.264865 1.847454 0
M  V30 7 C 2.076051 -0.183445 0.473265 0
M  V30 8 N 3.019704 -0.730476 -0.328998 0
M  V30 9 C 2.855695 -0.708194 -1.662782 0
M  V30 10 N 1.781944 -0.160445 -2.261316 0
M  V30 11 C 0.809612 0.399315 -1.511352 0
M  V30 12 C 0.982566 0.373559 -0.147302 0
M  V30 13 N 0.009602 0.932020 0.709175 0
M  V30 14 C -1.236432 1.575146 0.486342 0
M  V30 15 C -1.542106 2.880536 0.863516 0
M  V30 16 C -2.760546 3.471690 0.635837 0
M  V30 17 C -3.738083 2.735723 -0.001018 0
M  V30 18 C -3.488811 1.437747 -0.396098 0
M  V30 19 C -4.535762 0.794641 -1.021653 0
M  V30 20 N -4.329883 -0.492727 -1.426460 0
M  V30 21 C -3.127551 -1.057457 -1.194634 0
M  V30 22 C -2.880260 -2.438989 -1.619401 0
M  V30 23 C -2.381295 -2.686847 -2.856497 0
M  V30 24 F -2.109055 -1.670932 -3.703292 0
M  V30 25 C -2.147304 -4.000427 -3.257755 0
M  V30 26 C -2.411387 -5.089283 -2.420887 0
M  V30 27 C -2.924859 -4.814554 -1.150830 0
M  V30 28 C -3.149116 -3.512450 -0.772612 0
M  V30 29 F -3.653483 -3.226079 0.472501 0
M  V30 30 N -2.137273 -0.388704 -0.580428 0
M  V30 31 C -2.247370 0.875760 -0.148975 0
M  V30 32 C 2.452853 -1.641246 2.275986 0
M  V30 33 H 1.953414 -3.160926 5.141689 0
M  V30 34 H 1.925764 -3.571494 3.513157 0
M  V30 35 H 1.718406 -1.005389 4.236795 0
M  V30 36 H 4.599206 -1.516451 3.570048 0
M  V30 37 H 3.934311 -1.096030 5.255149 0
M  V30 38 H 4.722941 0.743331 3.208124 0
M  V30 39 H 3.701965 1.082531 4.628336 0
M  V30 40 H 1.695590 0.933760 3.467495 0
M  V30 41 H 2.810308 1.699577 2.307873 0
M  V30 42 H 3.572432 -1.127378 -2.347196 0
M  V30 43 H -0.061140 0.847362 -1.966306 0
M  V30 44 H 0.056961 0.961486 1.746987 0
M  V30 45 H -0.758227 3.434360 1.360606 0
M  V30 46 H -2.881462 4.495769 0.975565 0
M  V30 47 H -4.669261 3.303561 -0.131559 0
M  V30 48 H -5.482456 1.282460 -1.188110 0
M  V30 49 H -1.747392 -4.208745 -4.247696 0
M  V30 50 H -2.207763 -6.098007 -2.790264 0
M  V30 51 H -3.134495 -5.659698 -0.489285 0
M  V30 52 H 3.444794 -2.014787 1.941598 0
M  V30 53 H 1.704264 -2.308060 1.831562 0
M  V30 END ATOM
M  V30 BEGIN BOND
M  V30 1 1 1 2
M  V30 2 1 2 3
M  V30 3 1 3 4
M  V30 4 1 4 5
M  V30 5 1 5 6
M  V30 6 1 6 7
M  V30 7 2 7 8
M  V30 8 1 8 9
M  V30 9 2 9 10
M  V30 10 1 10 11
M  V30 11 2 11 12
M  V30 12 1 12 13
M  V30 13 1 13 14
M  V30 14 2 14 15
M  V30 15 1 15 16
M  V30 16 2 16 17
M  V30 17 1 17 18
M  V30 18 2 18 19
M  V30 19 1 19 20
M  V30 20 2 20 21
M  V30 21 1 21 22
M  V30 22 2 22 23
M  V30 23 1 23 24
M  V30 24 1 23 25
M  V30 25 2 25 26
M  V30 26 1 26 27
M  V30 27 2 27 28
M  V30 28 1 28 29
M  V30 29 1 21 30
M  V30 30 2 30 31
M  V30 31 1 6 32
M  V30 32 1 32 2
M  V30 33 1 12 7
M  V30 34 1 31 14
M  V30 35 1 31 18
M  V30 36 1 28 22
M  V30 37 1 1 33
M  V30 38 1 1 34
M  V30 39 1 2 35 CFG=1
M  V30 40 1 3 36
M  V30 41 1 3 37
M  V30 42 1 4 38
M  V30 43 1 4 39
M  V30 44 1 5 40
M  V30 45 1 5 41
M  V30 46 1 9 42
M  V30 47 1 11 43
M  V30 48 1 13 44
M  V30 49 1 15 45
M  V30 50 1 16 46
M  V30 51 1 17 47
M  V30 52 1 19 48
M  V30 53 1 25 49
M  V30 54 1 26 50
M  V30 55 1 27 51
M  V30 56 1 32 52
M  V30 57 1 32 53
M  V30 END BOND
M  V30 END CTAB
M  END
>  <Dataset>  (807) 
ChEMBL_Kinases

>  <Ligand_Instance>  (807) 
nan

>  <PDB_ID>  (807) 
nan

>  <Standardized_SMILES>  (807) 
N[C@H]1CCCN(c2ncncc2Nc2cccc3cnc(-c4c(F)cccc4F)nc23)C1

>  <Name>  (807) 
nan

>  <Pocket>  (807) 
nan

>  <ATP_Site>  (807) 
nan

>  <Peripheral>  (807) 
nan

>  <Num_H_Atoms_ProtBoundConf>  (807) 
nan

>  <Num_Resolved_Atoms>  (807) 
nan

>  <Num_Not_Resolved_Atoms>  (807) 
nan

$$$$
CHEMBL3639859
     RDKit          3D

  0  0  0  0  0  0  0  0  0  0999 V3000
M  V30 BEGIN CTAB
M  V30 COUNTS 62 66 0 0 0
M  V30 BEGIN ATOM
M  V30 1 N -1.632802 -3.502600 2.429693 0
M  V30 2 C -1.056615 -3.185141 1.509419 0
M  V30 3 C -0.303733 -2.759781 0.337953 0
M  V30 4 C 0.858870 -2.033537 0.567458 0
M  V30 5 C 1.685100 -1.555526 -0.418185 0
M  V30 6 C 2.890810 -0.797672 -0.130853 0
M  V30 7 C 3.653122 -0.322381 -1.170059 0
M  V30 8 C 4.762845 0.399329 -0.828225 0
M  V30 9 N 5.167759 0.679930 0.405918 0
M  V30 10 C 4.407197 0.204738 1.441907 0
M  V30 11 N 4.416818 0.261248 2.885386 0
M  V30 12 C 3.380006 1.073918 3.478369 0
M  V30 13 C 3.146004 1.399647 4.814222 0
M  V30 14 N 2.060509 2.159143 4.861949 0
M  V30 15 N 1.557831 2.362456 3.666350 0
M  V30 16 C 0.356315 3.138029 3.393249 0 CFG=1
M  V30 17 C 0.082755 3.196616 1.910044 0
M  V30 18 C -1.382023 3.589984 1.729628 0
M  V30 19 C -2.182784 2.335707 2.029111 0 CFG=2
M  V30 20 O -3.500508 2.697524 2.227098 0
M  V30 21 C -1.682952 1.647055 3.270623 0
M  V30 22 C -0.839935 2.594694 4.102617 0
M  V30 23 C 2.332042 1.720156 2.804820 0
M  V30 24 N 3.328558 -0.496609 1.069855 0
M  V30 25 C 1.276546 -1.848574 -1.688666 0
M  V30 26 C 0.140872 -2.558812 -1.983693 0
M  V30 27 C -0.686320 -3.038222 -0.978386 0
M  V30 28 O -1.858858 -3.764381 -1.031396 0
M  V30 29 C -2.471628 -4.147629 -2.208234 0
M  V30 30 C -2.417312 -5.677975 -2.421814 0
M  V30 31 C -2.742924 -5.888209 -3.883080 0
M  V30 32 O -3.249638 -4.723032 -4.429754 0
M  V30 33 C -4.328733 -4.186908 -3.741681 0
M  V30 34 C -3.961611 -3.847039 -2.287469 0
M  V30 35 H 1.180806 -1.802564 1.598787 0
M  V30 36 H 3.465390 -0.457601 -2.221087 0
M  V30 37 H 5.461561 0.842697 -1.552788 0
M  V30 38 H 5.044119 -0.191021 3.591398 0
M  V30 39 H 3.825945 1.022136 5.585825 0
M  V30 40 H 0.569369 4.176779 3.723360 0
M  V30 41 H 0.769426 3.911770 1.404998 0
M  V30 42 H 0.274515 2.197044 1.461889 0
M  V30 43 H -1.594057 4.367948 2.490335 0
M  V30 44 H -1.537689 3.967057 0.715461 0
M  V30 45 H -2.150444 1.637740 1.169461 0
M  V30 46 H -3.998377 1.870025 2.526562 0
M  V30 47 H -2.541655 1.336779 3.883470 0
M  V30 48 H -1.126717 0.709812 3.034279 0
M  V30 49 H -0.595147 2.033989 5.027207 0
M  V30 50 H -1.513616 3.423243 4.421756 0
M  V30 51 H 2.211752 1.679098 1.752783 0
M  V30 52 H 1.811490 -1.549075 -2.568850 0
M  V30 53 H -0.208998 -2.806007 -2.971033 0
M  V30 54 H -2.008307 -3.694714 -3.129100 0
M  V30 55 H -1.444797 -6.090438 -2.109869 0
M  V30 56 H -3.229508 -6.142137 -1.800788 0
M  V30 57 H -3.419827 -6.756626 -4.031103 0
M  V30 58 H -1.778084 -6.142144 -4.373126 0
M  V30 59 H -5.195830 -4.851888 -3.781316 0
M  V30 60 H -4.580923 -3.214209 -4.252802 0
M  V30 61 H -4.224043 -2.827421 -2.015027 0
M  V30 62 H -4.473118 -4.598656 -1.631149 0
M  V30 END ATOM
M  V30 BEGIN BOND
M  V30 1 3 1 2
M  V30 2 1 2 3
M  V30 3 2 3 4
M  V30 4 1 4 5
M  V30 5 1 5 6
M  V30 6 2 6 7
M  V30 7 1 7 8
M  V30 8 2 8 9
M  V30 9 1 9 10
M  V30 10 1 10 11
M  V30 11 1 11 12
M  V30 12 1 12 13
M  V30 13 2 13 14
M  V30 14 1 14 15
M  V30 15 1 15 16
M  V30 16 1 16 17
M  V30 17 1 17 18
M  V30 18 1 18 19
M  V30 19 1 19 20
M  V30 20 1 19 21
M  V30 21 1 21 22
M  V30 22 1 15 23
M  V30 23 2 10 24
M  V30 24 2 5 25
M  V30 25 1 25 26
M  V30 26 2 26 27
M  V30 27 1 27 28
M  V30 28 1 28 29
M  V30 29 1 29 30
M  V30 30 1 30 31
M  V30 31 1 31 32
M  V30 32 1 32 33
M  V30 33 1 33 34
M  V30 34 1 27 3
M  V30 35 1 34 29
M  V30 36 1 24 6
M  V30 37 2 23 12
M  V30 38 1 22 16
M  V30 39 1 4 35
M  V30 40 1 7 36
M  V30 41 1 8 37
M  V30 42 1 11 38
M  V30 43 1 13 39
M  V30 44 1 16 40 CFG=1
M  V30 45 1 17 41
M  V30 46 1 17 42
M  V30 47 1 18 43
M  V30 48 1 18 44
M  V30 49 1 19 45 CFG=3
M  V30 50 1 20 46
M  V30 51 1 21 47
M  V30 52 1 21 48
M  V30 53 1 22 49
M  V30 54 1 22 50
M  V30 55 1 23 51
M  V30 56 1 25 52
M  V30 57 1 26 53
M  V30 58 1 29 54
M  V30 59 1 30 55
M  V30 60 1 30 56
M  V30 61 1 31 57
M  V30 62 1 31 58
M  V30 63 1 33 59
M  V30 64 1 33 60
M  V30 65 1 34 61
M  V30 66 1 34 62
M  V30 END BOND
M  V30 END CTAB
M  END
>  <Dataset>  (808) 
ChEMBL_Kinases

>  <Ligand_Instance>  (808) 
nan

>  <PDB_ID>  (808) 
nan

>  <Standardized_SMILES>  (808) 
N#Cc1cc(-c2ccnc(Nc3cnn([C@H]4CC[C@H](O)CC4)c3)n2)ccc1OC1CCOCC1

>  <Name>  (808) 
nan

>  <Pocket>  (808) 
nan

>  <ATP_Site>  (808) 
nan

>  <Peripheral>  (808) 
nan

>  <Num_H_Atoms_ProtBoundConf>  (808) 
nan

>  <Num_Resolved_Atoms>  (808) 
nan

>  <Num_Not_Resolved_Atoms>  (808) 
nan

$$$$
CHEMBL3639880
     RDKit          3D

  0  0  0  0  0  0  0  0  0  0999 V3000
M  V30 BEGIN CTAB
M  V30 COUNTS 66 70 0 0 0
M  V30 BEGIN ATOM
M  V30 1 O 1.742053 -2.335358 4.862203 0
M  V30 2 C 1.473982 -1.939105 3.643411 0
M  V30 3 N 2.232759 -2.666581 2.942030 0
M  V30 4 C 3.111414 -3.522633 2.244915 0
M  V30 5 C 3.111457 -3.312219 0.799595 0
M  V30 6 C 3.107984 -3.116982 -0.394195 0
M  V30 7 C 3.093757 -2.861514 -1.811227 0
M  V30 8 C 4.187154 -2.972951 -2.621694 0
M  V30 9 C 4.053272 -2.683867 -3.975931 0
M  V30 10 C 2.813436 -2.287731 -4.481689 0
M  V30 11 N 2.645873 -1.995749 -5.778562 0
M  V30 12 C 1.447620 -1.611534 -6.247978 0
M  V30 13 C 0.332838 -1.501755 -5.403176 0
M  V30 14 N -0.982021 -1.102580 -5.758343 0
M  V30 15 C -2.085862 -1.047754 -4.821735 0 CFG=1
M  V30 16 C -2.339408 -2.408389 -4.247895 0
M  V30 17 C -2.577364 -2.280696 -2.762422 0
M  V30 18 C -3.618079 -1.209511 -2.550095 0 CFG=2
M  V30 19 O -4.628444 -1.386317 -3.499994 0
M  V30 20 C -2.982967 0.136562 -2.811757 0
M  V30 21 C -1.856132 0.031743 -3.821371 0
M  V30 22 N 0.547994 -1.803977 -4.115539 0
M  V30 23 C 1.740982 -2.187982 -3.640596 0
M  V30 24 C 1.857458 -2.472380 -2.288315 0
M  V30 25 C 0.655561 -1.153819 4.393287 0
M  V30 26 C 0.200015 -0.650687 3.045004 0
M  V30 27 N -0.772576 0.325390 2.782305 0
M  V30 28 C -1.416999 0.927645 3.804086 0
M  V30 29 N -1.054180 0.521768 5.036473 0
M  V30 30 C -1.593039 1.007570 6.266239 0
M  V30 31 C -0.897088 2.184172 6.831322 0
M  V30 32 C -1.310674 3.406212 6.328110 0
M  V30 33 C -0.766703 4.594003 6.761125 0
M  V30 34 C 0.210132 4.632765 7.710325 0
M  V30 35 F 0.719408 5.804738 8.108541 0
M  V30 36 C 0.613250 3.419677 8.202910 0
M  V30 37 F 1.577752 3.384851 9.149880 0
M  V30 38 C 0.103141 2.204538 7.804953 0
M  V30 39 C -0.121726 -0.405119 5.067508 0
M  V30 40 O 0.367313 -0.930418 6.166780 0
M  V30 41 H 1.808587 -2.125989 2.091938 0
M  V30 42 H 2.831598 -4.596210 2.433576 0
M  V30 43 H 4.173402 -3.476851 2.638859 0
M  V30 44 H 5.107895 -3.285160 -2.148262 0
M  V30 45 H 4.904621 -2.773406 -4.603028 0
M  V30 46 H 1.233448 -1.360836 -7.282029 0
M  V30 47 H -1.066744 -0.848917 -6.787022 0
M  V30 48 H -2.972213 -0.750026 -5.431444 0
M  V30 49 H -1.486996 -3.088661 -4.480782 0
M  V30 50 H -3.291399 -2.822176 -4.669798 0
M  V30 51 H -2.904493 -3.258050 -2.360318 0
M  V30 52 H -1.593694 -1.991455 -2.304962 0
M  V30 53 H -4.075195 -1.290042 -1.549780 0
M  V30 54 H -5.185251 -2.180839 -3.298759 0
M  V30 55 H -2.525968 0.473171 -1.858482 0
M  V30 56 H -3.705471 0.894310 -3.125820 0
M  V30 57 H -1.800926 1.018454 -4.314448 0
M  V30 58 H -0.901212 -0.122058 -3.301949 0
M  V30 59 H 0.960263 -2.368923 -1.680800 0
M  V30 60 H 0.342091 -0.747046 1.918929 0
M  V30 61 H -2.180328 1.680411 3.892064 0
M  V30 62 H -1.558688 0.194126 7.028129 0
M  V30 63 H -2.672524 1.264923 6.138556 0
M  V30 64 H -2.090979 3.487577 5.557045 0
M  V30 65 H -1.123334 5.537494 6.336004 0
M  V30 66 H 0.386946 1.227850 8.161333 0
M  V30 END ATOM
M  V30 BEGIN BOND
M  V30 1 2 1 2
M  V30 2 1 2 3
M  V30 3 1 3 4
M  V30 4 1 4 5
M  V30 5 3 5 6
M  V30 6 1 6 7
M  V30 7 2 7 8
M  V30 8 1 8 9
M  V30 9 2 9 10
M  V30 10 1 10 11
M  V30 11 2 11 12
M  V30 12 1 12 13
M  V30 13 1 13 14
M  V30 14 1 14 15
M  V30 15 1 15 16
M  V30 16 1 16 17
M  V30 17 1 17 18
M  V30 18 1 18 19
M  V30 19 1 18 20
M  V30 20 1 20 21
M  V30 21 2 13 22
M  V30 22 1 22 23
M  V30 23 2 23 24
M  V30 24 1 2 25
M  V30 25 2 25 26
M  V30 26 1 26 27
M  V30 27 2 27 28
M  V30 28 1 28 29
M  V30 29 1 29 30
M  V30 30 1 30 31
M  V30 31 2 31 32
M  V30 32 1 32 33
M  V30 33 2 33 34
M  V30 34 1 34 35
M  V30 35 1 34 36
M  V30 36 1 36 37
M  V30 37 2 36 38
M  V30 38 1 29 39
M  V30 39 2 39 40
M  V30 40 1 24 7
M  V30 41 1 39 25
M  V30 42 1 23 10
M  V30 43 1 38 31
M  V30 44 1 21 15
M  V30 45 1 3 41
M  V30 46 1 4 42
M  V30 47 1 4 43
M  V30 48 1 8 44
M  V30 49 1 9 45
M  V30 50 1 12 46
M  V30 51 1 14 47
M  V30 52 1 15 48 CFG=3
M  V30 53 1 16 49
M  V30 54 1 16 50
M  V30 55 1 17 51
M  V30 56 1 17 52
M  V30 57 1 18 53 CFG=1
M  V30 58 1 19 54
M  V30 59 1 20 55
M  V30 60 1 20 56
M  V30 61 1 21 57
M  V30 62 1 21 58
M  V30 63 1 24 59
M  V30 64 1 26 60
M  V30 65 1 28 61
M  V30 66 1 30 62
M  V30 67 1 30 63
M  V30 68 1 32 64
M  V30 69 1 33 65
M  V30 70 1 38 66
M  V30 END BOND
M  V30 END CTAB
M  END
>  <Dataset>  (809) 
ChEMBL_Kinases

>  <Ligand_Instance>  (809) 
nan

>  <PDB_ID>  (809) 
nan

>  <Standardized_SMILES>  (809) 
O=C(NCC#Cc1ccc2ncc(N[C@H]3CC[C@H](O)CC3)nc2c1)c1cncn(Cc2ccc(F)c(F)c2)c1=O

>  <Name>  (809) 
nan

>  <Pocket>  (809) 
nan

>  <ATP_Site>  (809) 
nan

>  <Peripheral>  (809) 
nan

>  <Num_H_Atoms_ProtBoundConf>  (809) 
nan

>  <Num_Resolved_Atoms>  (809) 
nan

>  <Num_Not_Resolved_Atoms>  (809) 
nan

$$$$
CHEMBL3639881
     RDKit          3D

  0  0  0  0  0  0  0  0  0  0999 V3000
M  V30 BEGIN CTAB
M  V30 COUNTS 60 63 0 0 0
M  V30 BEGIN ATOM
M  V30 1 C 3.894437 -0.284209 5.104716 0
M  V30 2 C 3.171639 -0.811554 3.877055 0
M  V30 3 O 3.039220 0.127444 2.854734 0
M  V30 4 C 4.057780 0.764162 2.178112 0
M  V30 5 C 5.430282 0.608911 2.358495 0
M  V30 6 C 6.267357 1.355701 1.557892 0
M  V30 7 N 5.813175 2.211761 0.627211 0
M  V30 8 C 4.474707 2.396485 0.416030 0
M  V30 9 C 4.094610 3.300675 -0.551833 0
M  V30 10 C 2.720813 3.479896 -0.738732 0
M  V30 11 C 1.790277 2.769955 0.025558 0
M  V30 12 C 0.372746 2.963175 -0.126511 0
M  V30 13 C -0.836852 3.145784 -0.243570 0
M  V30 14 C -2.263421 3.378086 -0.362116 0
M  V30 15 N -2.914942 2.384685 -1.138138 0
M  V30 16 C -2.833209 1.089192 -0.730123 0
M  V30 17 O -2.184297 0.695045 0.308869 0
M  V30 18 C -3.061996 -0.288900 -0.757673 0
M  V30 19 C -4.023489 -0.045284 -1.893363 0
M  V30 20 C -4.820688 -0.984052 -2.640996 0
M  V30 21 C -4.686604 -2.341477 -2.257512 0
M  V30 22 N -3.845521 -2.632977 -1.251450 0
M  V30 23 C -3.541393 -3.889391 -0.691809 0
M  V30 24 C -3.527348 -4.936116 -1.815103 0
M  V30 25 O -3.214917 -6.186844 -1.274187 0
M  V30 26 C -2.296137 -4.054521 0.037699 0
M  V30 27 C -2.156813 -4.043021 1.434766 0
M  V30 28 C -0.964091 -4.209468 2.082617 0
M  V30 29 C 0.202822 -4.404328 1.346399 0
M  V30 30 F 1.350782 -4.563467 2.039710 0
M  V30 31 C 0.131046 -4.426311 -0.053600 0
M  V30 32 F 1.288042 -4.619128 -0.721043 0
M  V30 33 C -1.106709 -4.251105 -0.630983 0
M  V30 34 C -3.273337 -1.561335 -0.783243 0
M  V30 35 O -2.419757 -1.665849 0.201802 0
M  V30 36 C 2.264292 1.883785 0.971216 0
M  V30 37 C 3.625210 1.655914 1.209995 0
M  V30 38 H 3.203042 -0.324918 5.997605 0
M  V30 39 H 4.714958 -0.995376 5.330209 0
M  V30 40 H 4.290888 0.728684 4.986463 0
M  V30 41 H 3.684547 -1.697530 3.443698 0
M  V30 42 H 2.170770 -1.147828 4.190910 0
M  V30 43 H 5.708124 -0.097157 3.126845 0
M  V30 44 H 7.344629 1.215402 1.720215 0
M  V30 45 H 4.815050 3.855962 -1.148121 0
M  V30 46 H 2.355884 4.184258 -1.491647 0
M  V30 47 H -2.774235 3.418690 0.624549 0
M  V30 48 H -2.373128 4.344743 -0.894135 0
M  V30 49 H -3.483646 2.330107 -2.002042 0
M  V30 50 H -4.468749 0.799765 -2.539309 0
M  V30 51 H -5.544143 -1.012559 -3.460237 0
M  V30 52 H -5.175835 -3.217217 -2.660711 0
M  V30 53 H -4.370578 -4.193833 0.003798 0
M  V30 54 H -2.806808 -4.651901 -2.586662 0
M  V30 55 H -4.517479 -5.056240 -2.291556 0
M  V30 56 H -3.250766 -6.832844 -2.043051 0
M  V30 57 H -3.091877 -3.886539 1.989106 0
M  V30 58 H -1.010542 -4.176566 3.160202 0
M  V30 59 H -1.023615 -4.286592 -1.713028 0
M  V30 60 H 1.542468 1.343211 1.550881 0
M  V30 END ATOM
M  V30 BEGIN BOND
M  V30 1 1 1 2
M  V30 2 1 2 3
M  V30 3 1 3 4
M  V30 4 2 4 5
M  V30 5 1 5 6
M  V30 6 2 6 7
M  V30 7 1 7 8
M  V30 8 2 8 9
M  V30 9 1 9 10
M  V30 10 2 10 11
M  V30 11 1 11 12
M  V30 12 3 12 13
M  V30 13 1 13 14
M  V30 14 1 14 15
M  V30 15 1 15 16
M  V30 16 2 16 17
M  V30 17 1 16 18
M  V30 18 2 18 19
M  V30 19 1 19 20
M  V30 20 2 20 21
M  V30 21 1 21 22
M  V30 22 1 22 23
M  V30 23 1 23 24
M  V30 24 1 24 25
M  V30 25 1 23 26
M  V30 26 2 26 27
M  V30 27 1 27 28
M  V30 28 2 28 29
M  V30 29 1 29 30
M  V30 30 1 29 31
M  V30 31 1 31 32
M  V30 32 2 31 33
M  V30 33 1 22 34
M  V30 34 2 34 35
M  V30 35 1 11 36
M  V30 36 2 36 37
M  V30 37 1 37 4
M  V30 38 1 37 8
M  V30 39 1 34 18
M  V30 40 1 33 26
M  V30 41 1 1 38
M  V30 42 1 1 39
M  V30 43 1 1 40
M  V30 44 1 2 41
M  V30 45 1 2 42
M  V30 46 1 5 43
M  V30 47 1 6 44
M  V30 48 1 9 45
M  V30 49 1 10 46
M  V30 50 1 14 47
M  V30 51 1 14 48
M  V30 52 1 15 49
M  V30 53 1 19 50
M  V30 54 1 20 51
M  V30 55 1 21 52
M  V30 56 1 23 53
M  V30 57 1 24 54
M  V30 58 1 24 55
M  V30 59 1 25 56
M  V30 60 1 27 57
M  V30 61 1 28 58
M  V30 62 1 33 59
M  V30 63 1 36 60
M  V30 END BOND
M  V30 END CTAB
M  END
>  <Dataset>  (810) 
ChEMBL_Kinases

>  <Ligand_Instance>  (810) 
nan

>  <PDB_ID>  (810) 
nan

>  <Standardized_SMILES>  (810) 
CCOc1ccnc2ccc(C#CCNC(=O)c3cccn(C(CO)c4ccc(F)c(F)c4)c3=O)cc12

>  <Name>  (810) 
nan

>  <Pocket>  (810) 
nan

>  <ATP_Site>  (810) 
nan

>  <Peripheral>  (810) 
nan

>  <Num_H_Atoms_ProtBoundConf>  (810) 
nan

>  <Num_Resolved_Atoms>  (810) 
nan

>  <Num_Not_Resolved_Atoms>  (810) 
nan

$$$$
CHEMBL3639882
     RDKit          3D

  0  0  0  0  0  0  0  0  0  0999 V3000
M  V30 BEGIN CTAB
M  V30 COUNTS 49 52 0 0 0
M  V30 BEGIN ATOM
M  V30 1 C -1.279137 -3.185017 -1.955936 0
M  V30 2 O -0.097681 -2.475954 -1.707849 0
M  V30 3 C 0.864712 -2.954035 -0.838179 0
M  V30 4 C 0.655172 -4.159897 -0.198808 0
M  V30 5 C 1.579004 -4.689051 0.680311 0
M  V30 6 C 2.743388 -3.979803 0.917730 0
M  V30 7 C 2.924227 -2.779414 0.264874 0
M  V30 8 C 2.018551 -2.228022 -0.617508 0
M  V30 9 C 2.201249 -0.941488 -1.324757 0
M  V30 10 N 1.400027 0.123432 -0.753016 0
M  V30 11 C 1.608583 1.319609 -1.470645 0
M  V30 12 C 0.968219 2.541413 -0.891417 0
M  V30 13 C 0.721130 2.523722 0.555160 0
M  V30 14 C 1.324140 1.418907 1.360452 0
M  V30 15 N 0.478637 1.168258 2.515946 0
M  V30 16 C -0.849557 0.692493 2.494829 0
M  V30 17 C -1.562785 0.365098 1.368643 0
M  V30 18 C -2.859152 -0.095400 1.329079 0
M  V30 19 C -3.532319 -0.253160 2.523098 0
M  V30 20 N -4.765828 -0.663778 2.894185 0
M  V30 21 N -4.892922 -0.620571 4.206812 0
M  V30 22 C -3.743128 -0.178967 4.736898 0
M  V30 23 C -2.867228 0.059375 3.682601 0
M  V30 24 C -1.579026 0.512415 3.651801 0
M  V30 25 C 1.595588 0.145333 0.653009 0
M  V30 26 H -1.994862 -2.487685 -2.448405 0
M  V30 27 H -1.078724 -4.024576 -2.630788 0
M  V30 28 H -1.684040 -3.494990 -0.974055 0
M  V30 29 H -0.241341 -4.782988 -0.332898 0
M  V30 30 H 1.492127 -5.624798 1.220626 0
M  V30 31 H 3.530413 -4.328090 1.601789 0
M  V30 32 H 3.837623 -2.237180 0.459373 0
M  V30 33 H 3.290479 -0.677373 -1.190322 0
M  V30 34 H 2.048953 -1.091482 -2.397988 0
M  V30 35 H 2.710499 1.531169 -1.493677 0
M  V30 36 H 1.325366 1.126591 -2.526570 0
M  V30 37 H -0.024125 2.627540 -1.423877 0
M  V30 38 H 1.504722 3.458468 -1.212625 0
M  V30 39 H -0.365273 2.647294 0.795835 0
M  V30 40 H 1.160645 3.483418 0.980926 0
M  V30 41 H 2.315957 1.767268 1.788884 0
M  V30 42 H 0.858900 1.347724 3.495350 0
M  V30 43 H -1.110398 0.454722 0.395614 0
M  V30 44 H -3.385332 -0.341157 0.431950 0
M  V30 45 H -5.514516 -0.970628 2.259816 0
M  V30 46 H -3.543188 -0.037996 5.787664 0
M  V30 47 H -1.117715 0.740295 4.625310 0
M  V30 48 H 2.623467 -0.212780 0.885567 0
M  V30 49 H 0.899399 -0.645716 1.070788 0
M  V30 END ATOM
M  V30 BEGIN BOND
M  V30 1 1 1 2
M  V30 2 1 2 3
M  V30 3 2 3 4
M  V30 4 1 4 5
M  V30 5 2 5 6
M  V30 6 1 6 7
M  V30 7 2 7 8
M  V30 8 1 8 9
M  V30 9 1 9 10
M  V30 10 1 10 11
M  V30 11 1 11 12
M  V30 12 1 12 13
M  V30 13 1 13 14
M  V30 14 1 14 15
M  V30 15 1 15 16
M  V30 16 2 16 17
M  V30 17 1 17 18
M  V30 18 2 18 19
M  V30 19 1 19 20
M  V30 20 1 20 21
M  V30 21 2 21 22
M  V30 22 1 22 23
M  V30 23 2 23 24
M  V30 24 1 14 25
M  V30 25 1 8 3
M  V30 26 1 25 10
M  V30 27 1 24 16
M  V30 28 1 23 19
M  V30 29 1 1 26
M  V30 30 1 1 27
M  V30 31 1 1 28
M  V30 32 1 4 29
M  V30 33 1 5 30
M  V30 34 1 6 31
M  V30 35 1 7 32
M  V30 36 1 9 33
M  V30 37 1 9 34
M  V30 38 1 11 35
M  V30 39 1 11 36
M  V30 40 1 12 37
M  V30 41 1 12 38
M  V30 42 1 13 39
M  V30 43 1 13 40
M  V30 44 1 14 41
M  V30 45 1 15 42
M  V30 46 1 17 43
M  V30 47 1 18 44
M  V30 48 1 20 45
M  V30 49 1 22 46
M  V30 50 1 24 47
M  V30 51 1 25 48
M  V30 52 1 25 49
M  V30 END BOND
M  V30 END CTAB
M  END
>  <Dataset>  (811) 
ChEMBL_Kinases

>  <Ligand_Instance>  (811) 
nan

>  <PDB_ID>  (811) 
nan

>  <Standardized_SMILES>  (811) 
COc1ccccc1CN1CCCC(Nc2ccc3[nH]ncc3c2)C1

>  <Name>  (811) 
nan

>  <Pocket>  (811) 
nan

>  <ATP_Site>  (811) 
nan

>  <Peripheral>  (811) 
nan

>  <Num_H_Atoms_ProtBoundConf>  (811) 
nan

>  <Num_Resolved_Atoms>  (811) 
nan

>  <Num_Not_Resolved_Atoms>  (811) 
nan

$$$$
CHEMBL3639883
     RDKit          3D

  0  0  0  0  0  0  0  0  0  0999 V3000
M  V30 BEGIN CTAB
M  V30 COUNTS 51 54 0 0 0
M  V30 BEGIN ATOM
M  V30 1 O 1.570368 -6.932976 2.272129 0
M  V30 2 C 1.413462 -7.058287 1.024659 0
M  V30 3 O 1.076212 -8.287519 0.511119 0
M  V30 4 C 1.559279 -5.973620 -0.001805 0
M  V30 5 O 1.904607 -4.756414 0.630640 0
M  V30 6 C 2.093429 -3.595258 -0.144762 0
M  V30 7 C 1.929422 -3.702550 -1.511987 0
M  V30 8 C 2.116126 -2.554649 -2.276626 0
M  V30 9 C 2.456285 -1.373909 -1.608662 0
M  V30 10 C 2.618521 -1.274432 -0.241469 0
M  V30 11 C 2.976646 0.057513 0.252530 0
M  V30 12 N 1.888023 0.917884 0.578518 0
M  V30 13 C 2.232744 2.217836 1.055660 0
M  V30 14 C 1.657229 2.302228 2.444426 0
M  V30 15 C 0.337006 1.544365 2.266198 0 CFG=1
M  V30 16 N -0.658500 2.202437 1.526617 0
M  V30 17 C -1.964968 2.303321 0.996589 0
M  V30 18 C -2.350634 3.387689 0.193431 0
M  V30 19 C -3.618728 3.477245 -0.313638 0
M  V30 20 C -4.489272 2.464868 -0.002357 0
M  V30 21 C -4.215612 1.361689 0.772901 0
M  V30 22 C -5.169998 0.406168 1.025000 0
M  V30 23 N -4.837828 -0.644313 1.795119 0
M  V30 24 C -3.592830 -0.766711 2.315610 0
M  V30 25 C -2.672539 0.217870 2.033221 0
M  V30 26 C -2.916304 1.330720 1.255222 0
M  V30 27 C 0.879130 0.371433 1.425527 0
M  V30 28 C 2.429696 -2.421848 0.500565 0
M  V30 29 H 0.789748 -9.036975 1.135930 0
M  V30 30 H 0.557376 -5.808110 -0.489167 0
M  V30 31 H 2.237270 -6.252807 -0.826198 0
M  V30 32 H 1.664942 -4.650879 -1.962430 0
M  V30 33 H 1.998169 -2.591575 -3.350429 0
M  V30 34 H 2.583499 -0.527484 -2.276865 0
M  V30 35 H 3.606743 0.604219 -0.490026 0
M  V30 36 H 3.628126 -0.080655 1.161276 0
M  V30 37 H 3.344757 2.303305 1.084050 0
M  V30 38 H 1.819308 3.023484 0.401585 0
M  V30 39 H 2.266476 1.674058 3.105007 0
M  V30 40 H 1.516098 3.328005 2.808399 0
M  V30 41 H 0.070241 1.226894 3.296424 0
M  V30 42 H -0.109683 3.040162 1.236761 0
M  V30 43 H -1.647170 4.190097 -0.048757 0
M  V30 44 H -3.857177 4.333086 -0.924135 0
M  V30 45 H -5.476790 2.579135 -0.424607 0
M  V30 46 H -6.133675 0.583438 0.571080 0
M  V30 47 H -3.362202 -1.623077 2.929386 0
M  V30 48 H -1.720356 0.068214 2.473663 0
M  V30 49 H 0.009335 -0.003510 0.852215 0
M  V30 50 H 1.249998 -0.402501 2.122992 0
M  V30 51 H 2.561697 -2.324012 1.564131 0
M  V30 END ATOM
M  V30 BEGIN BOND
M  V30 1 2 1 2
M  V30 2 1 2 3
M  V30 3 1 2 4
M  V30 4 1 4 5
M  V30 5 1 5 6
M  V30 6 2 6 7
M  V30 7 1 7 8
M  V30 8 2 8 9
M  V30 9 1 9 10
M  V30 10 1 10 11
M  V30 11 1 11 12
M  V30 12 1 12 13
M  V30 13 1 13 14
M  V30 14 1 14 15
M  V30 15 1 15 16
M  V30 16 1 16 17
M  V30 17 2 17 18
M  V30 18 1 18 19
M  V30 19 2 19 20
M  V30 20 1 20 21
M  V30 21 2 21 22
M  V30 22 1 22 23
M  V30 23 2 23 24
M  V30 24 1 24 25
M  V30 25 2 25 26
M  V30 26 1 15 27
M  V30 27 2 10 28
M  V30 28 1 28 6
M  V30 29 1 27 12
M  V30 30 1 26 17
M  V30 31 1 26 21
M  V30 32 1 3 29
M  V30 33 1 4 30
M  V30 34 1 4 31
M  V30 35 1 7 32
M  V30 36 1 8 33
M  V30 37 1 9 34
M  V30 38 1 11 35
M  V30 39 1 11 36
M  V30 40 1 13 37
M  V30 41 1 13 38
M  V30 42 1 14 39
M  V30 43 1 14 40
M  V30 44 1 15 41 CFG=1
M  V30 45 1 16 42
M  V30 46 1 18 43
M  V30 47 1 19 44
M  V30 48 1 20 45
M  V30 49 1 22 46
M  V30 50 1 24 47
M  V30 51 1 25 48
M  V30 52 1 27 49
M  V30 53 1 27 50
M  V30 54 1 28 51
M  V30 END BOND
M  V30 END CTAB
M  END
>  <Dataset>  (812) 
ChEMBL_Kinases

>  <Ligand_Instance>  (812) 
nan

>  <PDB_ID>  (812) 
nan

>  <Standardized_SMILES>  (812) 
O=C(O)COc1cccc(CN2CC[C@@H](Nc3cccc4cnccc34)C2)c1

>  <Name>  (812) 
nan

>  <Pocket>  (812) 
nan

>  <ATP_Site>  (812) 
nan

>  <Peripheral>  (812) 
nan

>  <Num_H_Atoms_ProtBoundConf>  (812) 
nan

>  <Num_Resolved_Atoms>  (812) 
nan

>  <Num_Not_Resolved_Atoms>  (812) 
nan

$$$$
CHEMBL363990
     RDKit          3D

  0  0  0  0  0  0  0  0  0  0999 V3000
M  V30 BEGIN CTAB
M  V30 COUNTS 31 33 0 0 0
M  V30 BEGIN ATOM
M  V30 1 C -1.699005 -3.077533 0.746359 0
M  V30 2 C -1.329225 -1.962582 -0.205623 0
M  V30 3 N -0.308720 -1.097092 0.269508 0
M  V30 4 C 1.012102 -1.205569 0.173117 0
M  V30 5 C 1.918254 -2.194444 -0.369758 0
M  V30 6 N 3.252936 -2.038870 -0.390099 0
M  V30 7 O 3.854142 -3.032253 -0.943253 0
M  V30 8 N 3.003382 -3.931917 -1.339270 0
M  V30 9 C 1.817518 -3.410667 -0.983187 0
M  V30 10 N 0.647616 -4.140768 -1.240449 0
M  V30 11 N 1.475706 -0.084218 0.743931 0
M  V30 12 C 0.499444 0.694852 1.181978 0
M  V30 13 C 0.570497 1.910839 1.816248 0
M  V30 14 O 1.798788 2.480111 2.075167 0
M  V30 15 C 1.976297 3.716663 2.717139 0
M  V30 16 N -0.591800 2.497996 2.160544 0
M  V30 17 C -1.805418 1.927229 1.900350 0
M  V30 18 C -1.851916 0.685812 1.251945 0
M  V30 19 C -0.678610 0.060092 0.887108 0
M  V30 20 H -2.505958 -2.708918 1.433728 0
M  V30 21 H -2.044828 -3.987766 0.242677 0
M  V30 22 H -0.841696 -3.360836 1.394395 0
M  V30 23 H -2.304154 -1.386975 -0.377460 0
M  V30 24 H -1.157036 -2.384185 -1.203261 0
M  V30 25 H -0.139444 -4.777002 -1.019047 0
M  V30 26 H -0.125114 -4.452108 -1.874699 0
M  V30 27 H 2.965950 3.687333 3.234875 0
M  V30 28 H 2.058058 4.548240 1.992350 0
M  V30 29 H 1.185502 3.947360 3.460766 0
M  V30 30 H -2.734471 2.392806 2.173603 0
M  V30 31 H -2.764159 0.160058 1.005783 0
M  V30 END ATOM
M  V30 BEGIN BOND
M  V30 1 1 1 2
M  V30 2 1 2 3
M  V30 3 1 3 4
M  V30 4 1 4 5
M  V30 5 2 5 6
M  V30 6 1 6 7
M  V30 7 1 7 8
M  V30 8 2 8 9
M  V30 9 1 9 10
M  V30 10 2 4 11
M  V30 11 1 11 12
M  V30 12 2 12 13
M  V30 13 1 13 14
M  V30 14 1 14 15
M  V30 15 1 13 16
M  V30 16 2 16 17
M  V30 17 1 17 18
M  V30 18 2 18 19
M  V30 19 1 19 3
M  V30 20 1 9 5
M  V30 21 1 19 12
M  V30 22 1 1 20
M  V30 23 1 1 21
M  V30 24 1 1 22
M  V30 25 1 2 23
M  V30 26 1 2 24
M  V30 27 1 10 25
M  V30 28 1 10 26
M  V30 29 1 15 27
M  V30 30 1 15 28
M  V30 31 1 15 29
M  V30 32 1 17 30
M  V30 33 1 18 31
M  V30 END BOND
M  V30 END CTAB
M  END
>  <Dataset>  (813) 
ChEMBL_Kinases

>  <Ligand_Instance>  (813) 
nan

>  <PDB_ID>  (813) 
nan

>  <Standardized_SMILES>  (813) 
CCn1c(-c2nonc2N)nc2c(OC)nccc21

>  <Name>  (813) 
nan

>  <Pocket>  (813) 
nan

>  <ATP_Site>  (813) 
nan

>  <Peripheral>  (813) 
nan

>  <Num_H_Atoms_ProtBoundConf>  (813) 
nan

>  <Num_Resolved_Atoms>  (813) 
nan

>  <Num_Not_Resolved_Atoms>  (813) 
nan

$$$$
CHEMBL3639832
     RDKit          3D

  0  0  0  0  0  0  0  0  0  0999 V3000
M  V30 BEGIN CTAB
M  V30 COUNTS 50 55 0 0 0
M  V30 BEGIN ATOM
M  V30 1 C 7.961193 -5.390978 -0.337203 0
M  V30 2 C 7.212786 -4.116827 -0.595193 0
M  V30 3 C 5.952022 -3.741136 -0.115889 0
M  V30 4 C 5.666610 -2.484488 -0.612068 0
M  V30 5 C 4.431480 -1.764727 -0.324035 0
M  V30 6 O 3.600931 -2.347618 0.420266 0
M  V30 7 N 4.168656 -0.473923 -0.849881 0
M  V30 8 C 2.887806 0.005570 -0.413431 0
M  V30 9 C 2.788306 0.730675 0.756083 0
M  V30 10 C 1.545513 1.178146 1.150245 0
M  V30 11 C 0.363529 0.937142 0.424691 0
M  V30 12 C -0.935726 1.407125 0.776518 0
M  V30 13 N -1.016507 2.769385 0.805843 0
M  V30 14 N -2.274471 3.143727 1.095281 0
M  V30 15 C -3.006099 2.029546 1.252728 0
M  V30 16 N -2.173651 0.997767 1.058349 0
M  V30 17 C -2.448379 -0.383507 1.116113 0
M  V30 18 C -1.312898 -1.083985 1.415348 0
M  V30 19 C -1.404062 -2.459813 1.455155 0
M  V30 20 C -2.648917 -3.044828 1.189955 0
M  V30 21 N -3.783500 -2.338507 0.894833 0
M  V30 22 C -3.663391 -0.978442 0.862682 0
M  V30 23 N -4.951731 -0.368323 0.614207 0
M  V30 24 C -5.262270 0.926678 1.184999 0
M  V30 25 C -6.632797 1.008654 1.428142 0
M  V30 26 C -7.102945 2.178190 1.990702 0
M  V30 27 C -6.256376 3.237861 2.306538 0
M  V30 28 C -4.898586 3.173526 2.072009 0
M  V30 29 C -4.438313 2.010258 1.512959 0
M  V30 30 C 0.606331 0.191012 -0.739850 0
M  V30 31 C 1.806174 -0.297579 -1.213831 0
M  V30 32 N 6.735705 -2.147181 -1.357019 0
M  V30 33 O 7.620005 -3.098467 -1.338228 0
M  V30 34 H 9.027817 -5.123634 -0.213503 0
M  V30 35 H 7.624224 -5.821222 0.644251 0
M  V30 36 H 7.836699 -6.112518 -1.166960 0
M  V30 37 H 5.373808 -4.405855 0.535933 0
M  V30 38 H 4.856591 -0.005419 -1.458998 0
M  V30 39 H 3.660265 0.948679 1.357757 0
M  V30 40 H 1.429985 1.750019 2.062305 0
M  V30 41 H -0.337984 -0.771051 1.678438 0
M  V30 42 H -0.618437 -3.167943 1.670393 0
M  V30 43 H -2.774411 -4.116163 1.205803 0
M  V30 44 H -5.643626 -0.861987 0.049613 0
M  V30 45 H -7.238927 0.159019 1.161049 0
M  V30 46 H -8.162025 2.264109 2.188119 0
M  V30 47 H -6.624832 4.154289 2.747879 0
M  V30 48 H -4.155907 3.927779 2.274875 0
M  V30 49 H -0.296580 -0.014140 -1.328905 0
M  V30 50 H 1.808433 -0.850336 -2.125804 0
M  V30 END ATOM
M  V30 BEGIN BOND
M  V30 1 1 1 2
M  V30 2 2 2 3
M  V30 3 1 3 4
M  V30 4 1 4 5
M  V30 5 2 5 6
M  V30 6 1 5 7
M  V30 7 1 7 8
M  V30 8 2 8 9
M  V30 9 1 9 10
M  V30 10 2 10 11
M  V30 11 1 11 12
M  V30 12 2 12 13
M  V30 13 1 13 14
M  V30 14 2 14 15
M  V30 15 1 15 16
M  V30 16 1 16 17
M  V30 17 2 17 18
M  V30 18 1 18 19
M  V30 19 2 19 20
M  V30 20 1 20 21
M  V30 21 2 21 22
M  V30 22 1 22 23
M  V30 23 1 23 24
M  V30 24 2 24 25
M  V30 25 1 25 26
M  V30 26 2 26 27
M  V30 27 1 27 28
M  V30 28 2 28 29
M  V30 29 1 11 30
M  V30 30 2 30 31
M  V30 31 2 4 32
M  V30 32 1 32 33
M  V30 33 1 33 2
M  V30 34 1 31 8
M  V30 35 1 16 12
M  V30 36 1 22 17
M  V30 37 1 29 24
M  V30 38 1 29 15
M  V30 39 1 1 34
M  V30 40 1 1 35
M  V30 41 1 1 36
M  V30 42 1 3 37
M  V30 43 1 7 38
M  V30 44 1 9 39
M  V30 45 1 10 40
M  V30 46 1 18 41
M  V30 47 1 19 42
M  V30 48 1 20 43
M  V30 49 1 23 44
M  V30 50 1 25 45
M  V30 51 1 26 46
M  V30 52 1 27 47
M  V30 53 1 28 48
M  V30 54 1 30 49
M  V30 55 1 31 50
M  V30 END BOND
M  V30 END CTAB
M  END
>  <Dataset>  (814) 
ChEMBL_Kinases

>  <Ligand_Instance>  (814) 
nan

>  <PDB_ID>  (814) 
nan

>  <Standardized_SMILES>  (814) 
Cc1cc(C(=O)Nc2ccc(-c3nnc4n3-c3cccnc3Nc3ccccc3-4)cc2)no1

>  <Name>  (814) 
nan

>  <Pocket>  (814) 
nan

>  <ATP_Site>  (814) 
nan

>  <Peripheral>  (814) 
nan

>  <Num_H_Atoms_ProtBoundConf>  (814) 
nan

>  <Num_Resolved_Atoms>  (814) 
nan

>  <Num_Not_Resolved_Atoms>  (814) 
nan

$$$$
CHEMBL3640439
     RDKit          3D

  0  0  0  0  0  0  0  0  0  0999 V3000
M  V30 BEGIN CTAB
M  V30 COUNTS 61 65 0 0 0
M  V30 BEGIN ATOM
M  V30 1 C 4.257985 -3.470312 -0.240115 0
M  V30 2 N 4.128378 -4.177428 -1.509276 0
M  V30 3 C 2.799755 -4.084361 -2.091260 0
M  V30 4 C 3.171086 -2.909360 -2.933430 0
M  V30 5 N 2.844762 -1.600273 -2.442662 0
M  V30 6 C 3.200505 -0.485381 -3.248785 0
M  V30 7 N 3.818943 -0.725259 -4.417702 0
M  V30 8 C 4.188059 0.290855 -5.239349 0
M  V30 9 N 3.932371 1.575810 -4.882909 0
M  V30 10 C 3.315214 1.886819 -3.724066 0
M  V30 11 C 3.048920 3.188662 -3.348881 0
M  V30 12 C 2.411622 3.451926 -2.145924 0
M  V30 13 C 2.046531 2.401364 -1.328312 0
M  V30 14 C 1.376515 2.626947 -0.057286 0
M  V30 15 C 0.804066 2.805446 0.989065 0
M  V30 16 C 0.088534 3.007282 2.261250 0
M  V30 17 N -1.044981 2.137473 2.379056 0
M  V30 18 C -1.887857 2.152197 3.522786 0
M  V30 19 O -1.450460 3.020423 4.327108 0
M  V30 20 C -3.055633 1.305286 3.723197 0
M  V30 21 C -3.686168 1.551152 4.952719 0
M  V30 22 N -4.782593 0.851882 5.293604 0
M  V30 23 C -5.338836 -0.096682 4.519418 0
M  V30 24 N -4.725449 -0.322997 3.343817 0
M  V30 25 C -5.238443 -1.314037 2.444933 0
M  V30 26 C -4.674336 -2.657876 2.657158 0
M  V30 27 C -5.367962 -3.475366 3.558226 0
M  V30 28 C -4.987998 -4.762456 3.880975 0
M  V30 29 C -3.844379 -5.297584 3.281347 0
M  V30 30 F -3.446299 -6.549474 3.574034 0
M  V30 31 C -3.149148 -4.499776 2.388346 0
M  V30 32 F -2.017206 -4.969103 1.766439 0
M  V30 33 C -3.540504 -3.212287 2.073895 0
M  V30 34 C -3.639113 0.340304 2.958993 0
M  V30 35 O -3.059945 0.146527 1.880711 0
M  V30 36 C 2.316829 1.102806 -1.711641 0
M  V30 37 C 2.949736 0.826478 -2.904701 0
M  V30 38 C 4.588688 -3.328124 -2.614201 0
M  V30 39 H 3.255256 -3.389006 0.245085 0
M  V30 40 H 4.648977 -2.432696 -0.397109 0
M  V30 41 H 4.966801 -3.995348 0.443093 0
M  V30 42 H 2.029295 -3.894252 -1.312278 0
M  V30 43 H 2.539606 -5.008720 -2.641777 0
M  V30 44 H 2.901231 -3.099654 -3.992434 0
M  V30 45 H 2.369021 -1.612399 -1.522531 0
M  V30 46 H 4.690125 0.083010 -6.186877 0
M  V30 47 H 3.351387 4.003976 -4.020421 0
M  V30 48 H 2.193613 4.447257 -1.831240 0
M  V30 49 H 0.734452 2.860863 3.143050 0
M  V30 50 H -0.271965 4.052161 2.269065 0
M  V30 51 H -1.236326 1.485316 1.592229 0
M  V30 52 H -3.392247 2.262905 5.697580 0
M  V30 53 H -6.211965 -0.646002 4.802780 0
M  V30 54 H -6.333578 -1.354628 2.519884 0
M  V30 55 H -5.033050 -1.049463 1.367902 0
M  V30 56 H -6.276886 -3.119479 4.067417 0
M  V30 57 H -5.560872 -5.351930 4.584790 0
M  V30 58 H -3.032114 -2.559167 1.388040 0
M  V30 59 H 2.015868 0.315794 -1.046205 0
M  V30 60 H 5.090395 -3.929092 -3.421362 0
M  V30 61 H 5.183972 -2.461561 -2.249826 0
M  V30 END ATOM
M  V30 BEGIN BOND
M  V30 1 1 1 2
M  V30 2 1 2 3
M  V30 3 1 3 4
M  V30 4 1 4 5
M  V30 5 1 5 6
M  V30 6 2 6 7
M  V30 7 1 7 8
M  V30 8 2 8 9
M  V30 9 1 9 10
M  V30 10 2 10 11
M  V30 11 1 11 12
M  V30 12 2 12 13
M  V30 13 1 13 14
M  V30 14 3 14 15
M  V30 15 1 15 16
M  V30 16 1 16 17
M  V30 17 1 17 18
M  V30 18 2 18 19
M  V30 19 1 18 20
M  V30 20 2 20 21
M  V30 21 1 21 22
M  V30 22 2 22 23
M  V30 23 1 23 24
M  V30 24 1 24 25
M  V30 25 1 25 26
M  V30 26 2 26 27
M  V30 27 1 27 28
M  V30 28 2 28 29
M  V30 29 1 29 30
M  V30 30 1 29 31
M  V30 31 1 31 32
M  V30 32 2 31 33
M  V30 33 1 24 34
M  V30 34 2 34 35
M  V30 35 1 13 36
M  V30 36 2 36 37
M  V30 37 1 4 38
M  V30 38 1 38 2
M  V30 39 1 37 6
M  V30 40 1 37 10
M  V30 41 1 34 20
M  V30 42 1 33 26
M  V30 43 1 1 39
M  V30 44 1 1 40
M  V30 45 1 1 41
M  V30 46 1 3 42
M  V30 47 1 3 43
M  V30 48 1 4 44
M  V30 49 1 5 45
M  V30 50 1 8 46
M  V30 51 1 11 47
M  V30 52 1 12 48
M  V30 53 1 16 49
M  V30 54 1 16 50
M  V30 55 1 17 51
M  V30 56 1 21 52
M  V30 57 1 23 53
M  V30 58 1 25 54
M  V30 59 1 25 55
M  V30 60 1 27 56
M  V30 61 1 28 57
M  V30 62 1 33 58
M  V30 63 1 36 59
M  V30 64 1 38 60
M  V30 65 1 38 61
M  V30 END BOND
M  V30 END CTAB
M  END
>  <Dataset>  (815) 
ChEMBL_Kinases

>  <Ligand_Instance>  (815) 
nan

>  <PDB_ID>  (815) 
nan

>  <Standardized_SMILES>  (815) 
CN1CC(Nc2ncnc3ccc(C#CCNC(=O)c4cncn(Cc5ccc(F)c(F)c5)c4=O)cc23)C1

>  <Name>  (815) 
nan

>  <Pocket>  (815) 
nan

>  <ATP_Site>  (815) 
nan

>  <Peripheral>  (815) 
nan

>  <Num_H_Atoms_ProtBoundConf>  (815) 
nan

>  <Num_Resolved_Atoms>  (815) 
nan

>  <Num_Not_Resolved_Atoms>  (815) 
nan

$$$$
CHEMBL3640438
     RDKit          3D

  0  0  0  0  0  0  0  0  0  0999 V3000
M  V30 BEGIN CTAB
M  V30 COUNTS 52 55 0 0 0
M  V30 BEGIN ATOM
M  V30 1 C 3.016045 -2.672296 3.264783 0
M  V30 2 N 3.033319 -1.512114 2.371918 0
M  V30 3 C 4.205842 -0.827163 1.955572 0
M  V30 4 N 5.355076 -1.323097 2.447473 0
M  V30 5 C 6.550821 -0.785795 2.147175 0
M  V30 6 N 6.649854 0.290214 1.327006 0
M  V30 7 C 5.513227 0.823249 0.807701 0
M  V30 8 C 5.494710 1.914525 -0.035432 0
M  V30 9 C 4.317398 2.421939 -0.538850 0
M  V30 10 C 3.098621 1.827261 -0.196512 0
M  V30 11 C 1.860921 2.343357 -0.712375 0
M  V30 12 C 0.810160 2.761356 -1.157239 0
M  V30 13 C -0.468441 3.243225 -1.700306 0
M  V30 14 N -1.442791 2.169864 -1.480284 0
M  V30 15 C -1.536892 1.917959 -0.091844 0
M  V30 16 O -0.739288 2.710951 0.518285 0
M  V30 17 C -2.378280 0.938547 0.582366 0
M  V30 18 C -2.236666 0.939893 1.976949 0
M  V30 19 N -2.946734 0.092332 2.739679 0
M  V30 20 C -3.819396 -0.792284 2.228571 0
M  V30 21 N -3.957503 -0.796153 0.891938 0
M  V30 22 C -4.878341 -1.721045 0.262421 0
M  V30 23 C -4.195889 -3.000063 -0.063915 0
M  V30 24 C -3.547436 -3.328046 -1.235445 0
M  V30 25 C -2.956647 -4.565305 -1.389783 0
M  V30 26 C -2.983961 -5.522032 -0.396245 0
M  V30 27 F -2.391823 -6.726964 -0.585127 0
M  V30 28 C -3.620336 -5.243719 0.795786 0
M  V30 29 F -3.685173 -6.132768 1.809700 0
M  V30 30 C -4.200360 -3.996866 0.916074 0
M  V30 31 C -3.277605 0.024215 0.080619 0
M  V30 32 O -3.382058 0.045291 -1.150114 0
M  V30 33 C 3.079277 0.735111 0.643686 0
M  V30 34 C 4.287136 0.266992 1.119719 0
M  V30 35 H 2.475360 -3.527362 2.847920 0
M  V30 36 H 4.096439 -2.930988 3.443163 0
M  V30 37 H 2.612926 -2.331812 4.239532 0
M  V30 38 H 2.034798 -1.332853 2.138534 0
M  V30 39 H 7.445145 -1.242395 2.584455 0
M  V30 40 H 6.440297 2.372687 -0.298556 0
M  V30 41 H 4.347625 3.289888 -1.205151 0
M  V30 42 H -0.333350 3.355841 -2.792771 0
M  V30 43 H -0.806695 4.169095 -1.197265 0
M  V30 44 H -2.033574 1.603109 -2.122157 0
M  V30 45 H -1.556631 1.614039 2.515410 0
M  V30 46 H -4.361478 -1.447753 2.888561 0
M  V30 47 H -5.357008 -1.270989 -0.630468 0
M  V30 48 H -5.688394 -1.929063 0.994320 0
M  V30 49 H -3.543153 -2.564038 -1.989699 0
M  V30 50 H -2.467671 -4.735283 -2.348386 0
M  V30 51 H -4.697560 -3.795135 1.862700 0
M  V30 52 H 2.130476 0.285899 0.899597 0
M  V30 END ATOM
M  V30 BEGIN BOND
M  V30 1 1 1 2
M  V30 2 1 2 3
M  V30 3 2 3 4
M  V30 4 1 4 5
M  V30 5 2 5 6
M  V30 6 1 6 7
M  V30 7 2 7 8
M  V30 8 1 8 9
M  V30 9 2 9 10
M  V30 10 1 10 11
M  V30 11 3 11 12
M  V30 12 1 12 13
M  V30 13 1 13 14
M  V30 14 1 14 15
M  V30 15 2 15 16
M  V30 16 1 15 17
M  V30 17 2 17 18
M  V30 18 1 18 19
M  V30 19 2 19 20
M  V30 20 1 20 21
M  V30 21 1 21 22
M  V30 22 1 22 23
M  V30 23 2 23 24
M  V30 24 1 24 25
M  V30 25 2 25 26
M  V30 26 1 26 27
M  V30 27 1 26 28
M  V30 28 1 28 29
M  V30 29 2 28 30
M  V30 30 1 21 31
M  V30 31 2 31 32
M  V30 32 1 10 33
M  V30 33 2 33 34
M  V30 34 1 34 3
M  V30 35 1 34 7
M  V30 36 1 31 17
M  V30 37 1 30 23
M  V30 38 1 1 35
M  V30 39 1 1 36
M  V30 40 1 1 37
M  V30 41 1 2 38
M  V30 42 1 5 39
M  V30 43 1 8 40
M  V30 44 1 9 41
M  V30 45 1 13 42
M  V30 46 1 13 43
M  V30 47 1 14 44
M  V30 48 1 18 45
M  V30 49 1 20 46
M  V30 50 1 22 47
M  V30 51 1 22 48
M  V30 52 1 24 49
M  V30 53 1 25 50
M  V30 54 1 30 51
M  V30 55 1 33 52
M  V30 END BOND
M  V30 END CTAB
M  END
>  <Dataset>  (816) 
ChEMBL_Kinases

>  <Ligand_Instance>  (816) 
nan

>  <PDB_ID>  (816) 
nan

>  <Standardized_SMILES>  (816) 
CNc1ncnc2ccc(C#CCNC(=O)c3cncn(Cc4ccc(F)c(F)c4)c3=O)cc12

>  <Name>  (816) 
nan

>  <Pocket>  (816) 
nan

>  <ATP_Site>  (816) 
nan

>  <Peripheral>  (816) 
nan

>  <Num_H_Atoms_ProtBoundConf>  (816) 
nan

>  <Num_Resolved_Atoms>  (816) 
nan

>  <Num_Not_Resolved_Atoms>  (816) 
nan

$$$$
CHEMBL3640437
     RDKit          3D

  0  0  0  0  0  0  0  0  0  0999 V3000
M  V30 BEGIN CTAB
M  V30 COUNTS 61 64 0 0 0
M  V30 BEGIN ATOM
M  V30 1 C 4.652130 -1.152350 3.250082 0
M  V30 2 C 3.201688 -0.927559 3.622774 0
M  V30 3 C 2.389113 -1.340608 2.445551 0
M  V30 4 N 2.911580 0.331589 4.206813 0
M  V30 5 C 2.986686 1.712736 3.898793 0
M  V30 6 C 4.166967 2.351171 4.228011 0
M  V30 7 N 5.306541 1.768208 4.846853 0 CHG=1 VAL=4
M  V30 8 O 5.505601 0.851670 5.668249 0
M  V30 9 O 6.571635 2.228702 4.567704 0 CHG=-1 VAL=1
M  V30 10 C 4.356969 3.713981 3.967812 0
M  V30 11 N 3.354001 4.404028 3.381891 0
M  V30 12 C 2.191649 3.837551 3.042640 0
M  V30 13 C 1.166769 4.548610 2.445805 0
M  V30 14 C -0.037158 3.920215 2.108321 0
M  V30 15 C -0.176042 2.575016 2.385640 0
M  V30 16 C -1.412271 1.885203 2.048600 0
M  V30 17 C -2.427011 1.299272 1.757292 0
M  V30 18 C -3.649120 0.567043 1.391655 0
M  V30 19 N -3.355301 -0.561102 0.554670 0
M  V30 20 C -4.346887 -1.434368 0.059734 0
M  V30 21 O -5.490138 -1.044268 0.480065 0
M  V30 22 C -4.150445 -2.598477 -0.790803 0
M  V30 23 C -5.339237 -3.268315 -1.116562 0
M  V30 24 N -5.325245 -4.362696 -1.894688 0
M  V30 25 C -4.199712 -4.875665 -2.400066 0
M  V30 26 N -3.063618 -4.236036 -2.089111 0
M  V30 27 C -1.817765 -4.757090 -2.616240 0
M  V30 28 C -1.585101 -4.102181 -3.930901 0
M  V30 29 C -0.900183 -2.939295 -4.199135 0
M  V30 30 C -0.794579 -2.492808 -5.494287 0
M  V30 31 C -1.335533 -3.137307 -6.567716 0
M  V30 32 F -1.202656 -2.652884 -7.833712 0
M  V30 33 C -2.032785 -4.309891 -6.347528 0
M  V30 34 F -2.590910 -4.994277 -7.363457 0
M  V30 35 C -2.136535 -4.756162 -5.039669 0
M  V30 36 C -3.010490 -3.154628 -1.328615 0
M  V30 37 O -1.977431 -2.548086 -1.028055 0
M  V30 38 C 0.842398 1.875349 2.976991 0
M  V30 39 C 2.019214 2.498013 3.304408 0
M  V30 40 H 4.661259 -2.104061 2.639327 0
M  V30 41 H 5.019911 -0.376664 2.576815 0
M  V30 42 H 5.300734 -1.395505 4.111815 0
M  V30 43 H 3.001000 -1.704647 4.415344 0
M  V30 44 H 2.687453 -2.365536 2.175352 0
M  V30 45 H 1.320384 -1.443538 2.796440 0
M  V30 46 H 2.454027 -0.663732 1.583617 0
M  V30 47 H 2.501978 0.455072 5.182798 0
M  V30 48 H 5.253950 4.272190 4.199686 0
M  V30 49 H 1.317928 5.599971 2.246467 0
M  V30 50 H -0.838493 4.471374 1.642889 0
M  V30 51 H -4.333410 1.309501 0.910614 0
M  V30 52 H -4.190745 0.200961 2.295455 0
M  V30 53 H -2.361640 -0.738897 0.303867 0
M  V30 54 H -6.313084 -2.960301 -0.775579 0
M  V30 55 H -4.184312 -5.753770 -3.025106 0
M  V30 56 H -1.874740 -5.850388 -2.752123 0
M  V30 57 H -0.970694 -4.465467 -1.951250 0
M  V30 58 H -0.486928 -2.457713 -3.332141 0
M  V30 59 H -0.244814 -1.568452 -5.667002 0
M  V30 60 H -2.696698 -5.687260 -4.914055 0
M  V30 61 H 0.682328 0.843945 3.172395 0
M  V30 END ATOM
M  V30 BEGIN BOND
M  V30 1 1 1 2
M  V30 2 1 2 3
M  V30 3 1 2 4
M  V30 4 1 4 5
M  V30 5 2 5 6
M  V30 6 1 6 7
M  V30 7 2 7 8
M  V30 8 1 7 9
M  V30 9 1 6 10
M  V30 10 2 10 11
M  V30 11 1 11 12
M  V30 12 2 12 13
M  V30 13 1 13 14
M  V30 14 2 14 15
M  V30 15 1 15 16
M  V30 16 3 16 17
M  V30 17 1 17 18
M  V30 18 1 18 19
M  V30 19 1 19 20
M  V30 20 2 20 21
M  V30 21 1 20 22
M  V30 22 2 22 23
M  V30 23 1 23 24
M  V30 24 2 24 25
M  V30 25 1 25 26
M  V30 26 1 26 27
M  V30 27 1 27 28
M  V30 28 2 28 29
M  V30 29 1 29 30
M  V30 30 2 30 31
M  V30 31 1 31 32
M  V30 32 1 31 33
M  V30 33 1 33 34
M  V30 34 2 33 35
M  V30 35 1 26 36
M  V30 36 2 36 37
M  V30 37 1 15 38
M  V30 38 2 38 39
M  V30 39 1 39 5
M  V30 40 1 39 12
M  V30 41 1 36 22
M  V30 42 1 35 28
M  V30 43 1 1 40
M  V30 44 1 1 41
M  V30 45 1 1 42
M  V30 46 1 2 43
M  V30 47 1 3 44
M  V30 48 1 3 45
M  V30 49 1 3 46
M  V30 50 1 4 47
M  V30 51 1 10 48
M  V30 52 1 13 49
M  V30 53 1 14 50
M  V30 54 1 18 51
M  V30 55 1 18 52
M  V30 56 1 19 53
M  V30 57 1 23 54
M  V30 58 1 25 55
M  V30 59 1 27 56
M  V30 60 1 27 57
M  V30 61 1 29 58
M  V30 62 1 30 59
M  V30 63 1 35 60
M  V30 64 1 38 61
M  V30 END BOND
M  V30 END CTAB
M  END
>  <Dataset>  (817) 
ChEMBL_Kinases

>  <Ligand_Instance>  (817) 
nan

>  <PDB_ID>  (817) 
nan

>  <Standardized_SMILES>  (817) 
CC(C)Nc1c([N+](=O)[O-])cnc2ccc(C#CCNC(=O)c3cncn(Cc4ccc(F)c(F)c4)c3=O)cc12

>  <Name>  (817) 
nan

>  <Pocket>  (817) 
nan

>  <ATP_Site>  (817) 
nan

>  <Peripheral>  (817) 
nan

>  <Num_H_Atoms_ProtBoundConf>  (817) 
nan

>  <Num_Resolved_Atoms>  (817) 
nan

>  <Num_Not_Resolved_Atoms>  (817) 
nan

$$$$
CHEMBL3640436
     RDKit          3D

  0  0  0  0  0  0  0  0  0  0999 V3000
M  V30 BEGIN CTAB
M  V30 COUNTS 55 58 0 0 0
M  V30 BEGIN ATOM
M  V30 1 C 4.825540 -1.561613 -0.462029 0
M  V30 2 N 5.416556 -0.416235 0.200906 0
M  V30 3 C 5.517139 1.007370 0.025450 0
M  V30 4 C 6.523545 1.653350 -0.674905 0
M  V30 5 N 7.526352 0.847801 -1.260105 0 CHG=1 VAL=4
M  V30 6 O 7.226924 -0.303922 -1.664513 0
M  V30 7 O 8.867849 1.118615 -1.482395 0 CHG=-1 VAL=1
M  V30 8 C 6.491160 3.031058 -0.760750 0
M  V30 9 N 5.510190 3.711406 -0.179610 0
M  V30 10 C 4.499305 3.157902 0.516505 0
M  V30 11 C 3.504289 3.927663 1.100072 0
M  V30 12 C 2.483786 3.302249 1.808216 0
M  V30 13 C 2.504008 1.905937 1.903362 0
M  V30 14 C 1.449605 1.252412 2.635988 0
M  V30 15 C 0.559862 0.704874 3.242881 0
M  V30 16 C -0.538236 0.019182 3.969788 0
M  V30 17 N -1.304567 -0.811256 3.063076 0
M  V30 18 C -2.414785 -1.577078 3.501932 0
M  V30 19 O -2.558444 -1.377477 4.756977 0
M  V30 20 C -3.248926 -2.437010 2.690354 0
M  V30 21 C -4.267774 -3.056144 3.423714 0
M  V30 22 N -5.145274 -3.890256 2.848900 0
M  V30 23 C -5.096078 -4.178496 1.537572 0
M  V30 24 N -4.125689 -3.594836 0.814898 0
M  V30 25 C -4.006932 -3.851820 -0.589697 0
M  V30 26 C -4.780920 -2.913370 -1.442039 0
M  V30 27 C -6.088596 -3.213290 -1.769413 0
M  V30 28 C -6.881693 -2.406535 -2.552156 0
M  V30 29 C -6.355033 -1.226611 -3.046146 0
M  V30 30 F -7.022712 -0.330700 -3.833242 0
M  V30 31 C -5.035572 -0.880479 -2.741517 0
M  V30 32 F -4.488670 0.250665 -3.198852 0
M  V30 33 C -4.295718 -1.735612 -1.950743 0
M  V30 34 C -3.228743 -2.754874 1.351885 0
M  V30 35 O -2.301899 -2.179888 0.732422 0
M  V30 36 C 3.494941 1.149898 1.321383 0
M  V30 37 C 4.510586 1.776748 0.616255 0
M  V30 38 H 5.607647 -2.309929 -0.704768 0
M  V30 39 H 4.125543 -2.028435 0.275562 0
M  V30 40 H 4.325966 -1.312288 -1.415873 0
M  V30 41 H 5.920515 -0.695092 1.060758 0
M  V30 42 H 7.285077 3.503244 -1.310399 0
M  V30 43 H 3.530706 5.004864 0.999558 0
M  V30 44 H 1.691017 3.894402 2.274661 0
M  V30 45 H -1.168680 0.831866 4.371645 0
M  V30 46 H -0.150183 -0.553936 4.831328 0
M  V30 47 H -1.028612 -0.843882 2.060916 0
M  V30 48 H -4.482270 -2.958173 4.493541 0
M  V30 49 H -5.791041 -4.847118 1.050244 0
M  V30 50 H -2.942513 -3.801486 -0.936445 0
M  V30 51 H -4.386679 -4.863030 -0.832252 0
M  V30 52 H -6.593320 -4.117352 -1.430055 0
M  V30 53 H -7.898255 -2.593006 -2.834327 0
M  V30 54 H -3.286301 -1.455206 -1.727219 0
M  V30 55 H 3.461090 0.083998 1.425948 0
M  V30 END ATOM
M  V30 BEGIN BOND
M  V30 1 1 1 2
M  V30 2 1 2 3
M  V30 3 2 3 4
M  V30 4 1 4 5
M  V30 5 2 5 6
M  V30 6 1 5 7
M  V30 7 1 4 8
M  V30 8 2 8 9
M  V30 9 1 9 10
M  V30 10 2 10 11
M  V30 11 1 11 12
M  V30 12 2 12 13
M  V30 13 1 13 14
M  V30 14 3 14 15
M  V30 15 1 15 16
M  V30 16 1 16 17
M  V30 17 1 17 18
M  V30 18 2 18 19
M  V30 19 1 18 20
M  V30 20 2 20 21
M  V30 21 1 21 22
M  V30 22 2 22 23
M  V30 23 1 23 24
M  V30 24 1 24 25
M  V30 25 1 25 26
M  V30 26 2 26 27
M  V30 27 1 27 28
M  V30 28 2 28 29
M  V30 29 1 29 30
M  V30 30 1 29 31
M  V30 31 1 31 32
M  V30 32 2 31 33
M  V30 33 1 24 34
M  V30 34 2 34 35
M  V30 35 1 13 36
M  V30 36 2 36 37
M  V30 37 1 37 3
M  V30 38 1 37 10
M  V30 39 1 34 20
M  V30 40 1 33 26
M  V30 41 1 1 38
M  V30 42 1 1 39
M  V30 43 1 1 40
M  V30 44 1 2 41
M  V30 45 1 8 42
M  V30 46 1 11 43
M  V30 47 1 12 44
M  V30 48 1 16 45
M  V30 49 1 16 46
M  V30 50 1 17 47
M  V30 51 1 21 48
M  V30 52 1 23 49
M  V30 53 1 25 50
M  V30 54 1 25 51
M  V30 55 1 27 52
M  V30 56 1 28 53
M  V30 57 1 33 54
M  V30 58 1 36 55
M  V30 END BOND
M  V30 END CTAB
M  END
>  <Dataset>  (818) 
ChEMBL_Kinases

>  <Ligand_Instance>  (818) 
nan

>  <PDB_ID>  (818) 
nan

>  <Standardized_SMILES>  (818) 
CNc1c([N+](=O)[O-])cnc2ccc(C#CCNC(=O)c3cncn(Cc4ccc(F)c(F)c4)c3=O)cc12

>  <Name>  (818) 
nan

>  <Pocket>  (818) 
nan

>  <ATP_Site>  (818) 
nan

>  <Peripheral>  (818) 
nan

>  <Num_H_Atoms_ProtBoundConf>  (818) 
nan

>  <Num_Resolved_Atoms>  (818) 
nan

>  <Num_Not_Resolved_Atoms>  (818) 
nan

$$$$
CHEMBL3640435
     RDKit          3D

  0  0  0  0  0  0  0  0  0  0999 V3000
M  V30 BEGIN CTAB
M  V30 COUNTS 58 61 0 0 0
M  V30 BEGIN ATOM
M  V30 1 C 4.826977 -1.288077 1.526456 0
M  V30 2 C 4.647123 -0.224480 0.455275 0
M  V30 3 N 4.862193 1.082945 1.042875 0
M  V30 4 C 4.829941 2.407029 0.553221 0
M  V30 5 C 5.947532 3.043953 0.030876 0
M  V30 6 N 7.157647 2.331894 -0.008102 0 CHG=1 VAL=4
M  V30 7 O 8.046846 2.583729 -0.871982 0
M  V30 8 O 7.381822 1.323580 0.929230 0 CHG=-1 VAL=1
M  V30 9 C 5.798330 4.358498 -0.425900 0
M  V30 10 N 4.619251 5.001432 -0.369502 0
M  V30 11 C 3.494812 4.452011 0.121644 0
M  V30 12 C 2.262021 5.064087 0.202673 0
M  V30 13 C 1.165900 4.409330 0.725775 0
M  V30 14 C 1.299651 3.112701 1.179826 0
M  V30 15 C 0.184763 2.371173 1.740317 0
M  V30 16 C -0.741954 1.738768 2.192675 0
M  V30 17 C -1.858054 0.950702 2.729056 0
M  V30 18 N -1.982328 -0.320850 2.000173 0
M  V30 19 C -3.053196 -1.041600 2.537415 0
M  V30 20 O -3.580104 -0.366660 3.488337 0
M  V30 21 C -3.546839 -2.348812 2.135108 0
M  V30 22 C -4.645265 -2.816018 2.868413 0
M  V30 23 N -5.223100 -4.001045 2.627797 0
M  V30 24 C -4.770904 -4.811497 1.657024 0
M  V30 25 N -3.718621 -4.384997 0.940278 0
M  V30 26 C -3.209210 -5.231864 -0.111065 0
M  V30 27 C -3.875746 -4.955588 -1.425047 0
M  V30 28 C -3.427225 -4.041811 -2.361304 0
M  V30 29 C -4.148416 -3.883223 -3.548421 0
M  V30 30 C -5.279557 -4.608740 -3.798927 0
M  V30 31 F -5.926018 -4.391042 -4.987764 0
M  V30 32 C -5.761836 -5.530423 -2.893066 0
M  V30 33 F -6.875912 -6.250129 -3.131076 0
M  V30 34 C -5.021225 -5.655110 -1.737271 0
M  V30 35 C -3.117765 -3.204078 1.156440 0
M  V30 36 O -2.148868 -2.799488 0.504859 0
M  V30 37 C 2.548077 2.508147 1.092005 0
M  V30 38 C 3.671232 3.157591 0.564010 0
M  V30 39 H 4.438187 -2.227238 1.079213 0
M  V30 40 H 4.238817 -1.077758 2.446787 0
M  V30 41 H 5.882721 -1.397788 1.795485 0
M  V30 42 H 5.406239 -0.450464 -0.320386 0
M  V30 43 H 3.614230 -0.304029 0.096716 0
M  V30 44 H 5.102625 1.186014 2.058747 0
M  V30 45 H 6.673301 4.865169 -0.837625 0
M  V30 46 H 2.197971 6.080190 -0.163257 0
M  V30 47 H 0.199978 4.892845 0.787827 0
M  V30 48 H -1.711110 0.821631 3.800518 0
M  V30 49 H -2.815424 1.491032 2.469838 0
M  V30 50 H -1.449088 -0.745633 1.210353 0
M  V30 51 H -5.130049 -2.290590 3.679515 0
M  V30 52 H -5.204694 -5.762812 1.434831 0
M  V30 53 H -3.341042 -6.289500 0.182496 0
M  V30 54 H -2.119002 -5.022555 -0.246355 0
M  V30 55 H -2.532467 -3.491062 -2.125760 0
M  V30 56 H -3.741305 -3.144594 -4.248516 0
M  V30 57 H -5.400282 -6.387245 -1.012811 0
M  V30 58 H 2.603028 1.474496 1.467322 0
M  V30 END ATOM
M  V30 BEGIN BOND
M  V30 1 1 1 2
M  V30 2 1 2 3
M  V30 3 1 3 4
M  V30 4 2 4 5
M  V30 5 1 5 6
M  V30 6 2 6 7
M  V30 7 1 6 8
M  V30 8 1 5 9
M  V30 9 2 9 10
M  V30 10 1 10 11
M  V30 11 2 11 12
M  V30 12 1 12 13
M  V30 13 2 13 14
M  V30 14 1 14 15
M  V30 15 3 15 16
M  V30 16 1 16 17
M  V30 17 1 17 18
M  V30 18 1 18 19
M  V30 19 2 19 20
M  V30 20 1 19 21
M  V30 21 2 21 22
M  V30 22 1 22 23
M  V30 23 2 23 24
M  V30 24 1 24 25
M  V30 25 1 25 26
M  V30 26 1 26 27
M  V30 27 2 27 28
M  V30 28 1 28 29
M  V30 29 2 29 30
M  V30 30 1 30 31
M  V30 31 1 30 32
M  V30 32 1 32 33
M  V30 33 2 32 34
M  V30 34 1 25 35
M  V30 35 2 35 36
M  V30 36 1 14 37
M  V30 37 2 37 38
M  V30 38 1 38 4
M  V30 39 1 38 11
M  V30 40 1 35 21
M  V30 41 1 34 27
M  V30 42 1 1 39
M  V30 43 1 1 40
M  V30 44 1 1 41
M  V30 45 1 2 42
M  V30 46 1 2 43
M  V30 47 1 3 44
M  V30 48 1 9 45
M  V30 49 1 12 46
M  V30 50 1 13 47
M  V30 51 1 17 48
M  V30 52 1 17 49
M  V30 53 1 18 50
M  V30 54 1 22 51
M  V30 55 1 24 52
M  V30 56 1 26 53
M  V30 57 1 26 54
M  V30 58 1 28 55
M  V30 59 1 29 56
M  V30 60 1 34 57
M  V30 61 1 37 58
M  V30 END BOND
M  V30 END CTAB
M  END
>  <Dataset>  (819) 
ChEMBL_Kinases

>  <Ligand_Instance>  (819) 
nan

>  <PDB_ID>  (819) 
nan

>  <Standardized_SMILES>  (819) 
CCNc1c([N+](=O)[O-])cnc2ccc(C#CCNC(=O)c3cncn(Cc4ccc(F)c(F)c4)c3=O)cc12

>  <Name>  (819) 
nan

>  <Pocket>  (819) 
nan

>  <ATP_Site>  (819) 
nan

>  <Peripheral>  (819) 
nan

>  <Num_H_Atoms_ProtBoundConf>  (819) 
nan

>  <Num_Resolved_Atoms>  (819) 
nan

>  <Num_Not_Resolved_Atoms>  (819) 
nan

$$$$
CHEMBL3640069
     RDKit          3D

  0  0  0  0  0  0  0  0  0  0999 V3000
M  V30 BEGIN CTAB
M  V30 COUNTS 60 63 0 0 0
M  V30 BEGIN ATOM
M  V30 1 C 4.290879 0.209582 3.634878 0
M  V30 2 O 2.998822 -0.124725 3.264183 0
M  V30 3 C 2.583925 -0.933936 2.238139 0
M  V30 4 O 3.824488 -0.874875 2.263692 0
M  V30 5 C 1.449554 -1.485995 1.578019 0
M  V30 6 C 0.205012 -1.132484 1.992133 0
M  V30 7 C -0.299341 -0.158749 2.935914 0
M  V30 8 N -0.269537 1.240072 2.429275 0
M  V30 9 C 0.867241 2.103581 2.786408 0
M  V30 10 C -1.225122 1.943446 1.644885 0
M  V30 11 O -1.110643 3.171629 1.291196 0
M  V30 12 C -2.494024 1.803067 0.967558 0
M  V30 13 C -3.737791 2.319677 1.224308 0
M  V30 14 C -4.797623 1.990438 0.381949 0
M  V30 15 C -4.644770 1.158492 -0.707507 0
M  V30 16 S -5.971401 0.770665 -1.784094 0
M  V30 17 C -5.631219 1.484679 -3.398259 0
M  V30 18 O -6.206654 -0.702728 -1.899203 0
M  V30 19 O -7.255385 1.386181 -1.263674 0
M  V30 20 C -3.398254 0.608167 -1.010428 0
M  V30 21 C -2.369310 0.963299 -0.144548 0
M  V30 22 C -0.793524 -1.843881 1.303639 0
M  V30 23 O -2.025010 -1.653693 1.559870 0
M  V30 24 C -0.595855 -2.785720 0.322492 0
M  V30 25 C -1.609457 -3.440335 -0.305760 0
M  V30 26 C -1.404031 -4.378919 -1.281616 0
M  V30 27 C -0.091024 -4.634385 -1.606677 0
M  V30 28 Cl 0.273772 -5.829660 -2.851336 0
M  V30 29 C 0.950470 -3.984178 -0.983178 0
M  V30 30 C 0.741198 -3.037055 0.001966 0
M  V30 31 N 1.723302 -2.385047 0.633657 0
M  V30 32 C 3.016762 -2.758831 0.184378 0
M  V30 33 C 3.496468 -1.964917 -0.865941 0
M  V30 34 C 4.753297 -2.185144 -1.442387 0
M  V30 35 C 5.546465 -3.214575 -0.964333 0
M  V30 36 C 5.053974 -3.974793 0.062407 0
M  V30 37 C 3.811084 -3.775842 0.650353 0
M  V30 38 H 4.191026 0.920970 4.517438 0
M  V30 39 H 4.912316 -0.607253 4.038240 0
M  V30 40 H 4.842897 0.843887 2.878674 0
M  V30 41 H -1.348419 -0.357007 3.188090 0
M  V30 42 H 0.275403 -0.131701 3.898542 0
M  V30 43 H 1.200983 1.856532 3.831469 0
M  V30 44 H 0.530093 3.158023 2.854229 0
M  V30 45 H 1.710077 2.039140 2.114342 0
M  V30 46 H -3.763245 2.952577 2.089042 0
M  V30 47 H -5.763804 2.425702 0.621949 0
M  V30 48 H -6.339228 2.261586 -3.675090 0
M  V30 49 H -5.618404 0.633114 -4.133760 0
M  V30 50 H -4.602476 1.900225 -3.438014 0
M  V30 51 H -3.262214 -0.046352 -1.857062 0
M  V30 52 H -1.426963 0.494478 -0.449237 0
M  V30 53 H -2.627295 -3.213593 -0.033361 0
M  V30 54 H -2.255427 -4.860462 -1.736920 0
M  V30 55 H 1.966570 -4.210602 -1.263736 0
M  V30 56 H 2.966277 -1.147733 -1.312286 0
M  V30 57 H 5.160091 -1.606928 -2.239664 0
M  V30 58 H 6.524393 -3.392781 -1.400671 0
M  V30 59 H 5.637145 -4.809718 0.486443 0
M  V30 60 H 3.390141 -4.339575 1.443852 0
M  V30 END ATOM
M  V30 BEGIN BOND
M  V30 1 1 1 2
M  V30 2 1 2 3
M  V30 3 2 3 4
M  V30 4 1 3 5
M  V30 5 2 5 6
M  V30 6 1 6 7
M  V30 7 1 7 8
M  V30 8 1 8 9
M  V30 9 1 8 10
M  V30 10 2 10 11
M  V30 11 1 10 12
M  V30 12 2 12 13
M  V30 13 1 13 14
M  V30 14 2 14 15
M  V30 15 1 15 16
M  V30 16 1 16 17
M  V30 17 2 16 18
M  V30 18 2 16 19
M  V30 19 1 15 20
M  V30 20 2 20 21
M  V30 21 1 6 22
M  V30 22 2 22 23
M  V30 23 1 22 24
M  V30 24 2 24 25
M  V30 25 1 25 26
M  V30 26 2 26 27
M  V30 27 1 27 28
M  V30 28 1 27 29
M  V30 29 2 29 30
M  V30 30 1 30 31
M  V30 31 1 31 32
M  V30 32 2 32 33
M  V30 33 1 33 34
M  V30 34 2 34 35
M  V30 35 1 35 36
M  V30 36 2 36 37
M  V30 37 1 31 5
M  V30 38 1 37 32
M  V30 39 1 21 12
M  V30 40 1 30 24
M  V30 41 1 1 38
M  V30 42 1 1 39
M  V30 43 1 1 40
M  V30 44 1 7 41
M  V30 45 1 7 42
M  V30 46 1 9 43
M  V30 47 1 9 44
M  V30 48 1 9 45
M  V30 49 1 13 46
M  V30 50 1 14 47
M  V30 51 1 17 48
M  V30 52 1 17 49
M  V30 53 1 17 50
M  V30 54 1 20 51
M  V30 55 1 21 52
M  V30 56 1 25 53
M  V30 57 1 26 54
M  V30 58 1 29 55
M  V30 59 1 33 56
M  V30 60 1 34 57
M  V30 61 1 35 58
M  V30 62 1 36 59
M  V30 63 1 37 60
M  V30 END BOND
M  V30 END CTAB
M  END
>  <Dataset>  (820) 
ChEMBL_Kinases

>  <Ligand_Instance>  (820) 
nan

>  <PDB_ID>  (820) 
nan

>  <Standardized_SMILES>  (820) 
COC(=O)c1c(CN(C)C(=O)c2ccc(S(C)(=O)=O)cc2)c(=O)c2ccc(Cl)cc2n1-c1ccccc1

>  <Name>  (820) 
nan

>  <Pocket>  (820) 
nan

>  <ATP_Site>  (820) 
nan

>  <Peripheral>  (820) 
nan

>  <Num_H_Atoms_ProtBoundConf>  (820) 
nan

>  <Num_Resolved_Atoms>  (820) 
nan

>  <Num_Not_Resolved_Atoms>  (820) 
nan

$$$$
CHEMBL3640068
     RDKit          3D

  0  0  0  0  0  0  0  0  0  0999 V3000
M  V30 BEGIN CTAB
M  V30 COUNTS 52 55 0 0 0
M  V30 BEGIN ATOM
M  V30 1 C 2.974632 -0.995764 -0.913370 0
M  V30 2 O 1.930609 -1.021762 0.033483 0
M  V30 3 C 0.810592 -1.827975 -0.117810 0
M  V30 4 O 1.090945 -2.371708 -1.198517 0
M  V30 5 C -0.348039 -1.979724 0.749238 0
M  V30 6 C -0.541295 -1.320657 1.921453 0
M  V30 7 C 0.494823 -0.361220 2.385167 0
M  V30 8 N 0.422711 0.891911 1.624763 0
M  V30 9 C 1.354253 1.919458 1.951795 0
M  V30 10 O 2.096163 1.502222 2.893023 0
M  V30 11 O 1.223130 3.065514 1.194782 0
M  V30 12 C 2.023616 4.191671 1.342028 0
M  V30 13 C 3.207835 4.482450 0.696559 0
M  V30 14 C 3.819123 5.673623 1.017007 0
M  V30 15 C 3.335584 6.580659 1.924564 0
M  V30 16 C 2.137181 6.275308 2.570834 0
M  V30 17 C 1.509099 5.081055 2.260199 0
M  V30 18 C -1.684339 -1.554113 2.649279 0
M  V30 19 O -1.834579 -0.930079 3.728222 0
M  V30 20 C -2.587327 -2.461466 2.138664 0
M  V30 21 C -3.721056 -2.665294 2.901981 0
M  V30 22 C -4.680377 -3.565793 2.454300 0
M  V30 23 C -4.472013 -4.230792 1.258908 0
M  V30 24 Cl -5.712507 -5.355617 0.739099 0
M  V30 25 C -3.327507 -4.002361 0.522532 0
M  V30 26 C -2.377074 -3.122813 0.947085 0
M  V30 27 N -1.237742 -2.878039 0.239637 0
M  V30 28 C -1.075568 -3.590594 -0.983015 0
M  V30 29 C -0.535131 -4.880163 -0.987692 0
M  V30 30 C -0.379543 -5.566373 -2.173312 0
M  V30 31 C -0.743311 -5.024488 -3.396537 0
M  V30 32 C -1.284300 -3.738112 -3.409005 0
M  V30 33 C -1.429302 -3.073956 -2.211511 0
M  V30 34 H 3.817551 -0.428172 -0.484587 0
M  V30 35 H 3.364381 -2.020193 -1.140610 0
M  V30 36 H 2.673849 -0.511748 -1.869694 0
M  V30 37 H 1.493751 -0.829044 2.317139 0
M  V30 38 H 0.251035 -0.077189 3.449160 0
M  V30 39 H -0.319573 0.958794 0.875762 0
M  V30 40 H 3.535543 3.744674 0.004227 0
M  V30 41 H 4.742319 5.879771 0.501021 0
M  V30 42 H 3.852855 7.505563 2.143501 0
M  V30 43 H 1.777015 7.005374 3.281259 0
M  V30 44 H 0.586147 4.950177 2.823376 0
M  V30 45 H -3.879516 -2.137019 3.844882 0
M  V30 46 H -5.571488 -3.705665 3.084554 0
M  V30 47 H -3.171826 -4.528755 -0.414831 0
M  V30 48 H -0.229970 -5.358660 -0.049128 0
M  V30 49 H 0.037925 -6.572009 -2.214207 0
M  V30 50 H -0.613059 -5.579098 -4.313988 0
M  V30 51 H -1.584243 -3.272677 -4.348176 0
M  V30 52 H -1.857645 -2.065673 -2.259805 0
M  V30 END ATOM
M  V30 BEGIN BOND
M  V30 1 1 1 2
M  V30 2 1 2 3
M  V30 3 2 3 4
M  V30 4 1 3 5
M  V30 5 2 5 6
M  V30 6 1 6 7
M  V30 7 1 7 8
M  V30 8 1 8 9
M  V30 9 2 9 10
M  V30 10 1 9 11
M  V30 11 1 11 12
M  V30 12 2 12 13
M  V30 13 1 13 14
M  V30 14 2 14 15
M  V30 15 1 15 16
M  V30 16 2 16 17
M  V30 17 1 6 18
M  V30 18 2 18 19
M  V30 19 1 18 20
M  V30 20 2 20 21
M  V30 21 1 21 22
M  V30 22 2 22 23
M  V30 23 1 23 24
M  V30 24 1 23 25
M  V30 25 2 25 26
M  V30 26 1 26 27
M  V30 27 1 27 28
M  V30 28 2 28 29
M  V30 29 1 29 30
M  V30 30 2 30 31
M  V30 31 1 31 32
M  V30 32 2 32 33
M  V30 33 1 27 5
M  V30 34 1 33 28
M  V30 35 1 17 12
M  V30 36 1 26 20
M  V30 37 1 1 34
M  V30 38 1 1 35
M  V30 39 1 1 36
M  V30 40 1 7 37
M  V30 41 1 7 38
M  V30 42 1 8 39
M  V30 43 1 13 40
M  V30 44 1 14 41
M  V30 45 1 15 42
M  V30 46 1 16 43
M  V30 47 1 17 44
M  V30 48 1 21 45
M  V30 49 1 22 46
M  V30 50 1 25 47
M  V30 51 1 29 48
M  V30 52 1 30 49
M  V30 53 1 31 50
M  V30 54 1 32 51
M  V30 55 1 33 52
M  V30 END BOND
M  V30 END CTAB
M  END
>  <Dataset>  (821) 
ChEMBL_Kinases

>  <Ligand_Instance>  (821) 
nan

>  <PDB_ID>  (821) 
nan

>  <Standardized_SMILES>  (821) 
COC(=O)c1c(CNC(=O)Oc2ccccc2)c(=O)c2ccc(Cl)cc2n1-c1ccccc1

>  <Name>  (821) 
nan

>  <Pocket>  (821) 
nan

>  <ATP_Site>  (821) 
nan

>  <Peripheral>  (821) 
nan

>  <Num_H_Atoms_ProtBoundConf>  (821) 
nan

>  <Num_Resolved_Atoms>  (821) 
nan

>  <Num_Not_Resolved_Atoms>  (821) 
nan

$$$$
CHEMBL3640067
     RDKit          3D

  0  0  0  0  0  0  0  0  0  0999 V3000
M  V30 BEGIN CTAB
M  V30 COUNTS 54 57 0 0 0
M  V30 BEGIN ATOM
M  V30 1 C 3.164957 -2.773477 1.560597 0
M  V30 2 O 1.941001 -2.143684 1.880934 0
M  V30 3 C 0.814788 -2.384016 1.121199 0
M  V30 4 O 1.415639 -3.154615 0.368210 0
M  V30 5 C -0.571485 -1.991681 1.075416 0
M  V30 6 C -1.021429 -1.102189 2.011798 0
M  V30 7 C -0.259201 -0.346805 3.029843 0
M  V30 8 N 0.244535 0.869472 2.460353 0
M  V30 9 C 1.053024 1.399393 1.448871 0
M  V30 10 O 1.625329 0.627387 0.651571 0
M  V30 11 N 1.391193 2.723728 1.103717 0
M  V30 12 C 2.270127 2.905501 -0.027734 0
M  V30 13 C 3.395975 3.808570 0.418599 0
M  V30 14 O 3.100696 4.623543 1.475308 0
M  V30 15 C 1.785176 5.007582 1.602165 0
M  V30 16 C 0.862460 3.835657 1.870436 0
M  V30 17 C -2.380412 -0.808883 1.974340 0
M  V30 18 O -2.978875 -0.014837 2.756943 0
M  V30 19 C -3.206152 -1.389454 1.039502 0
M  V30 20 C -4.557914 -1.159175 0.927452 0
M  V30 21 C -5.354592 -1.756665 -0.019976 0
M  V30 22 C -4.790071 -2.639498 -0.919007 0
M  V30 23 Cl -5.807382 -3.402881 -2.130494 0
M  V30 24 C -3.443994 -2.874105 -0.813818 0
M  V30 25 C -2.632487 -2.277181 0.137297 0
M  V30 26 N -1.312859 -2.593477 0.137693 0
M  V30 27 C -0.746031 -3.502878 -0.792660 0
M  V30 28 C -0.318412 -2.922686 -1.982297 0
M  V30 29 C 0.244592 -3.710049 -2.950067 0
M  V30 30 C 0.398774 -5.082648 -2.768788 0
M  V30 31 C -0.028164 -5.659903 -1.581982 0
M  V30 32 C -0.598036 -4.860795 -0.603275 0
M  V30 33 H 3.822965 -2.579318 2.456195 0
M  V30 34 H 3.071288 -3.878110 1.515147 0
M  V30 35 H 3.646790 -2.317857 0.678395 0
M  V30 36 H 0.628913 -0.955738 3.385519 0
M  V30 37 H -0.886728 -0.074464 3.897520 0
M  V30 38 H -0.088594 1.764668 2.953096 0
M  V30 39 H 1.722085 3.324022 -0.899741 0
M  V30 40 H 2.675415 1.934849 -0.353425 0
M  V30 41 H 4.233825 3.149906 0.733520 0
M  V30 42 H 3.753239 4.347167 -0.482646 0
M  V30 43 H 1.739202 5.652024 2.515571 0
M  V30 44 H 1.420762 5.639934 0.772286 0
M  V30 45 H 0.783095 3.619556 2.954737 0
M  V30 46 H -0.137546 4.075784 1.457938 0
M  V30 47 H -4.996722 -0.458431 1.643286 0
M  V30 48 H -6.395477 -1.513054 -0.025897 0
M  V30 49 H -3.000155 -3.562643 -1.514387 0
M  V30 50 H -0.382566 -1.890919 -2.235327 0
M  V30 51 H 0.606037 -3.366608 -3.899181 0
M  V30 52 H 0.847847 -5.726384 -3.533487 0
M  V30 53 H 0.078588 -6.714450 -1.417148 0
M  V30 54 H -0.952074 -5.242636 0.344583 0
M  V30 END ATOM
M  V30 BEGIN BOND
M  V30 1 1 1 2
M  V30 2 1 2 3
M  V30 3 2 3 4
M  V30 4 1 3 5
M  V30 5 2 5 6
M  V30 6 1 6 7
M  V30 7 1 7 8
M  V30 8 1 8 9
M  V30 9 2 9 10
M  V30 10 1 9 11
M  V30 11 1 11 12
M  V30 12 1 12 13
M  V30 13 1 13 14
M  V30 14 1 14 15
M  V30 15 1 15 16
M  V30 16 1 6 17
M  V30 17 2 17 18
M  V30 18 1 17 19
M  V30 19 2 19 20
M  V30 20 1 20 21
M  V30 21 2 21 22
M  V30 22 1 22 23
M  V30 23 1 22 24
M  V30 24 2 24 25
M  V30 25 1 25 26
M  V30 26 1 26 27
M  V30 27 2 27 28
M  V30 28 1 28 29
M  V30 29 2 29 30
M  V30 30 1 30 31
M  V30 31 2 31 32
M  V30 32 1 26 5
M  V30 33 1 32 27
M  V30 34 1 16 11
M  V30 35 1 25 19
M  V30 36 1 1 33
M  V30 37 1 1 34
M  V30 38 1 1 35
M  V30 39 1 7 36
M  V30 40 1 7 37
M  V30 41 1 8 38
M  V30 42 1 12 39
M  V30 43 1 12 40
M  V30 44 1 13 41
M  V30 45 1 13 42
M  V30 46 1 15 43
M  V30 47 1 15 44
M  V30 48 1 16 45
M  V30 49 1 16 46
M  V30 50 1 20 47
M  V30 51 1 21 48
M  V30 52 1 24 49
M  V30 53 1 28 50
M  V30 54 1 29 51
M  V30 55 1 30 52
M  V30 56 1 31 53
M  V30 57 1 32 54
M  V30 END BOND
M  V30 END CTAB
M  END
>  <Dataset>  (822) 
ChEMBL_Kinases

>  <Ligand_Instance>  (822) 
nan

>  <PDB_ID>  (822) 
nan

>  <Standardized_SMILES>  (822) 
COC(=O)c1c(CNC(=O)N2CCOCC2)c(=O)c2ccc(Cl)cc2n1-c1ccccc1

>  <Name>  (822) 
nan

>  <Pocket>  (822) 
nan

>  <ATP_Site>  (822) 
nan

>  <Peripheral>  (822) 
nan

>  <Num_H_Atoms_ProtBoundConf>  (822) 
nan

>  <Num_Resolved_Atoms>  (822) 
nan

>  <Num_Not_Resolved_Atoms>  (822) 
nan

$$$$
CHEMBL3640066
     RDKit          3D

  0  0  0  0  0  0  0  0  0  0999 V3000
M  V30 BEGIN CTAB
M  V30 COUNTS 53 57 0 0 0
M  V30 BEGIN ATOM
M  V30 1 C 3.739000 -1.847504 0.078604 0
M  V30 2 O 2.563802 -1.647158 0.815066 0
M  V30 3 C 1.309130 -2.013228 0.391166 0
M  V30 4 O 1.613973 -2.506202 -0.720793 0
M  V30 5 C -0.019491 -1.917680 0.955667 0
M  V30 6 C -0.178875 -1.339022 2.164443 0
M  V30 7 C 0.818085 -0.635801 3.001272 0
M  V30 8 N 0.913820 0.740259 2.634650 0
M  V30 9 C 1.161189 1.630181 1.564385 0
M  V30 10 N 1.418845 1.188445 0.328467 0
M  V30 11 C 1.659485 1.866451 -0.764784 0
M  V30 12 N 1.654064 3.183059 -0.667088 0
M  V30 13 C 1.408448 3.743576 0.518882 0
M  V30 14 C 1.387504 5.118512 0.693340 0
M  V30 15 C 1.142217 5.790332 1.884340 0
M  V30 16 C 0.895994 4.978139 2.996887 0
M  V30 17 C 0.912099 3.609321 2.845493 0
M  V30 18 C 1.160436 3.004622 1.644161 0
M  V30 19 C -1.491327 -1.371105 2.636767 0
M  V30 20 O -1.780459 -0.867880 3.753674 0
M  V30 21 C -2.552441 -1.935429 1.949878 0
M  V30 22 C -3.829493 -1.935825 2.468417 0
M  V30 23 C -4.835839 -2.520211 1.717403 0
M  V30 24 C -4.546376 -3.081654 0.485095 0
M  V30 25 Cl -5.868470 -3.806269 -0.417170 0
M  V30 26 C -3.257325 -3.070529 -0.017016 0
M  V30 27 C -2.243728 -2.491572 0.720322 0
M  V30 28 N -0.990530 -2.482916 0.228156 0
M  V30 29 C -0.752335 -3.073731 -1.041077 0
M  V30 30 C -0.391692 -4.400169 -0.951477 0
M  V30 31 C -0.120575 -5.140950 -2.106339 0
M  V30 32 C -0.214447 -4.535816 -3.366241 0
M  V30 33 C -0.582748 -3.186269 -3.435382 0
M  V30 34 C -0.845616 -2.474952 -2.282701 0
M  V30 35 H 3.999099 -2.916656 0.098163 0
M  V30 36 H 3.507790 -1.532406 -0.977335 0
M  V30 37 H 4.590765 -1.256491 0.475771 0
M  V30 38 H 1.816190 -1.156362 2.946714 0
M  V30 39 H 0.490666 -0.714597 4.068063 0
M  V30 40 H 0.730107 1.287220 3.500712 0
M  V30 41 H 1.847447 1.297583 -1.681388 0
M  V30 42 H 1.584177 5.700414 -0.204103 0
M  V30 43 H 1.151735 6.868938 1.900116 0
M  V30 44 H 0.708659 5.545803 3.907454 0
M  V30 45 H 0.708467 3.118265 3.779867 0
M  V30 46 H -3.990107 -1.484875 3.428088 0
M  V30 47 H -5.830439 -2.498932 2.163770 0
M  V30 48 H -3.045680 -3.516518 -0.987391 0
M  V30 49 H -0.281098 -4.991026 -0.049052 0
M  V30 50 H 0.167005 -6.188864 -2.081517 0
M  V30 51 H -0.014292 -5.067459 -4.289967 0
M  V30 52 H -0.677731 -2.645915 -4.373140 0
M  V30 53 H -1.133019 -1.433132 -2.263686 0
M  V30 END ATOM
M  V30 BEGIN BOND
M  V30 1 1 1 2
M  V30 2 1 2 3
M  V30 3 2 3 4
M  V30 4 1 3 5
M  V30 5 2 5 6
M  V30 6 1 6 7
M  V30 7 1 7 8
M  V30 8 1 8 9
M  V30 9 2 9 10
M  V30 10 1 10 11
M  V30 11 2 11 12
M  V30 12 1 12 13
M  V30 13 2 13 14
M  V30 14 1 14 15
M  V30 15 2 15 16
M  V30 16 1 16 17
M  V30 17 2 17 18
M  V30 18 1 6 19
M  V30 19 2 19 20
M  V30 20 1 19 21
M  V30 21 2 21 22
M  V30 22 1 22 23
M  V30 23 2 23 24
M  V30 24 1 24 25
M  V30 25 1 24 26
M  V30 26 2 26 27
M  V30 27 1 27 28
M  V30 28 1 28 29
M  V30 29 2 29 30
M  V30 30 1 30 31
M  V30 31 2 31 32
M  V30 32 1 32 33
M  V30 33 2 33 34
M  V30 34 1 28 5
M  V30 35 1 34 29
M  V30 36 1 18 9
M  V30 37 1 27 21
M  V30 38 1 18 13
M  V30 39 1 1 35
M  V30 40 1 1 36
M  V30 41 1 1 37
M  V30 42 1 7 38
M  V30 43 1 7 39
M  V30 44 1 8 40
M  V30 45 1 11 41
M  V30 46 1 14 42
M  V30 47 1 15 43
M  V30 48 1 16 44
M  V30 49 1 17 45
M  V30 50 1 22 46
M  V30 51 1 23 47
M  V30 52 1 26 48
M  V30 53 1 30 49
M  V30 54 1 31 50
M  V30 55 1 32 51
M  V30 56 1 33 52
M  V30 57 1 34 53
M  V30 END BOND
M  V30 END CTAB
M  END
>  <Dataset>  (823) 
ChEMBL_Kinases

>  <Ligand_Instance>  (823) 
nan

>  <PDB_ID>  (823) 
nan

>  <Standardized_SMILES>  (823) 
COC(=O)c1c(CNc2ncnc3ccccc23)c(=O)c2ccc(Cl)cc2n1-c1ccccc1

>  <Name>  (823) 
nan

>  <Pocket>  (823) 
nan

>  <ATP_Site>  (823) 
nan

>  <Peripheral>  (823) 
nan

>  <Num_H_Atoms_ProtBoundConf>  (823) 
nan

>  <Num_Resolved_Atoms>  (823) 
nan

>  <Num_Not_Resolved_Atoms>  (823) 
nan

$$$$
CHEMBL3640065
     RDKit          3D

  0  0  0  0  0  0  0  0  0  0999 V3000
M  V30 BEGIN CTAB
M  V30 COUNTS 54 58 0 0 0
M  V30 BEGIN ATOM
M  V30 1 C 3.081786 -1.195100 0.593265 0
M  V30 2 O 1.710878 -1.317048 0.780627 0
M  V30 3 C 0.797132 -1.937895 -0.053392 0
M  V30 4 O 1.885514 -2.087055 -0.637305 0
M  V30 5 C -0.615360 -1.984535 0.276147 0
M  V30 6 C -1.057682 -1.410648 1.443467 0
M  V30 7 C -0.186742 -0.741255 2.439622 0
M  V30 8 N 0.242913 0.575616 1.988392 0
M  V30 9 C 1.105262 1.370306 2.830028 0
M  V30 10 N 1.479683 0.849176 4.008716 0
M  V30 11 C 2.267927 1.436129 4.907477 0
M  V30 12 C 2.702925 2.685078 4.533899 0
M  V30 13 C 2.384725 3.318004 3.353625 0
M  V30 14 C 2.837740 4.571623 3.010151 0
M  V30 15 C 2.433707 5.076723 1.793202 0
M  V30 16 C 1.604044 4.431099 0.873184 0
M  V30 17 C 1.175908 3.170208 1.269227 0
M  V30 18 C 1.552353 2.623729 2.474424 0
M  V30 19 C -2.418977 -1.528627 1.603973 0
M  V30 20 O -2.949308 -1.041909 2.636437 0
M  V30 21 C -3.199000 -2.160068 0.669109 0
M  V30 22 C -4.552104 -2.230234 0.912724 0
M  V30 23 C -5.324534 -2.876981 -0.052785 0
M  V30 24 C -4.836814 -3.439559 -1.211149 0
M  V30 25 Cl -5.915670 -4.224477 -2.344247 0
M  V30 26 C -3.479367 -3.346497 -1.414689 0
M  V30 27 C -2.687236 -2.714909 -0.482158 0
M  V30 28 N -1.359237 -2.605007 -0.648197 0
M  V30 29 C -0.834083 -3.178732 -1.839518 0
M  V30 30 C -0.550840 -2.314498 -2.878635 0
M  V30 31 C -0.036493 -2.754201 -4.090854 0
M  V30 32 C 0.187333 -4.104773 -4.229269 0
M  V30 33 C -0.098689 -4.964310 -3.184411 0
M  V30 34 C -0.613727 -4.527810 -1.969160 0
M  V30 35 H 3.483583 -0.636608 1.493326 0
M  V30 36 H 3.658659 -2.133594 0.575074 0
M  V30 37 H 3.375901 -0.611366 -0.308633 0
M  V30 38 H -0.847065 -0.513358 3.331266 0
M  V30 39 H 0.634388 -1.368092 2.823088 0
M  V30 40 H -0.120190 0.852242 1.055788 0
M  V30 41 H 2.537971 0.968050 5.844421 0
M  V30 42 H 3.355522 3.253455 5.199966 0
M  V30 43 H 3.478672 5.110370 3.683498 0
M  V30 44 H 2.832896 6.079503 1.586801 0
M  V30 45 H 1.365376 4.942348 -0.044651 0
M  V30 46 H 0.534697 2.660494 0.568621 0
M  V30 47 H -5.007380 -1.813140 1.797189 0
M  V30 48 H -6.397166 -2.923863 0.156202 0
M  V30 49 H -3.057840 -3.778346 -2.317262 0
M  V30 50 H -0.717950 -1.244125 -2.796955 0
M  V30 51 H 0.183957 -2.077358 -4.901275 0
M  V30 52 H 0.586962 -4.488206 -5.157662 0
M  V30 53 H 0.104170 -6.015943 -3.367691 0
M  V30 54 H -0.828172 -5.207475 -1.174337 0
M  V30 END ATOM
M  V30 BEGIN BOND
M  V30 1 1 1 2
M  V30 2 1 2 3
M  V30 3 2 3 4
M  V30 4 1 3 5
M  V30 5 2 5 6
M  V30 6 1 6 7
M  V30 7 1 7 8
M  V30 8 1 8 9
M  V30 9 2 9 10
M  V30 10 1 10 11
M  V30 11 2 11 12
M  V30 12 1 12 13
M  V30 13 2 13 14
M  V30 14 1 14 15
M  V30 15 2 15 16
M  V30 16 1 16 17
M  V30 17 2 17 18
M  V30 18 1 6 19
M  V30 19 2 19 20
M  V30 20 1 19 21
M  V30 21 2 21 22
M  V30 22 1 22 23
M  V30 23 2 23 24
M  V30 24 1 24 25
M  V30 25 1 24 26
M  V30 26 2 26 27
M  V30 27 1 27 28
M  V30 28 1 28 29
M  V30 29 2 29 30
M  V30 30 1 30 31
M  V30 31 2 31 32
M  V30 32 1 32 33
M  V30 33 2 33 34
M  V30 34 1 28 5
M  V30 35 1 34 29
M  V30 36 1 18 9
M  V30 37 1 27 21
M  V30 38 1 18 13
M  V30 39 1 1 35
M  V30 40 1 1 36
M  V30 41 1 1 37
M  V30 42 1 7 38
M  V30 43 1 7 39
M  V30 44 1 8 40
M  V30 45 1 11 41
M  V30 46 1 12 42
M  V30 47 1 14 43
M  V30 48 1 15 44
M  V30 49 1 16 45
M  V30 50 1 17 46
M  V30 51 1 22 47
M  V30 52 1 23 48
M  V30 53 1 26 49
M  V30 54 1 30 50
M  V30 55 1 31 51
M  V30 56 1 32 52
M  V30 57 1 33 53
M  V30 58 1 34 54
M  V30 END BOND
M  V30 END CTAB
M  END
>  <Dataset>  (824) 
ChEMBL_Kinases

>  <Ligand_Instance>  (824) 
nan

>  <PDB_ID>  (824) 
nan

>  <Standardized_SMILES>  (824) 
COC(=O)c1c(CNc2nccc3ccccc23)c(=O)c2ccc(Cl)cc2n1-c1ccccc1

>  <Name>  (824) 
nan

>  <Pocket>  (824) 
nan

>  <ATP_Site>  (824) 
nan

>  <Peripheral>  (824) 
nan

>  <Num_H_Atoms_ProtBoundConf>  (824) 
nan

>  <Num_Resolved_Atoms>  (824) 
nan

>  <Num_Not_Resolved_Atoms>  (824) 
nan

$$$$
CHEMBL3640064
     RDKit          3D

  0  0  0  0  0  0  0  0  0  0999 V3000
M  V30 BEGIN CTAB
M  V30 COUNTS 53 56 0 0 0
M  V30 BEGIN ATOM
M  V30 1 C 5.697932 -4.117645 6.753229 0
M  V30 2 O 5.316044 -2.948726 6.060610 0
M  V30 3 C 4.041273 -2.700332 5.617011 0
M  V30 4 O 3.429286 -3.734474 5.994019 0
M  V30 5 C 3.478617 -1.564946 4.896369 0
M  V30 6 C 4.234348 -0.473684 4.524416 0
M  V30 7 C 3.596616 0.542790 3.845343 0
M  V30 8 C 2.252101 0.455312 3.556797 0
M  V30 9 N 1.465435 1.434762 2.858462 0
M  V30 10 C 1.424817 1.251461 1.468738 0
M  V30 11 O 2.076535 0.273187 1.065895 0
M  V30 12 N 0.753190 2.024559 0.523121 0
M  V30 13 C 0.533955 2.071923 -0.904827 0
M  V30 14 C -0.164731 0.908142 -1.472275 0
M  V30 15 C -1.548886 1.055878 -1.643801 0
M  V30 16 N -2.378811 0.118380 -2.116089 0
M  V30 17 C -3.770634 0.304481 -2.273845 0
M  V30 18 C -4.493188 0.702729 -3.373691 0
M  V30 19 C -5.865713 0.821425 -3.325461 0
M  V30 20 C -6.522624 0.527036 -2.124669 0
M  V30 21 C -5.825919 0.121676 -0.992302 0
M  V30 22 C -4.434206 0.012604 -1.079582 0
M  V30 23 C -1.923061 -1.091824 -2.477677 0
M  V30 24 C -2.687766 -2.123157 -2.971083 0
M  V30 25 C -2.137159 -3.325866 -3.313389 0
M  V30 26 Cl -3.184708 -4.590278 -3.936121 0
M  V30 27 C -0.791292 -3.544081 -3.174307 0
M  V30 28 C -0.003295 -2.526378 -2.681851 0
M  V30 29 C -0.562968 -1.315372 -2.337768 0
M  V30 30 C 0.251336 -0.343444 -1.856209 0
M  V30 31 O 1.479268 -0.555069 -1.737765 0
M  V30 32 C 1.498234 -0.662426 3.942819 0
M  V30 33 C 2.127325 -1.687944 4.624479 0
M  V30 34 H 6.737596 -4.352147 6.454219 0
M  V30 35 H 5.707334 -3.981872 7.861690 0
M  V30 36 H 5.098480 -5.008440 6.485059 0
M  V30 37 H 5.277343 -0.419374 4.755145 0
M  V30 38 H 4.098139 1.436192 3.512006 0
M  V30 39 H 0.926059 2.257167 3.254937 0
M  V30 40 H 0.260930 2.810310 1.037071 0
M  V30 41 H -0.014837 2.984993 -1.180027 0
M  V30 42 H 1.526167 2.180822 -1.445014 0
M  V30 43 H -2.060680 1.978069 -1.395301 0
M  V30 44 H -3.871279 0.899944 -4.236245 0
M  V30 45 H -6.382765 1.138024 -4.219266 0
M  V30 46 H -7.605102 0.621802 -2.091369 0
M  V30 47 H -6.374433 -0.096776 -0.080237 0
M  V30 48 H -3.986787 -0.312900 -0.134447 0
M  V30 49 H -3.760244 -1.918706 -3.070976 0
M  V30 50 H -0.379066 -4.516017 -3.456310 0
M  V30 51 H 1.066196 -2.710289 -2.574849 0
M  V30 52 H 0.429176 -0.770634 3.731940 0
M  V30 53 H 1.532489 -2.554851 4.920982 0
M  V30 END ATOM
M  V30 BEGIN BOND
M  V30 1 1 1 2
M  V30 2 1 2 3
M  V30 3 2 3 4
M  V30 4 1 3 5
M  V30 5 2 5 6
M  V30 6 1 6 7
M  V30 7 2 7 8
M  V30 8 1 8 9
M  V30 9 1 9 10
M  V30 10 2 10 11
M  V30 11 1 10 12
M  V30 12 1 12 13
M  V30 13 1 13 14
M  V30 14 2 14 15
M  V30 15 1 15 16
M  V30 16 1 16 17
M  V30 17 2 17 18
M  V30 18 1 18 19
M  V30 19 2 19 20
M  V30 20 1 20 21
M  V30 21 2 21 22
M  V30 22 1 16 23
M  V30 23 2 23 24
M  V30 24 1 24 25
M  V30 25 1 25 26
M  V30 26 2 25 27
M  V30 27 1 27 28
M  V30 28 2 28 29
M  V30 29 1 29 30
M  V30 30 2 30 31
M  V30 31 1 8 32
M  V30 32 2 32 33
M  V30 33 1 33 5
M  V30 34 1 30 14
M  V30 35 1 22 17
M  V30 36 1 29 23
M  V30 37 1 1 34
M  V30 38 1 1 35
M  V30 39 1 1 36
M  V30 40 1 6 37
M  V30 41 1 7 38
M  V30 42 1 9 39
M  V30 43 1 12 40
M  V30 44 1 13 41
M  V30 45 1 13 42
M  V30 46 1 15 43
M  V30 47 1 18 44
M  V30 48 1 19 45
M  V30 49 1 20 46
M  V30 50 1 21 47
M  V30 51 1 22 48
M  V30 52 1 24 49
M  V30 53 1 27 50
M  V30 54 1 28 51
M  V30 55 1 32 52
M  V30 56 1 33 53
M  V30 END BOND
M  V30 END CTAB
M  END
>  <Dataset>  (825) 
ChEMBL_Kinases

>  <Ligand_Instance>  (825) 
nan

>  <PDB_ID>  (825) 
nan

>  <Standardized_SMILES>  (825) 
COC(=O)c1ccc(NC(=O)NCc2cn(-c3ccccc3)c3cc(Cl)ccc3c2=O)cc1

>  <Name>  (825) 
nan

>  <Pocket>  (825) 
nan

>  <ATP_Site>  (825) 
nan

>  <Peripheral>  (825) 
nan

>  <Num_H_Atoms_ProtBoundConf>  (825) 
nan

>  <Num_Resolved_Atoms>  (825) 
nan

>  <Num_Not_Resolved_Atoms>  (825) 
nan

$$$$
CHEMBL3640063
     RDKit          3D

  0  0  0  0  0  0  0  0  0  0999 V3000
M  V30 BEGIN CTAB
M  V30 COUNTS 51 54 0 0 0
M  V30 BEGIN ATOM
M  V30 1 O 0.737173 -2.460769 1.173841 0
M  V30 2 C 0.300468 -3.127841 2.134681 0
M  V30 3 N 0.522945 -2.821084 3.496319 0
M  V30 4 C 1.309383 -1.656647 3.883379 0
M  V30 5 C 0.685632 -0.411190 3.361671 0
M  V30 6 C 1.193416 0.271647 2.263544 0
M  V30 7 N 0.687344 1.396112 1.738409 0
M  V30 8 C 1.316558 1.996134 0.599149 0
M  V30 9 C 1.898879 3.266280 0.560132 0
M  V30 10 C 2.469193 3.709609 -0.616091 0
M  V30 11 C 2.494468 2.953875 -1.770032 0
M  V30 12 C 1.925288 1.688186 -1.766169 0
M  V30 13 C 1.364428 1.275994 -0.575802 0
M  V30 14 C -0.423358 1.957721 2.296361 0
M  V30 15 C -0.930281 3.114720 1.742281 0
M  V30 16 C -2.066963 3.685112 2.316927 0
M  V30 17 Cl -2.761402 5.154720 1.661473 0
M  V30 18 C -2.653155 3.070762 3.428795 0
M  V30 19 C -2.105477 1.898407 3.957537 0
M  V30 20 C -0.983973 1.320410 3.404266 0
M  V30 21 C -0.438777 0.162928 3.921539 0
M  V30 22 O -0.976207 -0.385670 4.927439 0
M  V30 23 N -0.470384 -4.268879 1.772056 0
M  V30 24 C -0.581991 -4.409161 0.340218 0
M  V30 25 C -1.678284 -3.754895 -0.219690 0
M  V30 26 C -1.890962 -3.816561 -1.583928 0
M  V30 27 C -0.991729 -4.539351 -2.364118 0
M  V30 28 O -1.073537 -4.693917 -3.761809 0
M  V30 29 C -0.384933 -3.685941 -4.515591 0
M  V30 30 F -0.494764 -3.882717 -5.873581 0
M  V30 31 F -1.008171 -2.485566 -4.176658 0
M  V30 32 F 0.929322 -3.551748 -4.114304 0
M  V30 33 C 0.106284 -5.196634 -1.816507 0
M  V30 34 C 0.294825 -5.118925 -0.453294 0
M  V30 35 H 0.123187 -3.429958 4.256506 0
M  V30 36 H 2.279383 -1.777322 3.320337 0
M  V30 37 H 1.491696 -1.624180 4.958559 0
M  V30 38 H 2.090401 -0.147818 1.782683 0
M  V30 39 H 1.857993 3.823319 1.480801 0
M  V30 40 H 2.915958 4.708367 -0.611465 0
M  V30 41 H 2.973016 3.397837 -2.653780 0
M  V30 42 H 1.939943 1.098130 -2.652602 0
M  V30 43 H 0.925467 0.271715 -0.611198 0
M  V30 44 H -0.516984 3.613887 0.898249 0
M  V30 45 H -3.535011 3.562183 3.830227 0
M  V30 46 H -2.603260 1.459742 4.827040 0
M  V30 47 H -0.852026 -4.851194 2.573145 0
M  V30 48 H -2.395646 -3.182823 0.372692 0
M  V30 49 H -2.707840 -3.347205 -2.121621 0
M  V30 50 H 0.818803 -5.763981 -2.396742 0
M  V30 51 H 1.121364 -5.592527 0.099386 0
M  V30 END ATOM
M  V30 BEGIN BOND
M  V30 1 2 1 2
M  V30 2 1 2 3
M  V30 3 1 3 4
M  V30 4 1 4 5
M  V30 5 2 5 6
M  V30 6 1 6 7
M  V30 7 1 7 8
M  V30 8 2 8 9
M  V30 9 1 9 10
M  V30 10 2 10 11
M  V30 11 1 11 12
M  V30 12 2 12 13
M  V30 13 1 7 14
M  V30 14 2 14 15
M  V30 15 1 15 16
M  V30 16 1 16 17
M  V30 17 2 16 18
M  V30 18 1 18 19
M  V30 19 2 19 20
M  V30 20 1 20 21
M  V30 21 2 21 22
M  V30 22 1 2 23
M  V30 23 1 23 24
M  V30 24 2 24 25
M  V30 25 1 25 26
M  V30 26 2 26 27
M  V30 27 1 27 28
M  V30 28 1 28 29
M  V30 29 1 29 30
M  V30 30 1 29 31
M  V30 31 1 29 32
M  V30 32 1 27 33
M  V30 33 2 33 34
M  V30 34 1 21 5
M  V30 35 1 34 24
M  V30 36 1 13 8
M  V30 37 1 20 14
M  V30 38 1 3 35
M  V30 39 1 4 36
M  V30 40 1 4 37
M  V30 41 1 6 38
M  V30 42 1 9 39
M  V30 43 1 10 40
M  V30 44 1 11 41
M  V30 45 1 12 42
M  V30 46 1 13 43
M  V30 47 1 15 44
M  V30 48 1 18 45
M  V30 49 1 19 46
M  V30 50 1 23 47
M  V30 51 1 25 48
M  V30 52 1 26 49
M  V30 53 1 33 50
M  V30 54 1 34 51
M  V30 END BOND
M  V30 END CTAB
M  END
>  <Dataset>  (826) 
ChEMBL_Kinases

>  <Ligand_Instance>  (826) 
nan

>  <PDB_ID>  (826) 
nan

>  <Standardized_SMILES>  (826) 
O=C(NCc1cn(-c2ccccc2)c2cc(Cl)ccc2c1=O)Nc1ccc(OC(F)(F)F)cc1

>  <Name>  (826) 
nan

>  <Pocket>  (826) 
nan

>  <ATP_Site>  (826) 
nan

>  <Peripheral>  (826) 
nan

>  <Num_H_Atoms_ProtBoundConf>  (826) 
nan

>  <Num_Resolved_Atoms>  (826) 
nan

>  <Num_Not_Resolved_Atoms>  (826) 
nan

$$$$
CHEMBL3640062
     RDKit          3D

  0  0  0  0  0  0  0  0  0  0999 V3000
M  V30 BEGIN CTAB
M  V30 COUNTS 47 50 0 0 0
M  V30 BEGIN ATOM
M  V30 1 O -2.535563 -2.144681 1.167382 0
M  V30 2 C -2.639908 -1.714424 0.007322 0
M  V30 3 N -2.566307 -0.339055 -0.152342 0
M  V30 4 C -2.395751 0.894821 0.568911 0
M  V30 5 C -1.088929 0.936723 1.236397 0
M  V30 6 C -0.063344 1.576311 0.553714 0
M  V30 7 N 1.216692 1.686563 1.003879 0
M  V30 8 C 2.224546 2.355185 0.257450 0
M  V30 9 C 2.636843 1.770373 -0.945302 0
M  V30 10 C 3.610959 2.404481 -1.685441 0
M  V30 11 C 4.192697 3.589017 -1.288025 0
M  V30 12 C 3.804014 4.186571 -0.105586 0
M  V30 13 C 2.832623 3.550908 0.629367 0
M  V30 14 C 1.584585 1.163318 2.183580 0
M  V30 15 C 2.862161 1.250879 2.675296 0
M  V30 16 C 3.223758 0.708704 3.889611 0
M  V30 17 Cl 4.845016 0.804968 4.540994 0
M  V30 18 C 2.240934 0.062790 4.608032 0
M  V30 19 C 0.937028 -0.036764 4.124680 0
M  V30 20 C 0.604410 0.516634 2.904213 0
M  V30 21 C -0.691967 0.413548 2.432961 0
M  V30 22 O -1.508784 -0.176787 3.141720 0
M  V30 23 N -2.818398 -2.711501 -0.973556 0
M  V30 24 C -2.845703 -4.039538 -0.462935 0
M  V30 25 C -3.900891 -4.783783 -0.024202 0
M  V30 26 C -3.713731 -6.074494 0.438867 0
M  V30 27 C -2.444379 -6.651776 0.471268 0
M  V30 28 Cl -2.276546 -8.298043 1.074207 0
M  V30 29 C -1.389214 -5.896901 0.028161 0
M  V30 30 F -0.181904 -6.527236 0.088335 0
M  V30 31 C -1.569577 -4.613457 -0.433280 0
M  V30 32 H -2.678827 -0.135973 -1.201681 0
M  V30 33 H -2.494202 1.778962 -0.067926 0
M  V30 34 H -3.208579 0.991818 1.358977 0
M  V30 35 H -0.216354 2.041952 -0.407598 0
M  V30 36 H 2.218156 0.837902 -1.313887 0
M  V30 37 H 4.003477 2.043401 -2.625370 0
M  V30 38 H 4.963722 4.132040 -1.830572 0
M  V30 39 H 4.172321 5.118972 0.335926 0
M  V30 40 H 2.456420 3.938377 1.576070 0
M  V30 41 H 3.633551 1.754672 2.119113 0
M  V30 42 H 2.404775 -0.400980 5.570940 0
M  V30 43 H 0.166353 -0.546602 4.694914 0
M  V30 44 H -2.912310 -2.370139 -1.976988 0
M  V30 45 H -4.844952 -4.272073 -0.080249 0
M  V30 46 H -4.604605 -6.603500 0.772304 0
M  V30 47 H -0.654227 -4.116453 -0.758052 0
M  V30 END ATOM
M  V30 BEGIN BOND
M  V30 1 2 1 2
M  V30 2 1 2 3
M  V30 3 1 3 4
M  V30 4 1 4 5
M  V30 5 2 5 6
M  V30 6 1 6 7
M  V30 7 1 7 8
M  V30 8 2 8 9
M  V30 9 1 9 10
M  V30 10 2 10 11
M  V30 11 1 11 12
M  V30 12 2 12 13
M  V30 13 1 7 14
M  V30 14 2 14 15
M  V30 15 1 15 16
M  V30 16 1 16 17
M  V30 17 2 16 18
M  V30 18 1 18 19
M  V30 19 2 19 20
M  V30 20 1 20 21
M  V30 21 2 21 22
M  V30 22 1 2 23
M  V30 23 1 23 24
M  V30 24 2 24 25
M  V30 25 1 25 26
M  V30 26 2 26 27
M  V30 27 1 27 28
M  V30 28 1 27 29
M  V30 29 1 29 30
M  V30 30 2 29 31
M  V30 31 1 21 5
M  V30 32 1 31 24
M  V30 33 1 13 8
M  V30 34 1 20 14
M  V30 35 1 3 32
M  V30 36 1 4 33
M  V30 37 1 4 34
M  V30 38 1 6 35
M  V30 39 1 9 36
M  V30 40 1 10 37
M  V30 41 1 11 38
M  V30 42 1 12 39
M  V30 43 1 13 40
M  V30 44 1 15 41
M  V30 45 1 18 42
M  V30 46 1 19 43
M  V30 47 1 23 44
M  V30 48 1 25 45
M  V30 49 1 26 46
M  V30 50 1 31 47
M  V30 END BOND
M  V30 END CTAB
M  END
>  <Dataset>  (827) 
ChEMBL_Kinases

>  <Ligand_Instance>  (827) 
nan

>  <PDB_ID>  (827) 
nan

>  <Standardized_SMILES>  (827) 
O=C(NCc1cn(-c2ccccc2)c2cc(Cl)ccc2c1=O)Nc1ccc(Cl)c(F)c1

>  <Name>  (827) 
nan

>  <Pocket>  (827) 
nan

>  <ATP_Site>  (827) 
nan

>  <Peripheral>  (827) 
nan

>  <Num_H_Atoms_ProtBoundConf>  (827) 
nan

>  <Num_Resolved_Atoms>  (827) 
nan

>  <Num_Not_Resolved_Atoms>  (827) 
nan

$$$$
CHEMBL3640061
     RDKit          3D

  0  0  0  0  0  0  0  0  0  0999 V3000
M  V30 BEGIN CTAB
M  V30 COUNTS 51 54 0 0 0
M  V30 BEGIN ATOM
M  V30 1 C -0.292611 -2.956388 -4.851650 0
M  V30 2 O 0.802055 -2.081855 -4.749319 0
M  V30 3 C 1.503723 -2.031646 -3.546363 0
M  V30 4 C 1.238245 -2.761380 -2.418872 0
M  V30 5 C 2.003514 -2.631790 -1.271859 0
M  V30 6 C 3.071204 -1.726169 -1.285785 0
M  V30 7 N 3.735388 -1.732294 -0.001879 0
M  V30 8 C 3.104964 -0.735906 0.826675 0
M  V30 9 O 2.174090 -0.152732 0.208160 0
M  V30 10 N 3.470288 -0.437219 2.163511 0
M  V30 11 C 2.780990 0.590767 2.938545 0
M  V30 12 C 1.354088 0.234344 3.046857 0
M  V30 13 C 0.349100 0.838062 2.304667 0
M  V30 14 N -0.959364 0.545840 2.366058 0
M  V30 15 C -1.892403 1.248172 1.538659 0
M  V30 16 C -2.672626 2.303345 1.914190 0
M  V30 17 C -3.543096 2.913138 1.034674 0
M  V30 18 C -3.587319 2.403765 -0.246448 0
M  V30 19 C -2.830296 1.340460 -0.700829 0
M  V30 20 C -1.971073 0.771990 0.243861 0
M  V30 21 C -1.375364 -0.415590 3.213652 0
M  V30 22 C -2.698273 -0.763152 3.326747 0
M  V30 23 C -3.156217 -1.733161 4.176812 0
M  V30 24 Cl -4.818043 -2.185650 4.335306 0
M  V30 25 C -2.211434 -2.383773 4.953777 0
M  V30 26 C -0.868148 -2.043267 4.850718 0
M  V30 27 C -0.426089 -1.061499 3.986843 0
M  V30 28 C 0.917495 -0.758221 3.920580 0
M  V30 29 O 1.752417 -1.366399 4.638922 0
M  V30 30 C 3.356379 -0.982117 -2.409023 0
M  V30 31 C 2.556945 -1.158179 -3.516848 0
M  V30 32 H -0.519853 -3.075489 -5.949071 0
M  V30 33 H -0.088564 -3.942162 -4.397567 0
M  V30 34 H -1.215631 -2.494301 -4.398881 0
M  V30 35 H 0.392114 -3.448517 -2.475463 0
M  V30 36 H 1.689008 -3.260673 -0.461959 0
M  V30 37 H 4.531560 -2.275124 0.430050 0
M  V30 38 H 4.267157 -1.028466 2.504168 0
M  V30 39 H 3.286799 0.788810 3.881192 0
M  V30 40 H 2.839381 1.532372 2.317932 0
M  V30 41 H 0.625795 1.630534 1.597277 0
M  V30 42 H -2.576960 2.640265 2.933621 0
M  V30 43 H -4.156866 3.749726 1.343262 0
M  V30 44 H -4.291621 2.916169 -0.914555 0
M  V30 45 H -2.913960 0.989811 -1.721512 0
M  V30 46 H -1.393374 -0.069326 -0.170963 0
M  V30 47 H -3.407022 -0.230247 2.700467 0
M  V30 48 H -2.535140 -3.169500 5.650710 0
M  V30 49 H -0.201436 -2.603522 5.496235 0
M  V30 50 H 4.194596 -0.339558 -2.267791 0
M  V30 51 H 2.853191 -0.529003 -4.362832 0
M  V30 END ATOM
M  V30 BEGIN BOND
M  V30 1 1 1 2
M  V30 2 1 2 3
M  V30 3 2 3 4
M  V30 4 1 4 5
M  V30 5 2 5 6
M  V30 6 1 6 7
M  V30 7 1 7 8
M  V30 8 2 8 9
M  V30 9 1 8 10
M  V30 10 1 10 11
M  V30 11 1 11 12
M  V30 12 2 12 13
M  V30 13 1 13 14
M  V30 14 1 14 15
M  V30 15 2 15 16
M  V30 16 1 16 17
M  V30 17 2 17 18
M  V30 18 1 18 19
M  V30 19 2 19 20
M  V30 20 1 14 21
M  V30 21 2 21 22
M  V30 22 1 22 23
M  V30 23 1 23 24
M  V30 24 2 23 25
M  V30 25 1 25 26
M  V30 26 2 26 27
M  V30 27 1 27 28
M  V30 28 2 28 29
M  V30 29 1 6 30
M  V30 30 2 30 31
M  V30 31 1 31 3
M  V30 32 1 28 12
M  V30 33 1 20 15
M  V30 34 1 27 21
M  V30 35 1 1 32
M  V30 36 1 1 33
M  V30 37 1 1 34
M  V30 38 1 4 35
M  V30 39 1 5 36
M  V30 40 1 7 37
M  V30 41 1 10 38
M  V30 42 1 11 39
M  V30 43 1 11 40
M  V30 44 1 13 41
M  V30 45 1 16 42
M  V30 46 1 17 43
M  V30 47 1 18 44
M  V30 48 1 19 45
M  V30 49 1 20 46
M  V30 50 1 22 47
M  V30 51 1 25 48
M  V30 52 1 26 49
M  V30 53 1 30 50
M  V30 54 1 31 51
M  V30 END BOND
M  V30 END CTAB
M  END
>  <Dataset>  (828) 
ChEMBL_Kinases

>  <Ligand_Instance>  (828) 
nan

>  <PDB_ID>  (828) 
nan

>  <Standardized_SMILES>  (828) 
COc1ccc(NC(=O)NCc2cn(-c3ccccc3)c3cc(Cl)ccc3c2=O)cc1

>  <Name>  (828) 
nan

>  <Pocket>  (828) 
nan

>  <ATP_Site>  (828) 
nan

>  <Peripheral>  (828) 
nan

>  <Num_H_Atoms_ProtBoundConf>  (828) 
nan

>  <Num_Resolved_Atoms>  (828) 
nan

>  <Num_Not_Resolved_Atoms>  (828) 
nan

$$$$
CHEMBL3640060
     RDKit          3D

  0  0  0  0  0  0  0  0  0  0999 V3000
M  V30 BEGIN CTAB
M  V30 COUNTS 55 58 0 0 0
M  V30 BEGIN ATOM
M  V30 1 C 4.028756 -1.679867 5.832937 0
M  V30 2 N 4.878268 -1.851898 4.664382 0
M  V30 3 C 6.123154 -2.598539 4.695509 0
M  V30 4 C 4.449605 -1.247578 3.448882 0
M  V30 5 C 3.278519 -0.527548 3.397713 0
M  V30 6 C 2.823693 0.084656 2.220798 0
M  V30 7 C 3.618582 -0.064734 1.075321 0
M  V30 8 N 2.999666 0.629212 -0.023407 0
M  V30 9 C 2.115962 -0.144309 -0.773911 0
M  V30 10 O 2.004775 -1.310355 -0.383306 0
M  V30 11 N 1.360233 0.254806 -1.896155 0
M  V30 12 C 0.405245 -0.285855 -2.834337 0
M  V30 13 C -0.847100 -0.779258 -2.213836 0
M  V30 14 C -1.926224 0.118674 -2.171172 0
M  V30 15 N -3.130824 -0.113531 -1.623296 0
M  V30 16 C -4.159187 0.844961 -1.614022 0
M  V30 17 C -5.280516 0.992799 -2.401786 0
M  V30 18 C -6.154260 2.045959 -2.178421 0
M  V30 19 C -5.897517 2.955087 -1.156020 0
M  V30 20 C -4.790066 2.835419 -0.354667 0
M  V30 21 C -3.922624 1.768888 -0.595305 0
M  V30 22 C -3.390626 -1.298254 -1.045979 0
M  V30 23 C -4.591119 -1.630565 -0.458944 0
M  V30 24 C -4.726813 -2.881362 0.098191 0
M  V30 25 Cl -6.244893 -3.322194 0.849692 0
M  V30 26 C -3.752943 -3.841576 0.119169 0
M  V30 27 C -2.536180 -3.498892 -0.478070 0
M  V30 28 C -2.383497 -2.238013 -1.045562 0
M  V30 29 C -1.161514 -1.973926 -1.613085 0
M  V30 30 O -0.249548 -2.834906 -1.612974 0
M  V30 31 C 4.795967 -0.784630 1.111958 0
M  V30 32 C 5.200742 -1.368395 2.294718 0
M  V30 33 H 3.992068 -0.630872 6.155585 0
M  V30 34 H 2.982922 -2.011638 5.575456 0
M  V30 35 H 4.354744 -2.319189 6.677925 0
M  V30 36 H 6.234254 -3.277924 3.826228 0
M  V30 37 H 7.004354 -1.924998 4.736196 0
M  V30 38 H 6.119904 -3.254251 5.607616 0
M  V30 39 H 2.682823 -0.433254 4.319417 0
M  V30 40 H 1.890883 0.621007 2.309693 0
M  V30 41 H 3.142414 1.644354 -0.315179 0
M  V30 42 H 1.596796 1.287554 -2.075949 0
M  V30 43 H 0.143878 0.484338 -3.550953 0
M  V30 44 H 0.906292 -1.167719 -3.325011 0
M  V30 45 H -1.802459 1.109407 -2.619316 0
M  V30 46 H -5.346004 0.216505 -3.148648 0
M  V30 47 H -6.990742 2.058764 -2.852962 0
M  V30 48 H -6.661990 3.718187 -1.101872 0
M  V30 49 H -4.653114 3.573714 0.417429 0
M  V30 50 H -3.082391 1.789309 0.112562 0
M  V30 51 H -5.356064 -0.894936 -0.467912 0
M  V30 52 H -3.839630 -4.828160 0.551226 0
M  V30 53 H -1.715993 -4.233805 -0.490357 0
M  V30 54 H 5.283015 -0.806040 0.163545 0
M  V30 55 H 6.121408 -1.915565 2.267512 0
M  V30 END ATOM
M  V30 BEGIN BOND
M  V30 1 1 1 2
M  V30 2 1 2 3
M  V30 3 1 2 4
M  V30 4 2 4 5
M  V30 5 1 5 6
M  V30 6 2 6 7
M  V30 7 1 7 8
M  V30 8 1 8 9
M  V30 9 2 9 10
M  V30 10 1 9 11
M  V30 11 1 11 12
M  V30 12 1 12 13
M  V30 13 2 13 14
M  V30 14 1 14 15
M  V30 15 1 15 16
M  V30 16 2 16 17
M  V30 17 1 17 18
M  V30 18 2 18 19
M  V30 19 1 19 20
M  V30 20 2 20 21
M  V30 21 1 15 22
M  V30 22 2 22 23
M  V30 23 1 23 24
M  V30 24 1 24 25
M  V30 25 2 24 26
M  V30 26 1 26 27
M  V30 27 2 27 28
M  V30 28 1 28 29
M  V30 29 2 29 30
M  V30 30 1 7 31
M  V30 31 2 31 32
M  V30 32 1 32 4
M  V30 33 1 29 13
M  V30 34 1 21 16
M  V30 35 1 28 22
M  V30 36 1 1 33
M  V30 37 1 1 34
M  V30 38 1 1 35
M  V30 39 1 3 36
M  V30 40 1 3 37
M  V30 41 1 3 38
M  V30 42 1 5 39
M  V30 43 1 6 40
M  V30 44 1 8 41
M  V30 45 1 11 42
M  V30 46 1 12 43
M  V30 47 1 12 44
M  V30 48 1 14 45
M  V30 49 1 17 46
M  V30 50 1 18 47
M  V30 51 1 19 48
M  V30 52 1 20 49
M  V30 53 1 21 50
M  V30 54 1 23 51
M  V30 55 1 26 52
M  V30 56 1 27 53
M  V30 57 1 31 54
M  V30 58 1 32 55
M  V30 END BOND
M  V30 END CTAB
M  END
>  <Dataset>  (829) 
ChEMBL_Kinases

>  <Ligand_Instance>  (829) 
nan

>  <PDB_ID>  (829) 
nan

>  <Standardized_SMILES>  (829) 
CN(C)c1ccc(NC(=O)NCc2cn(-c3ccccc3)c3cc(Cl)ccc3c2=O)cc1

>  <Name>  (829) 
nan

>  <Pocket>  (829) 
nan

>  <ATP_Site>  (829) 
nan

>  <Peripheral>  (829) 
nan

>  <Num_H_Atoms_ProtBoundConf>  (829) 
nan

>  <Num_Resolved_Atoms>  (829) 
nan

>  <Num_Not_Resolved_Atoms>  (829) 
nan

$$$$
CHEMBL3640042
     RDKit          3D

  0  0  0  0  0  0  0  0  0  0999 V3000
M  V30 BEGIN CTAB
M  V30 COUNTS 50 53 0 0 0
M  V30 BEGIN ATOM
M  V30 1 O -0.609587 -3.235046 1.534035 0
M  V30 2 C 0.205186 -3.291562 0.588942 0
M  V30 3 N 1.425064 -2.606093 0.746484 0
M  V30 4 C 2.111878 -1.784073 1.708464 0
M  V30 5 C 1.424862 -0.517483 2.011560 0
M  V30 6 C 1.836683 0.606744 1.294270 0
M  V30 7 N 1.340974 1.853930 1.378326 0
M  V30 8 C 1.841957 2.926259 0.593529 0
M  V30 9 C 1.694539 3.024890 -0.779343 0
M  V30 10 C 2.246534 4.138642 -1.380605 0
M  V30 11 C 2.924540 5.147432 -0.729029 0
M  V30 12 C 3.034681 4.985124 0.639214 0
M  V30 13 C 2.518008 3.908846 1.333202 0
M  V30 14 C 0.334250 2.090118 2.237267 0
M  V30 15 C -0.251456 3.326670 2.408257 0
M  V30 16 C -1.267759 3.544898 3.282766 0
M  V30 17 Cl -2.026145 5.106872 3.517039 0
M  V30 18 C -1.731839 2.482281 4.030490 0
M  V30 19 C -1.177611 1.206735 3.900319 0
M  V30 20 C -0.148708 1.046060 2.997068 0
M  V30 21 C 0.400176 -0.210745 2.867395 0
M  V30 22 O -0.046492 -1.149979 3.568473 0
M  V30 23 N -0.210641 -4.041328 -0.518622 0
M  V30 24 C -1.509542 -4.676321 -0.490644 0
M  V30 25 C -2.400195 -4.167018 -1.598035 0
M  V30 26 C -3.057059 -5.395205 -2.160915 0
M  V30 27 C -1.895111 -6.389172 -2.145889 0
M  V30 28 C -1.373324 -6.172559 -0.732693 0
M  V30 29 H 1.989685 -2.774569 -0.154295 0
M  V30 30 H 2.253783 -2.380638 2.679496 0
M  V30 31 H 3.109102 -1.543114 1.299146 0
M  V30 32 H 2.651385 0.513039 0.569992 0
M  V30 33 H 1.174248 2.253902 -1.293187 0
M  V30 34 H 2.108566 4.177603 -2.460115 0
M  V30 35 H 3.328887 5.988597 -1.266732 0
M  V30 36 H 3.562620 5.754491 1.208881 0
M  V30 37 H 2.638458 3.839495 2.409515 0
M  V30 38 H 0.113286 4.144312 1.825511 0
M  V30 39 H -2.549197 2.648210 4.736531 0
M  V30 40 H -1.602611 0.450690 4.520366 0
M  V30 41 H 0.428465 -4.121223 -1.334273 0
M  V30 42 H -2.047631 -4.493121 0.452663 0
M  V30 43 H -1.814522 -3.663927 -2.390946 0
M  V30 44 H -3.211433 -3.489436 -1.200258 0
M  V30 45 H -3.813141 -5.797694 -1.445360 0
M  V30 46 H -3.448837 -5.256407 -3.179852 0
M  V30 47 H -2.257917 -7.411342 -2.292969 0
M  V30 48 H -1.130086 -6.049603 -2.870870 0
M  V30 49 H -1.921005 -6.771535 0.006591 0
M  V30 50 H -0.294447 -6.418084 -0.751894 0
M  V30 END ATOM
M  V30 BEGIN BOND
M  V30 1 2 1 2
M  V30 2 1 2 3
M  V30 3 1 3 4
M  V30 4 1 4 5
M  V30 5 2 5 6
M  V30 6 1 6 7
M  V30 7 1 7 8
M  V30 8 2 8 9
M  V30 9 1 9 10
M  V30 10 2 10 11
M  V30 11 1 11 12
M  V30 12 2 12 13
M  V30 13 1 7 14
M  V30 14 2 14 15
M  V30 15 1 15 16
M  V30 16 1 16 17
M  V30 17 2 16 18
M  V30 18 1 18 19
M  V30 19 2 19 20
M  V30 20 1 20 21
M  V30 21 2 21 22
M  V30 22 1 2 23
M  V30 23 1 23 24
M  V30 24 1 24 25
M  V30 25 1 25 26
M  V30 26 1 26 27
M  V30 27 1 27 28
M  V30 28 1 21 5
M  V30 29 1 28 24
M  V30 30 1 13 8
M  V30 31 1 20 14
M  V30 32 1 3 29
M  V30 33 1 4 30
M  V30 34 1 4 31
M  V30 35 1 6 32
M  V30 36 1 9 33
M  V30 37 1 10 34
M  V30 38 1 11 35
M  V30 39 1 12 36
M  V30 40 1 13 37
M  V30 41 1 15 38
M  V30 42 1 18 39
M  V30 43 1 19 40
M  V30 44 1 23 41
M  V30 45 1 24 42
M  V30 46 1 25 43
M  V30 47 1 25 44
M  V30 48 1 26 45
M  V30 49 1 26 46
M  V30 50 1 27 47
M  V30 51 1 27 48
M  V30 52 1 28 49
M  V30 53 1 28 50
M  V30 END BOND
M  V30 END CTAB
M  END
>  <Dataset>  (830) 
ChEMBL_Kinases

>  <Ligand_Instance>  (830) 
nan

>  <PDB_ID>  (830) 
nan

>  <Standardized_SMILES>  (830) 
O=C(NCc1cn(-c2ccccc2)c2cc(Cl)ccc2c1=O)NC1CCCC1

>  <Name>  (830) 
nan

>  <Pocket>  (830) 
nan

>  <ATP_Site>  (830) 
nan

>  <Peripheral>  (830) 
nan

>  <Num_H_Atoms_ProtBoundConf>  (830) 
nan

>  <Num_Resolved_Atoms>  (830) 
nan

>  <Num_Not_Resolved_Atoms>  (830) 
nan

$$$$
CHEMBL3640043
     RDKit          3D

  0  0  0  0  0  0  0  0  0  0999 V3000
M  V30 BEGIN CTAB
M  V30 COUNTS 59 62 0 0 0
M  V30 BEGIN ATOM
M  V30 1 C 6.758033 -2.073750 5.388337 0
M  V30 2 O 5.864810 -1.835734 4.304740 0
M  V30 3 C 6.092599 -0.817047 3.389810 0
M  V30 4 O 7.156706 -0.177605 3.662431 0
M  V30 5 C 5.028785 -0.735724 2.322355 0 CFG=1
M  V30 6 C 3.714196 -0.496408 2.935551 0
M  V30 7 C 2.773151 0.429839 2.273227 0
M  V30 8 C 3.160987 0.540059 0.810060 0 CFG=1
M  V30 9 N 2.096043 1.240510 0.163461 0
M  V30 10 C 1.332431 0.589245 -0.827813 0
M  V30 11 O 1.648200 -0.584579 -1.080967 0
M  V30 12 N 0.273692 1.116750 -1.544922 0
M  V30 13 C -0.693790 0.796316 -2.563012 0
M  V30 14 C -1.577019 -0.313226 -2.145213 0
M  V30 15 C -2.802009 0.048044 -1.564309 0
M  V30 16 N -3.707437 -0.828058 -1.100893 0
M  V30 17 C -4.945550 -0.454696 -0.512180 0
M  V30 18 C -6.025760 -0.544139 -1.391530 0
M  V30 19 C -7.318104 -0.214353 -0.970128 0
M  V30 20 C -7.526830 0.207193 0.340068 0
M  V30 21 C -6.443006 0.294245 1.212942 0
M  V30 22 C -5.159767 -0.030767 0.802580 0
M  V30 23 C -3.514255 -2.156315 -1.154708 0
M  V30 24 C -4.371998 -3.120427 -0.711547 0
M  V30 25 C -4.126580 -4.464107 -0.790981 0
M  V30 26 Cl -5.270112 -5.654858 -0.203006 0
M  V30 27 C -2.923306 -4.866425 -1.361104 0
M  V30 28 C -2.021768 -3.924425 -1.824452 0
M  V30 29 C -2.324697 -2.596629 -1.716946 0
M  V30 30 C -1.416118 -1.677406 -2.183714 0
M  V30 31 O -0.345753 -2.085392 -2.694053 0
M  V30 32 C 4.488311 1.207551 0.809760 0
M  V30 33 C 5.506138 0.178892 1.256214 0
M  V30 34 H 6.515579 -1.286925 6.142026 0
M  V30 35 H 6.593578 -3.055980 5.842243 0
M  V30 36 H 7.814792 -1.945995 5.073821 0
M  V30 37 H 5.028051 -1.781997 1.901551 0
M  V30 38 H 3.171683 -1.469634 3.132687 0
M  V30 39 H 3.869448 -0.096566 3.984262 0
M  V30 40 H 1.730445 0.030438 2.379618 0
M  V30 41 H 2.834921 1.457330 2.732233 0
M  V30 42 H 3.246942 -0.496383 0.427327 0
M  V30 43 H 1.858012 2.229263 0.399471 0
M  V30 44 H 0.116524 2.133111 -1.226149 0
M  V30 45 H -0.169795 0.487644 -3.519393 0
M  V30 46 H -1.328148 1.628686 -2.842506 0
M  V30 47 H -3.063499 1.113906 -1.469939 0
M  V30 48 H -5.947091 -0.862126 -2.421702 0
M  V30 49 H -8.168120 -0.272941 -1.621119 0
M  V30 50 H -8.485439 0.479502 0.746721 0
M  V30 51 H -6.498593 0.608342 2.241578 0
M  V30 52 H -4.278404 0.008682 1.408524 0
M  V30 53 H -5.302567 -2.735836 -0.272405 0
M  V30 54 H -2.731122 -5.929775 -1.423034 0
M  V30 55 H -1.083336 -4.256390 -2.269637 0
M  V30 56 H 4.851935 1.609350 -0.130078 0
M  V30 57 H 4.497099 2.025128 1.564007 0
M  V30 58 H 6.407975 0.746000 1.567913 0
M  V30 59 H 5.807772 -0.378346 0.331473 0
M  V30 END ATOM
M  V30 BEGIN BOND
M  V30 1 1 1 2
M  V30 2 1 2 3
M  V30 3 2 3 4
M  V30 4 1 3 5
M  V30 5 1 5 6
M  V30 6 1 6 7
M  V30 7 1 7 8
M  V30 8 1 8 9
M  V30 9 1 9 10
M  V30 10 2 10 11
M  V30 11 1 10 12
M  V30 12 1 12 13
M  V30 13 1 13 14
M  V30 14 2 14 15
M  V30 15 1 15 16
M  V30 16 1 16 17
M  V30 17 2 17 18
M  V30 18 1 18 19
M  V30 19 2 19 20
M  V30 20 1 20 21
M  V30 21 2 21 22
M  V30 22 1 16 23
M  V30 23 2 23 24
M  V30 24 1 24 25
M  V30 25 1 25 26
M  V30 26 2 25 27
M  V30 27 1 27 28
M  V30 28 2 28 29
M  V30 29 1 29 30
M  V30 30 2 30 31
M  V30 31 1 8 32
M  V30 32 1 32 33
M  V30 33 1 33 5
M  V30 34 1 30 14
M  V30 35 1 22 17
M  V30 36 1 29 23
M  V30 37 1 1 34
M  V30 38 1 1 35
M  V30 39 1 1 36
M  V30 40 1 5 37 CFG=3
M  V30 41 1 6 38
M  V30 42 1 6 39
M  V30 43 1 7 40
M  V30 44 1 7 41
M  V30 45 1 8 42 CFG=3
M  V30 46 1 9 43
M  V30 47 1 12 44
M  V30 48 1 13 45
M  V30 49 1 13 46
M  V30 50 1 15 47
M  V30 51 1 18 48
M  V30 52 1 19 49
M  V30 53 1 20 50
M  V30 54 1 21 51
M  V30 55 1 22 52
M  V30 56 1 24 53
M  V30 57 1 27 54
M  V30 58 1 28 55
M  V30 59 1 32 56
M  V30 60 1 32 57
M  V30 61 1 33 58
M  V30 62 1 33 59
M  V30 END BOND
M  V30 END CTAB
M  END
>  <Dataset>  (831) 
ChEMBL_Kinases

>  <Ligand_Instance>  (831) 
nan

>  <PDB_ID>  (831) 
nan

>  <Standardized_SMILES>  (831) 
COC(=O)[C@H]1CC[C@@H](NC(=O)NCc2cn(-c3ccccc3)c3cc(Cl)ccc3c2=O)CC1

>  <Name>  (831) 
nan

>  <Pocket>  (831) 
nan

>  <ATP_Site>  (831) 
nan

>  <Peripheral>  (831) 
nan

>  <Num_H_Atoms_ProtBoundConf>  (831) 
nan

>  <Num_Resolved_Atoms>  (831) 
nan

>  <Num_Not_Resolved_Atoms>  (831) 
nan

$$$$
CHEMBL3640044
     RDKit          3D

  0  0  0  0  0  0  0  0  0  0999 V3000
M  V30 BEGIN CTAB
M  V30 COUNTS 47 50 0 0 0
M  V30 BEGIN ATOM
M  V30 1 O -1.356763 -3.043370 2.559466 0
M  V30 2 C -0.553454 -3.459406 1.696575 0
M  V30 3 N 0.737604 -2.954503 1.768903 0
M  V30 4 C 1.579540 -2.060938 2.515297 0
M  V30 5 C 1.057966 -0.680467 2.472497 0
M  V30 6 C 1.580639 0.153168 1.470781 0
M  V30 7 N 1.202027 1.426298 1.257721 0
M  V30 8 C 1.795923 2.185769 0.202037 0
M  V30 9 C 1.121785 1.922373 -0.984252 0
M  V30 10 C 1.485708 2.528657 -2.192073 0
M  V30 11 C 2.556845 3.411172 -2.154564 0
M  V30 12 C 3.208772 3.660269 -0.985161 0
M  V30 13 C 2.856689 3.066317 0.212937 0
M  V30 14 C 0.261781 2.017271 2.015134 0
M  V30 15 C -0.128114 3.321218 1.801264 0
M  V30 16 C -1.111269 3.864555 2.632036 0
M  V30 17 Cl -1.579895 5.513288 2.335520 0
M  V30 18 C -1.636249 3.075263 3.614584 0
M  V30 19 C -1.269207 1.759152 3.860136 0
M  V30 20 C -0.289155 1.253350 3.014120 0
M  V30 21 C 0.100842 -0.044459 3.226914 0
M  V30 22 O -0.411522 -0.710608 4.140476 0
M  V30 23 N -1.008982 -4.391809 0.731562 0
M  V30 24 C -0.388609 -5.102222 -0.399741 0
M  V30 25 C -1.361877 -4.788452 -1.543237 0
M  V30 26 C -2.728112 -4.725203 -0.847479 0
M  V30 27 C -2.349184 -4.919343 0.610623 0
M  V30 28 H 1.288180 -3.406576 0.977596 0
M  V30 29 H 2.601135 -2.058312 2.102613 0
M  V30 30 H 1.593261 -2.365116 3.600805 0
M  V30 31 H 2.348853 -0.230983 0.802506 0
M  V30 32 H 0.269632 1.251009 -1.137930 0
M  V30 33 H 0.990738 2.353965 -3.137211 0
M  V30 34 H 2.872876 3.904614 -3.071130 0
M  V30 35 H 4.055923 4.344171 -0.900930 0
M  V30 36 H 3.275260 3.169947 1.189921 0
M  V30 37 H 0.308094 3.918478 1.014470 0
M  V30 38 H -2.379763 3.548925 4.212438 0
M  V30 39 H -1.754407 1.227645 4.669662 0
M  V30 40 H -0.359641 -6.178259 -0.172738 0
M  V30 41 H 0.576291 -4.671800 -0.665998 0
M  V30 42 H -1.322231 -5.584628 -2.292618 0
M  V30 43 H -1.147709 -3.773393 -1.928349 0
M  V30 44 H -3.352775 -5.530689 -1.242335 0
M  V30 45 H -3.208348 -3.749661 -1.014306 0
M  V30 46 H -3.087771 -4.404459 1.255056 0
M  V30 47 H -2.351240 -5.986488 0.827999 0
M  V30 END ATOM
M  V30 BEGIN BOND
M  V30 1 2 1 2
M  V30 2 1 2 3
M  V30 3 1 3 4
M  V30 4 1 4 5
M  V30 5 2 5 6
M  V30 6 1 6 7
M  V30 7 1 7 8
M  V30 8 2 8 9
M  V30 9 1 9 10
M  V30 10 2 10 11
M  V30 11 1 11 12
M  V30 12 2 12 13
M  V30 13 1 7 14
M  V30 14 2 14 15
M  V30 15 1 15 16
M  V30 16 1 16 17
M  V30 17 2 16 18
M  V30 18 1 18 19
M  V30 19 2 19 20
M  V30 20 1 20 21
M  V30 21 2 21 22
M  V30 22 1 2 23
M  V30 23 1 23 24
M  V30 24 1 24 25
M  V30 25 1 25 26
M  V30 26 1 26 27
M  V30 27 1 21 5
M  V30 28 1 27 23
M  V30 29 1 13 8
M  V30 30 1 20 14
M  V30 31 1 3 28
M  V30 32 1 4 29
M  V30 33 1 4 30
M  V30 34 1 6 31
M  V30 35 1 9 32
M  V30 36 1 10 33
M  V30 37 1 11 34
M  V30 38 1 12 35
M  V30 39 1 13 36
M  V30 40 1 15 37
M  V30 41 1 18 38
M  V30 42 1 19 39
M  V30 43 1 24 40
M  V30 44 1 24 41
M  V30 45 1 25 42
M  V30 46 1 25 43
M  V30 47 1 26 44
M  V30 48 1 26 45
M  V30 49 1 27 46
M  V30 50 1 27 47
M  V30 END BOND
M  V30 END CTAB
M  END
>  <Dataset>  (832) 
ChEMBL_Kinases

>  <Ligand_Instance>  (832) 
nan

>  <PDB_ID>  (832) 
nan

>  <Standardized_SMILES>  (832) 
O=C(NCc1cn(-c2ccccc2)c2cc(Cl)ccc2c1=O)N1CCCC1

>  <Name>  (832) 
nan

>  <Pocket>  (832) 
nan

>  <ATP_Site>  (832) 
nan

>  <Peripheral>  (832) 
nan

>  <Num_H_Atoms_ProtBoundConf>  (832) 
nan

>  <Num_Resolved_Atoms>  (832) 
nan

>  <Num_Not_Resolved_Atoms>  (832) 
nan

$$$$
CHEMBL3640045
     RDKit          3D

  0  0  0  0  0  0  0  0  0  0999 V3000
M  V30 BEGIN CTAB
M  V30 COUNTS 52 55 0 0 0
M  V30 BEGIN ATOM
M  V30 1 C 0.983587 -6.301488 2.929605 0
M  V30 2 N 2.237346 -5.592092 3.069809 0
M  V30 3 C 1.942873 -4.208159 3.349634 0
M  V30 4 C 1.446536 -3.507806 2.105445 0
M  V30 5 N 2.477886 -3.500504 1.082518 0
M  V30 6 C 2.467749 -2.595224 -0.014142 0
M  V30 7 O 3.405676 -2.638489 -0.879007 0
M  V30 8 N 1.411228 -1.657005 -0.126246 0
M  V30 9 C 1.404565 -0.720306 -1.259313 0
M  V30 10 C 0.154014 0.100711 -1.074213 0
M  V30 11 C 0.213307 1.380418 -0.564068 0
M  V30 12 N -0.944963 2.038578 -0.426175 0
M  V30 13 C -0.992667 3.364503 0.097296 0
M  V30 14 C -0.886742 3.307558 1.492096 0
M  V30 15 C -0.909005 4.487546 2.243251 0
M  V30 16 C -1.036767 5.703441 1.585348 0
M  V30 17 C -1.138975 5.732451 0.217255 0
M  V30 18 C -1.118839 4.580784 -0.536230 0
M  V30 19 C -2.134015 1.514030 -0.757578 0
M  V30 20 C -3.322658 2.230635 -0.602517 0
M  V30 21 C -4.539421 1.684195 -0.947758 0
M  V30 22 Cl -6.009996 2.638477 -0.729751 0
M  V30 23 C -4.640719 0.411394 -1.459721 0
M  V30 24 C -3.457390 -0.293277 -1.610534 0
M  V30 25 C -2.224368 0.223644 -1.275201 0
M  V30 26 C -1.045469 -0.508697 -1.439826 0
M  V30 27 O -1.128508 -1.672398 -1.906717 0
M  V30 28 C 3.523530 -4.490149 1.266131 0
M  V30 29 C 3.003927 -5.773704 1.874286 0
M  V30 30 H 0.993400 -7.281841 3.456796 0
M  V30 31 H 0.802224 -6.472927 1.852621 0
M  V30 32 H 0.149829 -5.658407 3.274486 0
M  V30 33 H 1.118538 -4.100966 4.092964 0
M  V30 34 H 2.810244 -3.630089 3.727172 0
M  V30 35 H 0.563767 -3.997102 1.661552 0
M  V30 36 H 1.288990 -2.450892 2.404375 0
M  V30 37 H 0.662473 -1.677071 0.628113 0
M  V30 38 H 1.300009 -1.345401 -2.180371 0
M  V30 39 H 2.292654 -0.089909 -1.253353 0
M  V30 40 H 1.150158 1.814590 -0.294577 0
M  V30 41 H -0.783348 2.443508 2.128979 0
M  V30 42 H -0.834054 4.538887 3.315446 0
M  V30 43 H -1.057967 6.624754 2.118411 0
M  V30 44 H -1.242784 6.660776 -0.366211 0
M  V30 45 H -1.189709 4.464333 -1.603824 0
M  V30 46 H -3.304061 3.249967 -0.199395 0
M  V30 47 H -5.573496 -0.054482 -1.743476 0
M  V30 48 H -3.539651 -1.300588 -2.015960 0
M  V30 49 H 4.394008 -4.082899 1.807376 0
M  V30 50 H 3.870607 -4.757398 0.227349 0
M  V30 51 H 2.448404 -6.349285 1.105893 0
M  V30 52 H 3.902380 -6.383164 2.135644 0
M  V30 END ATOM
M  V30 BEGIN BOND
M  V30 1 1 1 2
M  V30 2 1 2 3
M  V30 3 1 3 4
M  V30 4 1 4 5
M  V30 5 1 5 6
M  V30 6 2 6 7
M  V30 7 1 6 8
M  V30 8 1 8 9
M  V30 9 1 9 10
M  V30 10 2 10 11
M  V30 11 1 11 12
M  V30 12 1 12 13
M  V30 13 2 13 14
M  V30 14 1 14 15
M  V30 15 2 15 16
M  V30 16 1 16 17
M  V30 17 2 17 18
M  V30 18 1 12 19
M  V30 19 2 19 20
M  V30 20 1 20 21
M  V30 21 1 21 22
M  V30 22 2 21 23
M  V30 23 1 23 24
M  V30 24 2 24 25
M  V30 25 1 25 26
M  V30 26 2 26 27
M  V30 27 1 5 28
M  V30 28 1 28 29
M  V30 29 1 29 2
M  V30 30 1 26 10
M  V30 31 1 18 13
M  V30 32 1 25 19
M  V30 33 1 1 30
M  V30 34 1 1 31
M  V30 35 1 1 32
M  V30 36 1 3 33
M  V30 37 1 3 34
M  V30 38 1 4 35
M  V30 39 1 4 36
M  V30 40 1 8 37
M  V30 41 1 9 38
M  V30 42 1 9 39
M  V30 43 1 11 40
M  V30 44 1 14 41
M  V30 45 1 15 42
M  V30 46 1 16 43
M  V30 47 1 17 44
M  V30 48 1 18 45
M  V30 49 1 20 46
M  V30 50 1 23 47
M  V30 51 1 24 48
M  V30 52 1 28 49
M  V30 53 1 28 50
M  V30 54 1 29 51
M  V30 55 1 29 52
M  V30 END BOND
M  V30 END CTAB
M  END
>  <Dataset>  (833) 
ChEMBL_Kinases

>  <Ligand_Instance>  (833) 
nan

>  <PDB_ID>  (833) 
nan

>  <Standardized_SMILES>  (833) 
CN1CCN(C(=O)NCc2cn(-c3ccccc3)c3cc(Cl)ccc3c2=O)CC1

>  <Name>  (833) 
nan

>  <Pocket>  (833) 
nan

>  <ATP_Site>  (833) 
nan

>  <Peripheral>  (833) 
nan

>  <Num_H_Atoms_ProtBoundConf>  (833) 
nan

>  <Num_Resolved_Atoms>  (833) 
nan

>  <Num_Not_Resolved_Atoms>  (833) 
nan

$$$$
CHEMBL3640046
     RDKit          3D

  0  0  0  0  0  0  0  0  0  0999 V3000
M  V30 BEGIN CTAB
M  V30 COUNTS 49 52 0 0 0
M  V30 BEGIN ATOM
M  V30 1 O 0.810521 -2.670235 0.277751 0
M  V30 2 C -0.006289 -3.204781 1.093179 0
M  V30 3 N -0.037760 -3.023921 2.487878 0
M  V30 4 C 0.932302 -2.152677 3.124973 0
M  V30 5 C 0.754203 -0.794101 2.562473 0
M  V30 6 C 1.504584 -0.100116 1.639792 0
M  V30 7 N 1.150039 1.141298 1.270495 0
M  V30 8 C 2.071203 1.672724 0.298627 0
M  V30 9 C 1.625608 1.929313 -0.980135 0
M  V30 10 C 2.479416 2.439271 -1.946784 0
M  V30 11 C 3.780323 2.675147 -1.572194 0
M  V30 12 C 4.249084 2.423046 -0.287534 0
M  V30 13 C 3.381059 1.913246 0.665007 0
M  V30 14 C 0.071406 1.775936 1.759174 0
M  V30 15 C -0.164109 3.059914 1.278977 0
M  V30 16 C -1.281500 3.690915 1.799613 0
M  V30 17 Cl -1.639167 5.312656 1.237347 0
M  V30 18 C -2.098585 3.070997 2.734854 0
M  V30 19 C -1.815737 1.797526 3.173993 0
M  V30 20 C -0.717161 1.128053 2.687233 0
M  V30 21 C -0.374107 -0.148664 3.083307 0
M  V30 22 O -1.156605 -0.644027 3.928244 0
M  V30 23 N -0.840087 -3.996097 0.260676 0
M  V30 24 C -0.598678 -4.016045 -1.166762 0
M  V30 25 C -1.743915 -3.263284 -1.833525 0
M  V30 26 N -3.005497 -3.569645 -1.186672 0
M  V30 27 C -2.930672 -4.822169 -0.494044 0
M  V30 28 C -1.952227 -4.829776 0.653340 0
M  V30 29 H -0.799989 -3.572830 2.898934 0
M  V30 30 H 0.775877 -2.120067 4.211784 0
M  V30 31 H 1.959747 -2.497980 2.884030 0
M  V30 32 H 2.354699 -0.661408 1.291501 0
M  V30 33 H 0.594724 1.730225 -1.235470 0
M  V30 34 H 2.062577 2.614763 -2.923185 0
M  V30 35 H 4.419826 3.077858 -2.367981 0
M  V30 36 H 5.289524 2.637333 -0.079066 0
M  V30 37 H 3.719342 1.712406 1.656431 0
M  V30 38 H 0.497596 3.508023 0.549857 0
M  V30 39 H -2.955698 3.617996 3.102786 0
M  V30 40 H -2.437201 1.303524 3.897289 0
M  V30 41 H -0.547471 -5.059311 -1.542997 0
M  V30 42 H 0.353557 -3.527421 -1.378970 0
M  V30 43 H -1.765643 -3.598791 -2.886858 0
M  V30 44 H -1.560881 -2.186764 -1.838234 0
M  V30 45 H -3.293103 -2.801983 -0.554567 0
M  V30 46 H -3.958663 -5.093757 -0.156624 0
M  V30 47 H -2.630283 -5.592638 -1.256839 0
M  V30 48 H -2.398697 -4.540716 1.618314 0
M  V30 49 H -1.534590 -5.850415 0.806182 0
M  V30 END ATOM
M  V30 BEGIN BOND
M  V30 1 2 1 2
M  V30 2 1 2 3
M  V30 3 1 3 4
M  V30 4 1 4 5
M  V30 5 2 5 6
M  V30 6 1 6 7
M  V30 7 1 7 8
M  V30 8 2 8 9
M  V30 9 1 9 10
M  V30 10 2 10 11
M  V30 11 1 11 12
M  V30 12 2 12 13
M  V30 13 1 7 14
M  V30 14 2 14 15
M  V30 15 1 15 16
M  V30 16 1 16 17
M  V30 17 2 16 18
M  V30 18 1 18 19
M  V30 19 2 19 20
M  V30 20 1 20 21
M  V30 21 2 21 22
M  V30 22 1 2 23
M  V30 23 1 23 24
M  V30 24 1 24 25
M  V30 25 1 25 26
M  V30 26 1 26 27
M  V30 27 1 27 28
M  V30 28 1 21 5
M  V30 29 1 28 23
M  V30 30 1 13 8
M  V30 31 1 20 14
M  V30 32 1 3 29
M  V30 33 1 4 30
M  V30 34 1 4 31
M  V30 35 1 6 32
M  V30 36 1 9 33
M  V30 37 1 10 34
M  V30 38 1 11 35
M  V30 39 1 12 36
M  V30 40 1 13 37
M  V30 41 1 15 38
M  V30 42 1 18 39
M  V30 43 1 19 40
M  V30 44 1 24 41
M  V30 45 1 24 42
M  V30 46 1 25 43
M  V30 47 1 25 44
M  V30 48 1 26 45
M  V30 49 1 27 46
M  V30 50 1 27 47
M  V30 51 1 28 48
M  V30 52 1 28 49
M  V30 END BOND
M  V30 END CTAB
M  END
>  <Dataset>  (834) 
ChEMBL_Kinases

>  <Ligand_Instance>  (834) 
nan

>  <PDB_ID>  (834) 
nan

>  <Standardized_SMILES>  (834) 
O=C(NCc1cn(-c2ccccc2)c2cc(Cl)ccc2c1=O)N1CCNCC1

>  <Name>  (834) 
nan

>  <Pocket>  (834) 
nan

>  <ATP_Site>  (834) 
nan

>  <Peripheral>  (834) 
nan

>  <Num_H_Atoms_ProtBoundConf>  (834) 
nan

>  <Num_Resolved_Atoms>  (834) 
nan

>  <Num_Not_Resolved_Atoms>  (834) 
nan

$$$$
CHEMBL3640047
     RDKit          3D

  0  0  0  0  0  0  0  0  0  0999 V3000
M  V30 BEGIN CTAB
M  V30 COUNTS 59 62 0 0 0
M  V30 BEGIN ATOM
M  V30 1 C 7.554302 0.430145 5.025795 0
M  V30 2 O 6.173984 0.544407 4.833308 0
M  V30 3 C 5.425567 -0.523163 4.356478 0
M  V30 4 O 6.214406 -1.501131 4.166107 0
M  V30 5 C 3.964490 -0.181493 4.224406 0 CFG=1
M  V30 6 C 3.893791 0.968949 3.266973 0
M  V30 7 C 4.216512 0.463759 1.884860 0
M  V30 8 C 3.094605 -0.437746 1.484640 0 CFG=2
M  V30 9 N 1.888337 0.346478 1.351523 0
M  V30 10 C 1.234310 0.463245 0.103937 0
M  V30 11 O 1.755706 -0.144730 -0.849491 0
M  V30 12 N 0.059685 1.192832 -0.164274 0
M  V30 13 C -0.807102 1.475063 -1.276728 0
M  V30 14 C -1.488222 0.307857 -1.860658 0
M  V30 15 C -2.786320 0.056143 -1.383885 0
M  V30 16 N -3.607255 -0.960698 -1.727621 0
M  V30 17 C -4.891395 -1.092659 -1.160764 0
M  V30 18 C -6.145050 -0.962309 -1.713349 0
M  V30 19 C -7.303013 -1.130173 -0.991119 0
M  V30 20 C -7.193458 -1.447379 0.363972 0
M  V30 21 C -5.954579 -1.585393 0.948996 0
M  V30 22 C -4.785746 -1.410927 0.198829 0
M  V30 23 C -3.181175 -1.864118 -2.626138 0
M  V30 24 C -3.959228 -2.926563 -3.024727 0
M  V30 25 C -3.477281 -3.843909 -3.961378 0
M  V30 26 Cl -4.480720 -5.187322 -4.454869 0
M  V30 27 C -2.203864 -3.630561 -4.455202 0
M  V30 28 C -1.402581 -2.571600 -4.071225 0
M  V30 29 C -1.920773 -1.686924 -3.140432 0
M  V30 30 C -1.101798 -0.643773 -2.776557 0
M  V30 31 O 0.045905 -0.487867 -3.254244 0
M  V30 32 C 2.887074 -1.594862 2.423420 0
M  V30 33 C 3.161499 -1.372720 3.843733 0
M  V30 34 H 7.844006 1.286395 5.696729 0
M  V30 35 H 7.731609 -0.527671 5.565863 0
M  V30 36 H 8.154086 0.536174 4.105193 0
M  V30 37 H 3.672298 0.206677 5.222832 0
M  V30 38 H 2.959529 1.530400 3.349669 0
M  V30 39 H 4.728540 1.665498 3.565830 0
M  V30 40 H 5.190172 -0.084929 1.988347 0
M  V30 41 H 4.316314 1.273856 1.145303 0
M  V30 42 H 3.349414 -0.822799 0.463209 0
M  V30 43 H 1.468494 0.842996 2.165965 0
M  V30 44 H -0.244564 1.657496 0.753787 0
M  V30 45 H -0.140666 1.967769 -2.047972 0
M  V30 46 H -1.578738 2.187830 -0.938021 0
M  V30 47 H -3.221829 0.736073 -0.649468 0
M  V30 48 H -6.101450 -0.714427 -2.769631 0
M  V30 49 H -8.245447 -1.008834 -1.507134 0
M  V30 50 H -8.143501 -1.566565 0.879219 0
M  V30 51 H -5.921199 -1.834600 2.012046 0
M  V30 52 H -3.878533 -1.547473 0.777199 0
M  V30 53 H -4.945216 -3.024724 -2.592184 0
M  V30 54 H -1.888955 -4.373433 -5.175155 0
M  V30 55 H -0.417020 -2.536208 -4.550054 0
M  V30 56 H 1.806461 -1.889974 2.266261 0
M  V30 57 H 3.454033 -2.454640 2.005930 0
M  V30 58 H 3.654497 -2.271425 4.278876 0
M  V30 59 H 2.185921 -1.309262 4.412592 0
M  V30 END ATOM
M  V30 BEGIN BOND
M  V30 1 1 1 2
M  V30 2 1 2 3
M  V30 3 2 3 4
M  V30 4 1 3 5
M  V30 5 1 5 6
M  V30 6 1 6 7
M  V30 7 1 7 8
M  V30 8 1 8 9
M  V30 9 1 9 10
M  V30 10 2 10 11
M  V30 11 1 10 12
M  V30 12 1 12 13
M  V30 13 1 13 14
M  V30 14 2 14 15
M  V30 15 1 15 16
M  V30 16 1 16 17
M  V30 17 2 17 18
M  V30 18 1 18 19
M  V30 19 2 19 20
M  V30 20 1 20 21
M  V30 21 2 21 22
M  V30 22 1 16 23
M  V30 23 2 23 24
M  V30 24 1 24 25
M  V30 25 1 25 26
M  V30 26 2 25 27
M  V30 27 1 27 28
M  V30 28 2 28 29
M  V30 29 1 29 30
M  V30 30 2 30 31
M  V30 31 1 8 32
M  V30 32 1 32 33
M  V30 33 1 33 5
M  V30 34 1 30 14
M  V30 35 1 22 17
M  V30 36 1 29 23
M  V30 37 1 1 34
M  V30 38 1 1 35
M  V30 39 1 1 36
M  V30 40 1 5 37 CFG=1
M  V30 41 1 6 38
M  V30 42 1 6 39
M  V30 43 1 7 40
M  V30 44 1 7 41
M  V30 45 1 8 42 CFG=3
M  V30 46 1 9 43
M  V30 47 1 12 44
M  V30 48 1 13 45
M  V30 49 1 13 46
M  V30 50 1 15 47
M  V30 51 1 18 48
M  V30 52 1 19 49
M  V30 53 1 20 50
M  V30 54 1 21 51
M  V30 55 1 22 52
M  V30 56 1 24 53
M  V30 57 1 27 54
M  V30 58 1 28 55
M  V30 59 1 32 56
M  V30 60 1 32 57
M  V30 61 1 33 58
M  V30 62 1 33 59
M  V30 END BOND
M  V30 END CTAB
M  END
>  <Dataset>  (835) 
ChEMBL_Kinases

>  <Ligand_Instance>  (835) 
nan

>  <PDB_ID>  (835) 
nan

>  <Standardized_SMILES>  (835) 
COC(=O)[C@H]1CC[C@H](NC(=O)NCc2cn(-c3ccccc3)c3cc(Cl)ccc3c2=O)CC1

>  <Name>  (835) 
nan

>  <Pocket>  (835) 
nan

>  <ATP_Site>  (835) 
nan

>  <Peripheral>  (835) 
nan

>  <Num_H_Atoms_ProtBoundConf>  (835) 
nan

>  <Num_Resolved_Atoms>  (835) 
nan

>  <Num_Not_Resolved_Atoms>  (835) 
nan

$$$$
CHEMBL3640048
     RDKit          3D

  0  0  0  0  0  0  0  0  0  0999 V3000
M  V30 BEGIN CTAB
M  V30 COUNTS 60 64 0 0 0
M  V30 BEGIN ATOM
M  V30 1 O 0.592263 -4.349516 1.317603 0
M  V30 2 C -0.245890 -3.424031 1.161660 0
M  V30 3 N -0.242163 -2.117556 1.693567 0
M  V30 4 C 0.901230 -1.817836 2.534585 0
M  V30 5 C 0.780098 -0.404599 3.023947 0
M  V30 6 C 1.592405 0.545302 2.394513 0
M  V30 7 N 1.503267 1.819258 2.811031 0
M  V30 8 C 2.365566 2.736313 2.118971 0
M  V30 9 C 3.531701 3.254350 2.635530 0
M  V30 10 C 4.289047 4.131805 1.881358 0
M  V30 11 C 3.914146 4.520553 0.596765 0
M  V30 12 C 2.729344 3.958465 0.143959 0
M  V30 13 C 1.927462 3.079344 0.841886 0
M  V30 14 C 0.673765 2.225959 3.801120 0
M  V30 15 C 0.674220 3.561040 4.141646 0
M  V30 16 C -0.195762 3.885710 5.159132 0
M  V30 17 Cl -0.247521 5.579805 5.650516 0
M  V30 18 C -1.040177 3.042983 5.850695 0
M  V30 19 C -0.953659 1.713293 5.417555 0
M  V30 20 C -0.119275 1.277075 4.410104 0
M  V30 21 C -0.081087 -0.046169 4.035397 0
M  V30 22 O -0.797708 -0.901661 4.585986 0
M  V30 23 N -1.317153 -3.830232 0.316930 0
M  V30 24 C -1.325688 -5.193450 -0.239831 0
M  V30 25 C -1.161904 -5.075557 -1.753455 0
M  V30 26 C -2.203593 -4.163958 -2.311896 0
M  V30 27 C -1.931820 -3.889353 -3.747326 0
M  V30 28 C -2.776430 -4.187077 -4.795798 0
M  V30 29 C -2.355916 -3.860116 -6.056584 0
M  V30 30 C -1.162190 -3.257473 -6.389186 0
M  V30 31 C -0.339484 -2.973471 -5.307365 0
M  V30 32 C -0.720761 -3.285847 -4.005147 0
M  V30 33 C -2.209152 -2.823386 -1.610340 0
M  V30 34 C -2.491076 -3.093115 -0.139166 0
M  V30 35 H -1.015278 -1.451443 1.476880 0
M  V30 36 H 1.825112 -1.947873 1.950955 0
M  V30 37 H 0.878342 -2.463244 3.442946 0
M  V30 38 H 2.255301 0.229468 1.605826 0
M  V30 39 H 3.797423 2.940067 3.623780 0
M  V30 40 H 5.217628 4.543341 2.294151 0
M  V30 41 H 4.471724 5.197730 -0.021647 0
M  V30 42 H 2.416048 4.249571 -0.861702 0
M  V30 43 H 1.033265 2.716533 0.376266 0
M  V30 44 H 1.287079 4.316916 3.676644 0
M  V30 45 H -1.688827 3.372251 6.631973 0
M  V30 46 H -1.575863 0.963045 5.893267 0
M  V30 47 H -2.287533 -5.634621 0.010292 0
M  V30 48 H -0.527422 -5.788760 0.212489 0
M  V30 49 H -1.301998 -6.096450 -2.155782 0
M  V30 50 H -0.131147 -4.744383 -1.993458 0
M  V30 51 H -3.182672 -4.636639 -2.139676 0
M  V30 52 H -3.715127 -4.658878 -4.556599 0
M  V30 53 H -3.041753 -4.106873 -6.859257 0
M  V30 54 H -0.869170 -3.017358 -7.395489 0
M  V30 55 H 0.616807 -2.497017 -5.508116 0
M  V30 56 H -0.003441 -3.019468 -3.249294 0
M  V30 57 H -2.900807 -2.116266 -2.060666 0
M  V30 58 H -1.142926 -2.454172 -1.631965 0
M  V30 59 H -2.619066 -2.147316 0.425397 0
M  V30 60 H -3.395126 -3.729978 -0.090703 0
M  V30 END ATOM
M  V30 BEGIN BOND
M  V30 1 2 1 2
M  V30 2 1 2 3
M  V30 3 1 3 4
M  V30 4 1 4 5
M  V30 5 2 5 6
M  V30 6 1 6 7
M  V30 7 1 7 8
M  V30 8 2 8 9
M  V30 9 1 9 10
M  V30 10 2 10 11
M  V30 11 1 11 12
M  V30 12 2 12 13
M  V30 13 1 7 14
M  V30 14 2 14 15
M  V30 15 1 15 16
M  V30 16 1 16 17
M  V30 17 2 16 18
M  V30 18 1 18 19
M  V30 19 2 19 20
M  V30 20 1 20 21
M  V30 21 2 21 22
M  V30 22 1 2 23
M  V30 23 1 23 24
M  V30 24 1 24 25
M  V30 25 1 25 26
M  V30 26 1 26 27
M  V30 27 2 27 28
M  V30 28 1 28 29
M  V30 29 2 29 30
M  V30 30 1 30 31
M  V30 31 2 31 32
M  V30 32 1 26 33
M  V30 33 1 33 34
M  V30 34 1 21 5
M  V30 35 1 34 23
M  V30 36 1 13 8
M  V30 37 1 20 14
M  V30 38 1 32 27
M  V30 39 1 3 35
M  V30 40 1 4 36
M  V30 41 1 4 37
M  V30 42 1 6 38
M  V30 43 1 9 39
M  V30 44 1 10 40
M  V30 45 1 11 41
M  V30 46 1 12 42
M  V30 47 1 13 43
M  V30 48 1 15 44
M  V30 49 1 18 45
M  V30 50 1 19 46
M  V30 51 1 24 47
M  V30 52 1 24 48
M  V30 53 1 25 49
M  V30 54 1 25 50
M  V30 55 1 26 51
M  V30 56 1 28 52
M  V30 57 1 29 53
M  V30 58 1 30 54
M  V30 59 1 31 55
M  V30 60 1 32 56
M  V30 61 1 33 57
M  V30 62 1 33 58
M  V30 63 1 34 59
M  V30 64 1 34 60
M  V30 END BOND
M  V30 END CTAB
M  END
>  <Dataset>  (836) 
ChEMBL_Kinases

>  <Ligand_Instance>  (836) 
nan

>  <PDB_ID>  (836) 
nan

>  <Standardized_SMILES>  (836) 
O=C(NCc1cn(-c2ccccc2)c2cc(Cl)ccc2c1=O)N1CCC(c2ccccc2)CC1

>  <Name>  (836) 
nan

>  <Pocket>  (836) 
nan

>  <ATP_Site>  (836) 
nan

>  <Peripheral>  (836) 
nan

>  <Num_H_Atoms_ProtBoundConf>  (836) 
nan

>  <Num_Resolved_Atoms>  (836) 
nan

>  <Num_Not_Resolved_Atoms>  (836) 
nan

$$$$
CHEMBL3640049
     RDKit          3D

  0  0  0  0  0  0  0  0  0  0999 V3000
M  V30 BEGIN CTAB
M  V30 COUNTS 62 67 0 0 0
M  V30 BEGIN ATOM
M  V30 1 O 0.275881 -1.605404 1.564351 0
M  V30 2 C -0.957588 -1.593034 1.745556 0
M  V30 3 N -1.444324 -0.933685 2.886824 0
M  V30 4 C -0.584600 -0.262299 3.872256 0
M  V30 5 C 0.184581 0.814103 3.189604 0
M  V30 6 C 1.514043 0.767048 2.835739 0
M  V30 7 N 2.036352 1.833139 2.227057 0
M  V30 8 C 3.410670 1.803347 1.853045 0
M  V30 9 C 4.488447 2.045252 2.693931 0
M  V30 10 C 5.767038 1.969235 2.139661 0
M  V30 11 C 5.983391 1.669894 0.821081 0
M  V30 12 C 4.889396 1.429485 -0.010476 0
M  V30 13 C 3.616299 1.500387 0.521001 0
M  V30 14 C 1.319221 2.935939 1.951392 0
M  V30 15 C 1.927920 4.015989 1.312412 0
M  V30 16 C 1.164343 5.128430 1.045710 0
M  V30 17 Cl 1.916453 6.506919 0.237158 0
M  V30 18 C -0.171797 5.255349 1.366875 0
M  V30 19 C -0.775501 4.183287 2.000984 0
M  V30 20 C -0.023928 3.057876 2.276688 0
M  V30 21 C -0.582854 1.949212 2.914100 0
M  V30 22 O -1.801152 2.065215 3.206828 0
M  V30 23 N -1.855566 -2.228597 0.823903 0
M  V30 24 C -1.402555 -2.907627 -0.345243 0
M  V30 25 C -1.764416 -4.371877 -0.183234 0
M  V30 26 C -1.094268 -5.259787 -1.177192 0
M  V30 27 C -1.446362 -4.754088 -2.548967 0
M  V30 28 C -1.207244 -3.280861 -2.718425 0
M  V30 29 C -1.943789 -2.456693 -1.655502 0
M  V30 30 C -3.406610 -2.714133 -1.831593 0
M  V30 31 C -3.674681 -4.204629 -1.725194 0
M  V30 32 O -5.032979 -4.402343 -1.916018 0
M  V30 33 C -2.923689 -4.997308 -2.756544 0
M  V30 34 C -3.257380 -4.582284 -0.307127 0
M  V30 35 H -2.500995 -0.943165 3.008988 0
M  V30 36 H 0.088587 -0.972742 4.389349 0
M  V30 37 H -1.246487 0.190537 4.637013 0
M  V30 38 H 2.039325 -0.135828 3.078827 0
M  V30 39 H 4.245361 2.273893 3.714655 0
M  V30 40 H 6.579631 2.164457 2.828606 0
M  V30 41 H 7.001677 1.631991 0.476619 0
M  V30 42 H 5.150908 1.203031 -1.025385 0
M  V30 43 H 2.832451 1.298988 -0.199074 0
M  V30 44 H 2.976550 3.968161 1.037889 0
M  V30 45 H -0.757929 6.135117 1.150967 0
M  V30 46 H -1.830688 4.227702 2.278795 0
M  V30 47 H -2.899080 -2.202676 1.002681 0
M  V30 48 H -0.289345 -2.857616 -0.409205 0
M  V30 49 H -1.506470 -4.639405 0.874903 0
M  V30 50 H -0.018563 -5.278349 -0.981338 0
M  V30 51 H -1.547514 -6.266475 -1.057667 0
M  V30 52 H -0.796643 -5.272680 -3.258947 0
M  V30 53 H -0.150264 -2.972390 -2.640529 0
M  V30 54 H -1.662960 -2.999894 -3.692245 0
M  V30 55 H -1.726047 -1.420021 -1.940821 0
M  V30 56 H -3.761080 -2.268275 -2.758625 0
M  V30 57 H -3.905393 -2.272921 -0.920562 0
M  V30 58 H -5.523426 -3.561315 -2.105688 0
M  V30 59 H -3.184352 -4.605431 -3.744501 0
M  V30 60 H -3.220438 -6.047806 -2.640829 0
M  V30 61 H -3.474362 -5.626274 -0.091307 0
M  V30 62 H -3.856387 -3.948309 0.360499 0
M  V30 END ATOM
M  V30 BEGIN BOND
M  V30 1 2 1 2
M  V30 2 1 2 3
M  V30 3 1 3 4
M  V30 4 1 4 5
M  V30 5 2 5 6
M  V30 6 1 6 7
M  V30 7 1 7 8
M  V30 8 2 8 9
M  V30 9 1 9 10
M  V30 10 2 10 11
M  V30 11 1 11 12
M  V30 12 2 12 13
M  V30 13 1 7 14
M  V30 14 2 14 15
M  V30 15 1 15 16
M  V30 16 1 16 17
M  V30 17 2 16 18
M  V30 18 1 18 19
M  V30 19 2 19 20
M  V30 20 1 20 21
M  V30 21 2 21 22
M  V30 22 1 2 23
M  V30 23 1 23 24
M  V30 24 1 24 25
M  V30 25 1 25 26
M  V30 26 1 26 27
M  V30 27 1 27 28
M  V30 28 1 28 29
M  V30 29 1 29 30
M  V30 30 1 30 31
M  V30 31 1 31 32
M  V30 32 1 31 33
M  V30 33 1 31 34
M  V30 34 1 21 5
M  V30 35 1 29 24
M  V30 36 1 13 8
M  V30 37 1 20 14
M  V30 38 1 34 25
M  V30 39 1 33 27
M  V30 40 1 3 35
M  V30 41 1 4 36
M  V30 42 1 4 37
M  V30 43 1 6 38
M  V30 44 1 9 39
M  V30 45 1 10 40
M  V30 46 1 11 41
M  V30 47 1 12 42
M  V30 48 1 13 43
M  V30 49 1 15 44
M  V30 50 1 18 45
M  V30 51 1 19 46
M  V30 52 1 23 47
M  V30 53 1 24 48
M  V30 54 1 25 49
M  V30 55 1 26 50
M  V30 56 1 26 51
M  V30 57 1 27 52
M  V30 58 1 28 53
M  V30 59 1 28 54
M  V30 60 1 29 55
M  V30 61 1 30 56
M  V30 62 1 30 57
M  V30 63 1 32 58
M  V30 64 1 33 59
M  V30 65 1 33 60
M  V30 66 1 34 61
M  V30 67 1 34 62
M  V30 END BOND
M  V30 END CTAB
M  END
>  <Dataset>  (837) 
ChEMBL_Kinases

>  <Ligand_Instance>  (837) 
nan

>  <PDB_ID>  (837) 
nan

>  <Standardized_SMILES>  (837) 
O=C(NCc1cn(-c2ccccc2)c2cc(Cl)ccc2c1=O)NC1C2CC3CC1CC(O)(C3)C2

>  <Name>  (837) 
nan

>  <Pocket>  (837) 
nan

>  <ATP_Site>  (837) 
nan

>  <Peripheral>  (837) 
nan

>  <Num_H_Atoms_ProtBoundConf>  (837) 
nan

>  <Num_Resolved_Atoms>  (837) 
nan

>  <Num_Not_Resolved_Atoms>  (837) 
nan

$$$$
CHEMBL3640059
     RDKit          3D

  0  0  0  0  0  0  0  0  0  0999 V3000
M  V30 BEGIN CTAB
M  V30 COUNTS 47 50 0 0 0
M  V30 BEGIN ATOM
M  V30 1 O -2.580991 -2.156838 1.170304 0
M  V30 2 C -2.264318 -2.299573 -0.031721 0
M  V30 3 N -1.958977 -1.154235 -0.754847 0
M  V30 4 C -1.862362 0.276356 -0.594690 0
M  V30 5 C -0.849785 0.739360 0.353763 0
M  V30 6 C 0.322058 1.116680 -0.319166 0
M  V30 7 N 1.438204 1.567980 0.325146 0
M  V30 8 C 2.624951 1.952424 -0.339175 0
M  V30 9 C 2.925793 3.307806 -0.349426 0
M  V30 10 C 4.063799 3.804605 -0.971248 0
M  V30 11 C 4.946388 2.933656 -1.611881 0
M  V30 12 C 4.649129 1.572478 -1.604753 0
M  V30 13 C 3.513030 1.099643 -0.980916 0
M  V30 14 C 1.472650 1.676322 1.664842 0
M  V30 15 C 2.548302 2.118520 2.398674 0
M  V30 16 C 2.468877 2.187192 3.764529 0
M  V30 17 Cl 3.820702 2.747314 4.732624 0
M  V30 18 C 1.351672 1.833230 4.476594 0
M  V30 19 C 0.249294 1.381481 3.746876 0
M  V30 20 C 0.341458 1.316020 2.363433 0
M  V30 21 C -0.780909 0.862899 1.718418 0
M  V30 22 O -1.838828 0.523660 2.294932 0
M  V30 23 N -2.262658 -3.630671 -0.490015 0
M  V30 24 C -2.633303 -4.575208 0.538476 0
M  V30 25 C -3.996546 -4.807644 0.579599 0
M  V30 26 C -4.449865 -5.706348 1.541133 0
M  V30 27 C -3.522303 -6.294262 2.374251 0
M  V30 28 C -2.160399 -6.067329 2.339188 0
M  V30 29 C -1.722966 -5.174819 1.382107 0
M  V30 30 H -1.714956 -1.442909 -1.757263 0
M  V30 31 H -1.871060 0.803915 -1.545129 0
M  V30 32 H -2.878558 0.552495 -0.131461 0
M  V30 33 H 0.481530 1.097220 -1.399314 0
M  V30 34 H 2.283196 4.025648 0.127739 0
M  V30 35 H 4.271287 4.866619 -0.961804 0
M  V30 36 H 5.834369 3.317327 -2.097744 0
M  V30 37 H 5.318962 0.871985 -2.096055 0
M  V30 38 H 3.258171 0.051746 -0.959379 0
M  V30 39 H 3.431817 2.401878 1.881958 0
M  V30 40 H 1.228649 1.865616 5.554539 0
M  V30 41 H -0.652549 1.091830 4.268673 0
M  V30 42 H -2.000041 -3.792348 -1.500685 0
M  V30 43 H -4.715155 -4.350502 -0.066672 0
M  V30 44 H -5.503202 -5.961554 1.659070 0
M  V30 45 H -3.877574 -7.002962 3.132901 0
M  V30 46 H -1.483329 -6.560902 3.021271 0
M  V30 47 H -0.673570 -4.930071 1.273898 0
M  V30 END ATOM
M  V30 BEGIN BOND
M  V30 1 2 1 2
M  V30 2 1 2 3
M  V30 3 1 3 4
M  V30 4 1 4 5
M  V30 5 2 5 6
M  V30 6 1 6 7
M  V30 7 1 7 8
M  V30 8 2 8 9
M  V30 9 1 9 10
M  V30 10 2 10 11
M  V30 11 1 11 12
M  V30 12 2 12 13
M  V30 13 1 7 14
M  V30 14 2 14 15
M  V30 15 1 15 16
M  V30 16 1 16 17
M  V30 17 2 16 18
M  V30 18 1 18 19
M  V30 19 2 19 20
M  V30 20 1 20 21
M  V30 21 2 21 22
M  V30 22 1 2 23
M  V30 23 1 23 24
M  V30 24 2 24 25
M  V30 25 1 25 26
M  V30 26 2 26 27
M  V30 27 1 27 28
M  V30 28 2 28 29
M  V30 29 1 21 5
M  V30 30 1 29 24
M  V30 31 1 13 8
M  V30 32 1 20 14
M  V30 33 1 3 30
M  V30 34 1 4 31
M  V30 35 1 4 32
M  V30 36 1 6 33
M  V30 37 1 9 34
M  V30 38 1 10 35
M  V30 39 1 11 36
M  V30 40 1 12 37
M  V30 41 1 13 38
M  V30 42 1 15 39
M  V30 43 1 18 40
M  V30 44 1 19 41
M  V30 45 1 23 42
M  V30 46 1 25 43
M  V30 47 1 26 44
M  V30 48 1 27 45
M  V30 49 1 28 46
M  V30 50 1 29 47
M  V30 END BOND
M  V30 END CTAB
M  END
>  <Dataset>  (838) 
ChEMBL_Kinases

>  <Ligand_Instance>  (838) 
nan

>  <PDB_ID>  (838) 
nan

>  <Standardized_SMILES>  (838) 
O=C(NCc1cn(-c2ccccc2)c2cc(Cl)ccc2c1=O)Nc1ccccc1

>  <Name>  (838) 
nan

>  <Pocket>  (838) 
nan

>  <ATP_Site>  (838) 
nan

>  <Peripheral>  (838) 
nan

>  <Num_H_Atoms_ProtBoundConf>  (838) 
nan

>  <Num_Resolved_Atoms>  (838) 
nan

>  <Num_Not_Resolved_Atoms>  (838) 
nan

$$$$
CHEMBL3640051
     RDKit          3D

  0  0  0  0  0  0  0  0  0  0999 V3000
M  V30 BEGIN CTAB
M  V30 COUNTS 65 69 0 0 0
M  V30 BEGIN ATOM
M  V30 1 O -3.816485 0.199218 -1.217596 0
M  V30 2 C -2.998572 -0.721923 -1.121719 0
M  V30 3 N -2.191890 -0.987969 -2.227677 0
M  V30 4 C -1.935053 -0.525880 -3.565352 0
M  V30 5 C -1.410787 0.858823 -3.528856 0
M  V30 6 C -0.008801 0.883270 -3.559850 0
M  V30 7 N 0.769356 1.988829 -3.507940 0
M  V30 8 C 2.167137 1.980884 -3.541958 0
M  V30 9 C 2.930590 1.856971 -4.690115 0
M  V30 10 C 4.300282 1.868209 -4.538629 0
M  V30 11 C 4.979360 1.991615 -3.348750 0
M  V30 12 C 4.190572 2.114041 -2.215247 0
M  V30 13 C 2.794457 2.109404 -2.305831 0
M  V30 14 C 0.180151 3.196129 -3.417653 0
M  V30 15 C 0.889369 4.378877 -3.357995 0
M  V30 16 C 0.217243 5.584349 -3.265434 0
M  V30 17 Cl 1.200891 7.033973 -3.194645 0
M  V30 18 C -1.149174 5.586766 -3.233960 0
M  V30 19 C -1.904005 4.415195 -3.291876 0
M  V30 20 C -1.196708 3.231472 -3.384051 0
M  V30 21 C -1.980886 2.101703 -3.438025 0
M  V30 22 O -3.228791 2.091664 -3.414800 0
M  V30 23 N -2.975913 -1.408304 0.116688 0
M  V30 24 C -3.881748 -1.008839 1.165789 0
M  V30 25 C -3.040301 -0.404798 2.272233 0
M  V30 26 C -2.090427 -1.409962 2.868667 0
M  V30 27 N -2.607009 -2.772452 2.717644 0
M  V30 28 C -1.648249 -3.799281 2.553714 0
M  V30 29 O -0.459140 -3.356782 2.562872 0
M  V30 30 O -0.742916 -4.819374 2.392641 0
M  V30 31 C 0.647950 -4.588073 2.367390 0
M  V30 32 C 1.055458 -4.338030 1.066023 0
M  V30 33 C 2.379037 -4.074272 0.736523 0
M  V30 34 C 3.293889 -4.070610 1.778655 0
M  V30 35 C 2.881302 -4.319881 3.067756 0
M  V30 36 C 1.568744 -4.581385 3.393422 0
M  V30 37 C -4.032131 -2.939061 2.744615 0
M  V30 38 C -4.727738 -2.145799 1.660482 0
M  V30 39 H -1.554643 -1.812133 -1.985850 0
M  V30 40 H -1.290498 -1.214682 -4.100471 0
M  V30 41 H -2.923878 -0.525445 -4.142682 0
M  V30 42 H 0.616121 -0.019448 -3.631520 0
M  V30 43 H 2.428943 1.758643 -5.639127 0
M  V30 44 H 4.875182 1.768604 -5.457648 0
M  V30 45 H 6.060244 1.990767 -3.315190 0
M  V30 46 H 4.664163 2.216269 -1.235086 0
M  V30 47 H 2.266698 2.209121 -1.376153 0
M  V30 48 H 1.969351 4.321752 -3.387387 0
M  V30 49 H -1.624462 6.562713 -3.160235 0
M  V30 50 H -2.993945 4.487562 -3.261163 0
M  V30 51 H -2.303539 -2.187443 0.240649 0
M  V30 52 H -4.544679 -0.188493 0.803883 0
M  V30 53 H -2.491564 0.450924 1.841104 0
M  V30 54 H -3.754091 -0.007636 3.039280 0
M  V30 55 H -1.915674 -1.218024 3.933271 0
M  V30 56 H -1.110694 -1.337468 2.336043 0
M  V30 57 H 0.421753 -4.314391 0.169810 0
M  V30 58 H 2.743402 -3.874039 -0.252935 0
M  V30 59 H 4.343419 -3.873611 1.612564 0
M  V30 60 H 3.558946 -4.327935 3.912242 0
M  V30 61 H 1.116324 -4.788795 4.340414 0
M  V30 62 H -4.453660 -2.692524 3.748415 0
M  V30 63 H -4.255743 -4.009764 2.560016 0
M  V30 64 H -5.652894 -1.697411 2.076512 0
M  V30 65 H -5.025320 -2.768967 0.788525 0
M  V30 END ATOM
M  V30 BEGIN BOND
M  V30 1 2 1 2
M  V30 2 1 2 3
M  V30 3 1 3 4
M  V30 4 1 4 5
M  V30 5 2 5 6
M  V30 6 1 6 7
M  V30 7 1 7 8
M  V30 8 2 8 9
M  V30 9 1 9 10
M  V30 10 2 10 11
M  V30 11 1 11 12
M  V30 12 2 12 13
M  V30 13 1 7 14
M  V30 14 2 14 15
M  V30 15 1 15 16
M  V30 16 1 16 17
M  V30 17 2 16 18
M  V30 18 1 18 19
M  V30 19 2 19 20
M  V30 20 1 20 21
M  V30 21 2 21 22
M  V30 22 1 2 23
M  V30 23 1 23 24
M  V30 24 1 24 25
M  V30 25 1 25 26
M  V30 26 1 26 27
M  V30 27 1 27 28
M  V30 28 2 28 29
M  V30 29 1 28 30
M  V30 30 1 30 31
M  V30 31 2 31 32
M  V30 32 1 32 33
M  V30 33 2 33 34
M  V30 34 1 34 35
M  V30 35 2 35 36
M  V30 36 1 27 37
M  V30 37 1 37 38
M  V30 38 1 21 5
M  V30 39 1 38 24
M  V30 40 1 13 8
M  V30 41 1 20 14
M  V30 42 1 36 31
M  V30 43 1 3 39
M  V30 44 1 4 40
M  V30 45 1 4 41
M  V30 46 1 6 42
M  V30 47 1 9 43
M  V30 48 1 10 44
M  V30 49 1 11 45
M  V30 50 1 12 46
M  V30 51 1 13 47
M  V30 52 1 15 48
M  V30 53 1 18 49
M  V30 54 1 19 50
M  V30 55 1 23 51
M  V30 56 1 24 52
M  V30 57 1 25 53
M  V30 58 1 25 54
M  V30 59 1 26 55
M  V30 60 1 26 56
M  V30 61 1 32 57
M  V30 62 1 33 58
M  V30 63 1 34 59
M  V30 64 1 35 60
M  V30 65 1 36 61
M  V30 66 1 37 62
M  V30 67 1 37 63
M  V30 68 1 38 64
M  V30 69 1 38 65
M  V30 END BOND
M  V30 END CTAB
M  END
>  <Dataset>  (839) 
ChEMBL_Kinases

>  <Ligand_Instance>  (839) 
nan

>  <PDB_ID>  (839) 
nan

>  <Standardized_SMILES>  (839) 
O=C(NCc1cn(-c2ccccc2)c2cc(Cl)ccc2c1=O)NC1CCN(C(=O)Oc2ccccc2)CC1

>  <Name>  (839) 
nan

>  <Pocket>  (839) 
nan

>  <ATP_Site>  (839) 
nan

>  <Peripheral>  (839) 
nan

>  <Num_H_Atoms_ProtBoundConf>  (839) 
nan

>  <Num_Resolved_Atoms>  (839) 
nan

>  <Num_Not_Resolved_Atoms>  (839) 
nan

$$$$
CHEMBL3640052
     RDKit          3D

  0  0  0  0  0  0  0  0  0  0999 V3000
M  V30 BEGIN CTAB
M  V30 COUNTS 64 68 0 0 0
M  V30 BEGIN ATOM
M  V30 1 O -0.802158 -2.600937 2.873328 0
M  V30 2 C 0.061778 -2.560399 1.994629 0
M  V30 3 N 1.078766 -1.626842 2.144320 0
M  V30 4 C 1.514530 -0.590138 3.041485 0
M  V30 5 C 0.542133 0.521437 3.127909 0
M  V30 6 C 0.868346 1.577101 2.268474 0
M  V30 7 N 0.141879 2.700418 2.124005 0
M  V30 8 C 0.492347 3.757055 1.246921 0
M  V30 9 C 0.427108 3.411035 -0.099004 0
M  V30 10 C 0.744871 4.351454 -1.077395 0
M  V30 11 C 1.128799 5.641103 -0.710354 0
M  V30 12 C 1.192149 5.980616 0.635904 0
M  V30 13 C 0.877953 5.051257 1.607462 0
M  V30 14 C -0.990411 2.887736 2.825103 0
M  V30 15 C -1.817451 3.989350 2.764295 0
M  V30 16 C -2.964202 4.097610 3.522210 0
M  V30 17 Cl -3.931689 5.547876 3.354931 0
M  V30 18 C -3.312811 3.075706 4.378390 0
M  V30 19 C -2.494456 1.951432 4.458810 0
M  V30 20 C -1.354101 1.874272 3.687186 0
M  V30 21 C -0.612876 0.723667 3.838004 0
M  V30 22 O -0.919996 -0.191344 4.606262 0
M  V30 23 N -0.080042 -3.474688 0.925292 0
M  V30 24 C -1.201642 -4.387254 0.917335 0
M  V30 25 C -0.759193 -5.833480 0.841274 0
M  V30 26 C -0.701563 -6.275001 -0.612853 0
M  V30 27 N -0.389439 -5.162917 -1.497014 0
M  V30 28 C 0.817930 -5.090133 -2.247926 0
M  V30 29 O 1.609346 -6.047067 -2.106481 0
M  V30 30 C 0.990680 -3.907763 -3.094305 0
M  V30 31 C 0.145426 -3.509496 -4.115357 0
M  V30 32 C 0.456993 -2.359352 -4.820772 0
M  V30 33 C 1.574682 -1.606341 -4.537921 0
M  V30 34 C 2.400209 -2.031754 -3.510291 0
M  V30 35 C 2.123310 -3.186395 -2.772853 0
M  V30 36 C -1.424651 -4.120650 -1.551231 0
M  V30 37 C -2.148554 -4.061446 -0.246665 0
M  V30 38 H 1.755576 -1.714201 1.312317 0
M  V30 39 H 2.529592 -0.240336 2.800962 0
M  V30 40 H 1.561456 -1.080219 4.064725 0
M  V30 41 H 1.759416 1.588776 1.622724 0
M  V30 42 H 0.139279 2.433176 -0.475264 0
M  V30 43 H 0.700027 4.099360 -2.143959 0
M  V30 44 H 1.382498 6.397243 -1.441027 0
M  V30 45 H 1.487630 6.975671 0.963663 0
M  V30 46 H 0.899325 5.224848 2.658880 0
M  V30 47 H -1.523131 4.778438 2.084975 0
M  V30 48 H -4.217209 3.149135 4.983118 0
M  V30 49 H -2.832835 1.187350 5.154917 0
M  V30 50 H 0.630457 -3.470341 0.163370 0
M  V30 51 H -1.816182 -4.229912 1.821790 0
M  V30 52 H 0.254391 -5.975879 1.301653 0
M  V30 53 H -1.508967 -6.476205 1.344080 0
M  V30 54 H 0.038956 -7.083733 -0.715391 0
M  V30 55 H -1.708618 -6.647267 -0.893823 0
M  V30 56 H -0.711857 -4.132416 -4.294312 0
M  V30 57 H -0.244403 -2.090383 -5.616361 0
M  V30 58 H 1.763652 -0.719384 -5.124229 0
M  V30 59 H 3.288800 -1.421816 -3.294517 0
M  V30 60 H 2.829290 -3.435498 -1.989553 0
M  V30 61 H -0.939518 -3.117552 -1.733130 0
M  V30 62 H -2.135983 -4.306040 -2.367496 0
M  V30 63 H -2.985607 -4.786779 -0.162152 0
M  V30 64 H -2.469571 -3.007143 -0.075354 0
M  V30 END ATOM
M  V30 BEGIN BOND
M  V30 1 2 1 2
M  V30 2 1 2 3
M  V30 3 1 3 4
M  V30 4 1 4 5
M  V30 5 2 5 6
M  V30 6 1 6 7
M  V30 7 1 7 8
M  V30 8 2 8 9
M  V30 9 1 9 10
M  V30 10 2 10 11
M  V30 11 1 11 12
M  V30 12 2 12 13
M  V30 13 1 7 14
M  V30 14 2 14 15
M  V30 15 1 15 16
M  V30 16 1 16 17
M  V30 17 2 16 18
M  V30 18 1 18 19
M  V30 19 2 19 20
M  V30 20 1 20 21
M  V30 21 2 21 22
M  V30 22 1 2 23
M  V30 23 1 23 24
M  V30 24 1 24 25
M  V30 25 1 25 26
M  V30 26 1 26 27
M  V30 27 1 27 28
M  V30 28 2 28 29
M  V30 29 1 28 30
M  V30 30 2 30 31
M  V30 31 1 31 32
M  V30 32 2 32 33
M  V30 33 1 33 34
M  V30 34 2 34 35
M  V30 35 1 27 36
M  V30 36 1 36 37
M  V30 37 1 21 5
M  V30 38 1 37 24
M  V30 39 1 13 8
M  V30 40 1 20 14
M  V30 41 1 35 30
M  V30 42 1 3 38
M  V30 43 1 4 39
M  V30 44 1 4 40
M  V30 45 1 6 41
M  V30 46 1 9 42
M  V30 47 1 10 43
M  V30 48 1 11 44
M  V30 49 1 12 45
M  V30 50 1 13 46
M  V30 51 1 15 47
M  V30 52 1 18 48
M  V30 53 1 19 49
M  V30 54 1 23 50
M  V30 55 1 24 51
M  V30 56 1 25 52
M  V30 57 1 25 53
M  V30 58 1 26 54
M  V30 59 1 26 55
M  V30 60 1 31 56
M  V30 61 1 32 57
M  V30 62 1 33 58
M  V30 63 1 34 59
M  V30 64 1 35 60
M  V30 65 1 36 61
M  V30 66 1 36 62
M  V30 67 1 37 63
M  V30 68 1 37 64
M  V30 END BOND
M  V30 END CTAB
M  END
>  <Dataset>  (840) 
ChEMBL_Kinases

>  <Ligand_Instance>  (840) 
nan

>  <PDB_ID>  (840) 
nan

>  <Standardized_SMILES>  (840) 
O=C(NCc1cn(-c2ccccc2)c2cc(Cl)ccc2c1=O)NC1CCN(C(=O)c2ccccc2)CC1

>  <Name>  (840) 
nan

>  <Pocket>  (840) 
nan

>  <ATP_Site>  (840) 
nan

>  <Peripheral>  (840) 
nan

>  <Num_H_Atoms_ProtBoundConf>  (840) 
nan

>  <Num_Resolved_Atoms>  (840) 
nan

>  <Num_Not_Resolved_Atoms>  (840) 
nan

$$$$
CHEMBL3640053
     RDKit          3D

  0  0  0  0  0  0  0  0  0  0999 V3000
M  V30 BEGIN CTAB
M  V30 COUNTS 68 72 0 0 0
M  V30 BEGIN ATOM
M  V30 1 O 1.927943 -4.608910 1.096540 0
M  V30 2 C 1.150689 -3.644448 0.885366 0
M  V30 3 N 1.702388 -2.449179 0.358407 0
M  V30 4 C 3.099057 -2.233105 0.031587 0
M  V30 5 C 3.187310 -0.811262 -0.469825 0
M  V30 6 C 3.261807 -0.431420 -1.795880 0
M  V30 7 N 3.319627 0.877088 -2.099466 0
M  V30 8 C 3.382026 1.269140 -3.479216 0
M  V30 9 C 2.147682 0.982715 -4.055364 0
M  V30 10 C 1.912626 1.264375 -5.402888 0
M  V30 11 C 2.934583 1.835777 -6.156948 0
M  V30 12 C 4.144153 2.107698 -5.560365 0
M  V30 13 C 4.385678 1.833800 -4.232942 0
M  V30 14 C 3.309369 1.850393 -1.165634 0
M  V30 15 C 3.373369 3.174704 -1.541876 0
M  V30 16 C 3.358382 4.081192 -0.502072 0
M  V30 17 Cl 3.438696 5.789217 -0.944297 0
M  V30 18 C 3.287452 3.809973 0.849143 0
M  V30 19 C 3.225171 2.439943 1.139663 0
M  V30 20 C 3.235450 1.472942 0.158341 0
M  V30 21 C 3.172528 0.150367 0.549284 0
M  V30 22 O 3.105620 -0.149461 1.773897 0
M  V30 23 N -0.210490 -3.789300 1.174596 0
M  V30 24 C -0.844347 -4.979349 1.707793 0
M  V30 25 C -1.740569 -5.578330 0.655236 0
M  V30 26 C -3.118076 -5.029944 0.637417 0
M  V30 27 N -3.300596 -3.920896 1.571650 0
M  V30 28 C -3.786157 -2.645332 1.163378 0
M  V30 29 O -4.039220 -2.538436 -0.062746 0
M  V30 30 O -3.921747 -1.681970 2.154124 0
M  V30 31 C -4.407161 -0.392529 1.755821 0
M  V30 32 C -4.491169 0.484517 2.927254 0
M  V30 33 C -5.657012 0.552432 3.686057 0
M  V30 34 C -5.669501 1.399116 4.778838 0
M  V30 35 C -4.625448 2.186751 5.187436 0
M  V30 36 C -3.460112 2.117251 4.426785 0
M  V30 37 C -3.423474 1.275639 3.326625 0
M  V30 38 C -2.922438 -4.275949 2.944986 0
M  V30 39 C -1.516278 -4.774740 3.027386 0
M  V30 40 H 0.965628 -1.692122 0.219195 0
M  V30 41 H 3.701088 -2.305453 0.961335 0
M  V30 42 H 3.447586 -2.871010 -0.788981 0
M  V30 43 H 3.268875 -1.224402 -2.512119 0
M  V30 44 H 1.260531 0.543856 -3.615854 0
M  V30 45 H 0.993168 1.080661 -5.938020 0
M  V30 46 H 2.793830 2.069580 -7.202782 0
M  V30 47 H 4.998521 2.555199 -6.079014 0
M  V30 48 H 5.266003 1.987162 -3.633336 0
M  V30 49 H 3.431477 3.500452 -2.570253 0
M  V30 50 H 3.283113 4.602486 1.582139 0
M  V30 51 H 3.167375 2.162300 2.197418 0
M  V30 52 H -0.883015 -2.995038 1.010117 0
M  V30 53 H -0.040509 -5.728340 1.866842 0
M  V30 54 H -1.263373 -5.312203 -0.331564 0
M  V30 55 H -1.771348 -6.685191 0.675866 0
M  V30 56 H -3.427944 -4.645708 -0.363089 0
M  V30 57 H -3.858520 -5.804448 0.919874 0
M  V30 58 H -5.306591 -0.450401 1.134189 0
M  V30 59 H -3.581007 0.030359 1.109254 0
M  V30 60 H -6.519851 -0.049417 3.410471 0
M  V30 61 H -6.584317 1.449043 5.368649 0
M  V30 62 H -4.737622 2.818705 6.062196 0
M  V30 63 H -2.621168 2.727372 4.725240 0
M  V30 64 H -2.534853 1.201622 2.720405 0
M  V30 65 H -3.659383 -5.037443 3.273250 0
M  V30 66 H -3.087185 -3.387333 3.610709 0
M  V30 67 H -0.917429 -4.035402 3.595858 0
M  V30 68 H -1.528112 -5.706218 3.628677 0
M  V30 END ATOM
M  V30 BEGIN BOND
M  V30 1 2 1 2
M  V30 2 1 2 3
M  V30 3 1 3 4
M  V30 4 1 4 5
M  V30 5 2 5 6
M  V30 6 1 6 7
M  V30 7 1 7 8
M  V30 8 2 8 9
M  V30 9 1 9 10
M  V30 10 2 10 11
M  V30 11 1 11 12
M  V30 12 2 12 13
M  V30 13 1 7 14
M  V30 14 2 14 15
M  V30 15 1 15 16
M  V30 16 1 16 17
M  V30 17 2 16 18
M  V30 18 1 18 19
M  V30 19 2 19 20
M  V30 20 1 20 21
M  V30 21 2 21 22
M  V30 22 1 2 23
M  V30 23 1 23 24
M  V30 24 1 24 25
M  V30 25 1 25 26
M  V30 26 1 26 27
M  V30 27 1 27 28
M  V30 28 2 28 29
M  V30 29 1 28 30
M  V30 30 1 30 31
M  V30 31 1 31 32
M  V30 32 2 32 33
M  V30 33 1 33 34
M  V30 34 2 34 35
M  V30 35 1 35 36
M  V30 36 2 36 37
M  V30 37 1 27 38
M  V30 38 1 38 39
M  V30 39 1 21 5
M  V30 40 1 39 24
M  V30 41 1 13 8
M  V30 42 1 20 14
M  V30 43 1 37 32
M  V30 44 1 3 40
M  V30 45 1 4 41
M  V30 46 1 4 42
M  V30 47 1 6 43
M  V30 48 1 9 44
M  V30 49 1 10 45
M  V30 50 1 11 46
M  V30 51 1 12 47
M  V30 52 1 13 48
M  V30 53 1 15 49
M  V30 54 1 18 50
M  V30 55 1 19 51
M  V30 56 1 23 52
M  V30 57 1 24 53
M  V30 58 1 25 54
M  V30 59 1 25 55
M  V30 60 1 26 56
M  V30 61 1 26 57
M  V30 62 1 31 58
M  V30 63 1 31 59
M  V30 64 1 33 60
M  V30 65 1 34 61
M  V30 66 1 35 62
M  V30 67 1 36 63
M  V30 68 1 37 64
M  V30 69 1 38 65
M  V30 70 1 38 66
M  V30 71 1 39 67
M  V30 72 1 39 68
M  V30 END BOND
M  V30 END CTAB
M  END
>  <Dataset>  (841) 
ChEMBL_Kinases

>  <Ligand_Instance>  (841) 
nan

>  <PDB_ID>  (841) 
nan

>  <Standardized_SMILES>  (841) 
O=C(NCc1cn(-c2ccccc2)c2cc(Cl)ccc2c1=O)NC1CCN(C(=O)OCc2ccccc2)CC1

>  <Name>  (841) 
nan

>  <Pocket>  (841) 
nan

>  <ATP_Site>  (841) 
nan

>  <Peripheral>  (841) 
nan

>  <Num_H_Atoms_ProtBoundConf>  (841) 
nan

>  <Num_Resolved_Atoms>  (841) 
nan

>  <Num_Not_Resolved_Atoms>  (841) 
nan

$$$$
CHEMBL3640054
     RDKit          3D

  0  0  0  0  0  0  0  0  0  0999 V3000
M  V30 BEGIN CTAB
M  V30 COUNTS 65 69 0 0 0
M  V30 BEGIN ATOM
M  V30 1 O -1.511445 -2.113669 2.626395 0
M  V30 2 C -2.110981 -1.233207 1.970959 0
M  V30 3 N -2.085917 0.080811 2.473135 0
M  V30 4 C -1.552796 0.828098 3.561903 0
M  V30 5 C -0.069519 0.867702 3.628755 0
M  V30 6 C 0.516543 1.987504 3.024172 0
M  V30 7 N 1.850337 2.251507 2.913142 0
M  V30 8 C 2.321933 3.426888 2.271325 0
M  V30 9 C 2.973819 4.486553 2.852598 0
M  V30 10 C 3.376603 5.569459 2.066207 0
M  V30 11 C 3.126356 5.583499 0.718101 0
M  V30 12 C 2.464206 4.520500 0.097740 0
M  V30 13 C 2.071125 3.451953 0.893222 0
M  V30 14 C 2.713876 1.353550 3.433913 0
M  V30 15 C 4.063247 1.600028 3.333627 0
M  V30 16 C 4.910459 0.663202 3.877376 0
M  V30 17 Cl 6.648891 0.938461 3.772206 0
M  V30 18 C 4.430067 -0.477478 4.497717 0
M  V30 19 C 3.059045 -0.684861 4.575332 0
M  V30 20 C 2.191809 0.237956 4.038440 0
M  V30 21 C 0.834047 -0.026415 4.148651 0
M  V30 22 O 0.352255 -1.040530 4.701098 0
M  V30 23 N -2.746681 -1.680871 0.788531 0
M  V30 24 C -2.699241 -3.052419 0.387363 0
M  V30 25 C -1.689576 -3.248551 -0.764993 0
M  V30 26 C -1.845696 -4.729857 -1.158024 0
M  V30 27 N -3.073260 -4.895194 -1.913910 0
M  V30 28 S -2.691243 -4.803237 -3.580100 0
M  V30 29 O -1.655313 -5.873399 -3.910568 0
M  V30 30 O -3.873264 -5.132199 -4.450427 0
M  V30 31 C -1.996812 -3.270493 -4.044458 0
M  V30 32 C -2.763770 -2.186477 -4.416005 0
M  V30 33 C -2.161972 -0.978158 -4.787501 0
M  V30 34 C -0.785877 -0.911294 -4.768302 0
M  V30 35 C 0.023392 -1.957854 -4.407588 0
M  V30 36 C -0.600606 -3.139649 -4.045573 0
M  V30 37 C -4.047009 -3.899216 -1.558402 0
M  V30 38 C -3.992821 -3.635826 -0.039033 0
M  V30 39 H -2.660346 0.687631 1.794708 0
M  V30 40 H -1.857293 0.377113 4.557049 0
M  V30 41 H -1.929014 1.864081 3.514222 0
M  V30 42 H -0.114306 2.767880 2.577353 0
M  V30 43 H 3.136153 4.401026 3.929813 0
M  V30 44 H 3.890585 6.379039 2.574236 0
M  V30 45 H 3.433330 6.412564 0.098708 0
M  V30 46 H 2.263123 4.529356 -0.980060 0
M  V30 47 H 1.555391 2.637509 0.362236 0
M  V30 48 H 4.434983 2.504399 2.842486 0
M  V30 49 H 5.142622 -1.185759 4.912060 0
M  V30 50 H 2.689971 -1.595442 5.071491 0
M  V30 51 H -3.257969 -0.970678 0.212599 0
M  V30 52 H -2.254639 -3.644336 1.208644 0
M  V30 53 H -0.658761 -3.145851 -0.385286 0
M  V30 54 H -1.957331 -2.594619 -1.601084 0
M  V30 55 H -1.849000 -5.343586 -0.238476 0
M  V30 56 H -0.967577 -5.059713 -1.762015 0
M  V30 57 H -3.852033 -2.255099 -4.425625 0
M  V30 58 H -2.720772 -0.100984 -5.086132 0
M  V30 59 H -0.210214 -0.014496 -5.040415 0
M  V30 60 H 1.102316 -1.978747 -4.367646 0
M  V30 61 H -0.024726 -4.021480 -3.744950 0
M  V30 62 H -3.880837 -3.006899 -2.150609 0
M  V30 63 H -5.077261 -4.345292 -1.711844 0
M  V30 64 H -4.900188 -3.106886 0.250491 0
M  V30 65 H -4.131483 -4.675353 0.385813 0
M  V30 END ATOM
M  V30 BEGIN BOND
M  V30 1 2 1 2
M  V30 2 1 2 3
M  V30 3 1 3 4
M  V30 4 1 4 5
M  V30 5 2 5 6
M  V30 6 1 6 7
M  V30 7 1 7 8
M  V30 8 2 8 9
M  V30 9 1 9 10
M  V30 10 2 10 11
M  V30 11 1 11 12
M  V30 12 2 12 13
M  V30 13 1 7 14
M  V30 14 2 14 15
M  V30 15 1 15 16
M  V30 16 1 16 17
M  V30 17 2 16 18
M  V30 18 1 18 19
M  V30 19 2 19 20
M  V30 20 1 20 21
M  V30 21 2 21 22
M  V30 22 1 2 23
M  V30 23 1 23 24
M  V30 24 1 24 25
M  V30 25 1 25 26
M  V30 26 1 26 27
M  V30 27 1 27 28
M  V30 28 2 28 29
M  V30 29 2 28 30
M  V30 30 1 28 31
M  V30 31 2 31 32
M  V30 32 1 32 33
M  V30 33 2 33 34
M  V30 34 1 34 35
M  V30 35 2 35 36
M  V30 36 1 27 37
M  V30 37 1 37 38
M  V30 38 1 21 5
M  V30 39 1 38 24
M  V30 40 1 13 8
M  V30 41 1 20 14
M  V30 42 1 36 31
M  V30 43 1 3 39
M  V30 44 1 4 40
M  V30 45 1 4 41
M  V30 46 1 6 42
M  V30 47 1 9 43
M  V30 48 1 10 44
M  V30 49 1 11 45
M  V30 50 1 12 46
M  V30 51 1 13 47
M  V30 52 1 15 48
M  V30 53 1 18 49
M  V30 54 1 19 50
M  V30 55 1 23 51
M  V30 56 1 24 52
M  V30 57 1 25 53
M  V30 58 1 25 54
M  V30 59 1 26 55
M  V30 60 1 26 56
M  V30 61 1 32 57
M  V30 62 1 33 58
M  V30 63 1 34 59
M  V30 64 1 35 60
M  V30 65 1 36 61
M  V30 66 1 37 62
M  V30 67 1 37 63
M  V30 68 1 38 64
M  V30 69 1 38 65
M  V30 END BOND
M  V30 END CTAB
M  END
>  <Dataset>  (842) 
ChEMBL_Kinases

>  <Ligand_Instance>  (842) 
nan

>  <PDB_ID>  (842) 
nan

>  <Standardized_SMILES>  (842) 
O=C(NCc1cn(-c2ccccc2)c2cc(Cl)ccc2c1=O)NC1CCN(S(=O)(=O)c2ccccc2)CC1

>  <Name>  (842) 
nan

>  <Pocket>  (842) 
nan

>  <ATP_Site>  (842) 
nan

>  <Peripheral>  (842) 
nan

>  <Num_H_Atoms_ProtBoundConf>  (842) 
nan

>  <Num_Resolved_Atoms>  (842) 
nan

>  <Num_Not_Resolved_Atoms>  (842) 
nan

$$$$
CHEMBL3640055
     RDKit          3D

  0  0  0  0  0  0  0  0  0  0999 V3000
M  V30 BEGIN CTAB
M  V30 COUNTS 58 61 0 0 0
M  V30 BEGIN ATOM
M  V30 1 C 6.038791 -0.064910 5.718932 0
M  V30 2 S 4.424717 -0.448015 5.160576 0
M  V30 3 O 4.020064 -1.771948 5.744202 0
M  V30 4 O 3.462580 0.562296 5.761077 0
M  V30 5 N 4.268663 -0.566912 3.465838 0
M  V30 6 C 4.562945 0.615250 2.728583 0
M  V30 7 C 4.797127 0.231482 1.278886 0
M  V30 8 C 3.577168 -0.475420 0.753715 0
M  V30 9 N 2.391262 0.339535 0.914575 0
M  V30 10 C 1.563313 0.557125 -0.188958 0
M  V30 11 O 1.933837 0.011443 -1.250730 0
M  V30 12 N 0.377315 1.312595 -0.226968 0
M  V30 13 C -0.645512 1.691571 -1.170523 0
M  V30 14 C -1.415296 0.576098 -1.746513 0
M  V30 15 C -2.626476 0.259112 -1.120570 0
M  V30 16 N -3.477624 -0.730893 -1.443981 0
M  V30 17 C -4.679935 -0.947400 -0.717599 0
M  V30 18 C -6.001642 -0.758812 -1.057903 0
M  V30 19 C -6.989464 -1.055018 -0.145119 0
M  V30 20 C -6.681105 -1.541429 1.115033 0
M  V30 21 C -5.365910 -1.739108 1.480732 0
M  V30 22 C -4.364450 -1.438309 0.553996 0
M  V30 23 C -3.172009 -1.530904 -2.478024 0
M  V30 24 C -4.015781 -2.556655 -2.842307 0
M  V30 25 C -3.629900 -3.322926 -3.905328 0
M  V30 26 Cl -4.644471 -4.643791 -4.429139 0
M  V30 27 C -2.450904 -3.104238 -4.605395 0
M  V30 28 C -1.609875 -2.070391 -4.231025 0
M  V30 29 C -1.999279 -1.303416 -3.164611 0
M  V30 30 C -1.159635 -0.277231 -2.796702 0
M  V30 31 O -0.094415 -0.067683 -3.423791 0
M  V30 32 C 3.354528 -1.730727 1.598008 0
M  V30 33 C 3.131876 -1.313244 3.037363 0
M  V30 34 H 6.207606 -0.577000 6.690185 0
M  V30 35 H 6.790397 -0.489121 5.011396 0
M  V30 36 H 6.210458 1.010908 5.919875 0
M  V30 37 H 5.527948 1.012797 3.111066 0
M  V30 38 H 3.789573 1.423221 2.814234 0
M  V30 39 H 5.607669 -0.549216 1.314748 0
M  V30 40 H 5.048691 1.090094 0.636294 0
M  V30 41 H 3.711564 -0.829404 -0.269204 0
M  V30 42 H 2.130797 0.771423 1.825640 0
M  V30 43 H 0.223364 1.704508 0.756663 0
M  V30 44 H -1.355594 2.360485 -0.656218 0
M  V30 45 H -0.194323 2.330428 -1.985953 0
M  V30 46 H -2.952070 0.856490 -0.274076 0
M  V30 47 H -6.092651 -0.380262 -2.057838 0
M  V30 48 H -7.995641 -0.882294 -0.481275 0
M  V30 49 H -7.544075 -1.737611 1.745482 0
M  V30 50 H -5.201930 -2.113958 2.461572 0
M  V30 51 H -3.380090 -1.641067 0.972431 0
M  V30 52 H -4.922517 -2.723406 -2.302966 0
M  V30 53 H -2.194232 -3.750465 -5.448310 0
M  V30 54 H -0.697200 -1.933097 -4.804810 0
M  V30 55 H 2.553062 -2.342658 1.178117 0
M  V30 56 H 4.322061 -2.299516 1.604786 0
M  V30 57 H 2.156870 -0.795053 3.125664 0
M  V30 58 H 3.114369 -2.251205 3.633433 0
M  V30 END ATOM
M  V30 BEGIN BOND
M  V30 1 1 1 2
M  V30 2 2 2 3
M  V30 3 2 2 4
M  V30 4 1 2 5
M  V30 5 1 5 6
M  V30 6 1 6 7
M  V30 7 1 7 8
M  V30 8 1 8 9
M  V30 9 1 9 10
M  V30 10 2 10 11
M  V30 11 1 10 12
M  V30 12 1 12 13
M  V30 13 1 13 14
M  V30 14 2 14 15
M  V30 15 1 15 16
M  V30 16 1 16 17
M  V30 17 2 17 18
M  V30 18 1 18 19
M  V30 19 2 19 20
M  V30 20 1 20 21
M  V30 21 2 21 22
M  V30 22 1 16 23
M  V30 23 2 23 24
M  V30 24 1 24 25
M  V30 25 1 25 26
M  V30 26 2 25 27
M  V30 27 1 27 28
M  V30 28 2 28 29
M  V30 29 1 29 30
M  V30 30 2 30 31
M  V30 31 1 8 32
M  V30 32 1 32 33
M  V30 33 1 33 5
M  V30 34 1 30 14
M  V30 35 1 22 17
M  V30 36 1 29 23
M  V30 37 1 1 34
M  V30 38 1 1 35
M  V30 39 1 1 36
M  V30 40 1 6 37
M  V30 41 1 6 38
M  V30 42 1 7 39
M  V30 43 1 7 40
M  V30 44 1 8 41
M  V30 45 1 9 42
M  V30 46 1 12 43
M  V30 47 1 13 44
M  V30 48 1 13 45
M  V30 49 1 15 46
M  V30 50 1 18 47
M  V30 51 1 19 48
M  V30 52 1 20 49
M  V30 53 1 21 50
M  V30 54 1 22 51
M  V30 55 1 24 52
M  V30 56 1 27 53
M  V30 57 1 28 54
M  V30 58 1 32 55
M  V30 59 1 32 56
M  V30 60 1 33 57
M  V30 61 1 33 58
M  V30 END BOND
M  V30 END CTAB
M  END
>  <Dataset>  (843) 
ChEMBL_Kinases

>  <Ligand_Instance>  (843) 
nan

>  <PDB_ID>  (843) 
nan

>  <Standardized_SMILES>  (843) 
CS(=O)(=O)N1CCC(NC(=O)NCc2cn(-c3ccccc3)c3cc(Cl)ccc3c2=O)CC1

>  <Name>  (843) 
nan

>  <Pocket>  (843) 
nan

>  <ATP_Site>  (843) 
nan

>  <Peripheral>  (843) 
nan

>  <Num_H_Atoms_ProtBoundConf>  (843) 
nan

>  <Num_Resolved_Atoms>  (843) 
nan

>  <Num_Not_Resolved_Atoms>  (843) 
nan

$$$$
CHEMBL3640056
     RDKit          3D

  0  0  0  0  0  0  0  0  0  0999 V3000
M  V30 BEGIN CTAB
M  V30 COUNTS 57 60 0 0 0
M  V30 BEGIN ATOM
M  V30 1 C 4.583677 -1.581729 4.456381 0
M  V30 2 C 4.525543 -2.440076 3.227531 0
M  V30 3 O 4.029544 -3.593492 3.364153 0
M  V30 4 N 5.060137 -1.792520 2.054465 0
M  V30 5 C 5.620047 -0.481433 1.910857 0
M  V30 6 C 5.124241 0.271512 0.695668 0
M  V30 7 C 4.588828 -0.607722 -0.388747 0
M  V30 8 N 3.160578 -0.779145 -0.328851 0
M  V30 9 C 2.073477 -0.551008 -1.240004 0
M  V30 10 O 2.462111 -0.095890 -2.345670 0
M  V30 11 N 0.764550 -0.857924 -0.786186 0
M  V30 12 C -0.255977 -0.580171 -1.809405 0
M  V30 13 C -1.607113 -0.909960 -1.303527 0
M  V30 14 C -2.469269 0.110833 -0.909302 0
M  V30 15 N -3.731218 -0.070775 -0.428921 0
M  V30 16 C -4.472722 1.088936 -0.073277 0
M  V30 17 C -5.519588 1.326228 -0.969158 0
M  V30 18 C -6.364789 2.403150 -0.808488 0
M  V30 19 C -6.181651 3.279139 0.264240 0
M  V30 20 C -5.142472 3.022863 1.132610 0
M  V30 21 C -4.290827 1.953907 0.986993 0
M  V30 22 C -4.165994 -1.333663 -0.332771 0
M  V30 23 C -5.452966 -1.520070 0.156618 0
M  V30 24 C -5.898984 -2.832093 0.254085 0
M  V30 25 Cl -7.528723 -3.120966 0.871322 0
M  V30 26 C -5.144998 -3.937279 -0.102748 0
M  V30 27 C -3.869486 -3.685175 -0.583788 0
M  V30 28 C -3.368750 -2.409306 -0.704750 0
M  V30 29 C -2.094427 -2.192688 -1.187959 0
M  V30 30 O -1.337030 -3.161341 -1.538696 0
M  V30 31 C 5.330069 -1.926255 -0.338758 0
M  V30 32 C 4.966687 -2.696653 0.902924 0
M  V30 33 H 5.592314 -1.110754 4.587604 0
M  V30 34 H 4.428780 -2.200729 5.384424 0
M  V30 35 H 3.808654 -0.803678 4.473389 0
M  V30 36 H 6.734125 -0.592626 1.881920 0
M  V30 37 H 5.406193 0.107672 2.825008 0
M  V30 38 H 6.007015 0.823861 0.279970 0
M  V30 39 H 4.414691 1.080451 0.988275 0
M  V30 40 H 4.815391 -0.195249 -1.415456 0
M  V30 41 H 3.005144 -1.153634 0.626235 0
M  V30 42 H 0.635994 -1.233679 0.179555 0
M  V30 43 H 0.019123 -1.149021 -2.715036 0
M  V30 44 H -0.204584 0.509334 -2.008862 0
M  V30 45 H -2.085428 1.122656 -0.999939 0
M  V30 46 H -5.766362 0.713177 -1.847927 0
M  V30 47 H -7.190618 2.618837 -1.486282 0
M  V30 48 H -6.818195 4.135567 0.431136 0
M  V30 49 H -4.965057 3.682122 1.982342 0
M  V30 50 H -3.469288 1.686753 1.609588 0
M  V30 51 H -6.074766 -0.683800 0.446554 0
M  V30 52 H -5.545528 -4.940232 -0.005186 0
M  V30 53 H -3.242330 -4.517471 -0.875782 0
M  V30 54 H 6.421570 -1.651106 -0.322667 0
M  V30 55 H 5.148742 -2.549879 -1.239972 0
M  V30 56 H 5.676053 -3.535147 0.994601 0
M  V30 57 H 3.917877 -2.976412 0.820756 0
M  V30 END ATOM
M  V30 BEGIN BOND
M  V30 1 1 1 2
M  V30 2 2 2 3
M  V30 3 1 2 4
M  V30 4 1 4 5
M  V30 5 1 5 6
M  V30 6 1 6 7
M  V30 7 1 7 8
M  V30 8 1 8 9
M  V30 9 2 9 10
M  V30 10 1 9 11
M  V30 11 1 11 12
M  V30 12 1 12 13
M  V30 13 2 13 14
M  V30 14 1 14 15
M  V30 15 1 15 16
M  V30 16 2 16 17
M  V30 17 1 17 18
M  V30 18 2 18 19
M  V30 19 1 19 20
M  V30 20 2 20 21
M  V30 21 1 15 22
M  V30 22 2 22 23
M  V30 23 1 23 24
M  V30 24 1 24 25
M  V30 25 2 24 26
M  V30 26 1 26 27
M  V30 27 2 27 28
M  V30 28 1 28 29
M  V30 29 2 29 30
M  V30 30 1 7 31
M  V30 31 1 31 32
M  V30 32 1 32 4
M  V30 33 1 29 13
M  V30 34 1 21 16
M  V30 35 1 28 22
M  V30 36 1 1 33
M  V30 37 1 1 34
M  V30 38 1 1 35
M  V30 39 1 5 36
M  V30 40 1 5 37
M  V30 41 1 6 38
M  V30 42 1 6 39
M  V30 43 1 7 40
M  V30 44 1 8 41
M  V30 45 1 11 42
M  V30 46 1 12 43
M  V30 47 1 12 44
M  V30 48 1 14 45
M  V30 49 1 17 46
M  V30 50 1 18 47
M  V30 51 1 19 48
M  V30 52 1 20 49
M  V30 53 1 21 50
M  V30 54 1 23 51
M  V30 55 1 26 52
M  V30 56 1 27 53
M  V30 57 1 31 54
M  V30 58 1 31 55
M  V30 59 1 32 56
M  V30 60 1 32 57
M  V30 END BOND
M  V30 END CTAB
M  END
>  <Dataset>  (844) 
ChEMBL_Kinases

>  <Ligand_Instance>  (844) 
nan

>  <PDB_ID>  (844) 
nan

>  <Standardized_SMILES>  (844) 
CC(=O)N1CCC(NC(=O)NCc2cn(-c3ccccc3)c3cc(Cl)ccc3c2=O)CC1

>  <Name>  (844) 
nan

>  <Pocket>  (844) 
nan

>  <ATP_Site>  (844) 
nan

>  <Peripheral>  (844) 
nan

>  <Num_H_Atoms_ProtBoundConf>  (844) 
nan

>  <Num_Resolved_Atoms>  (844) 
nan

>  <Num_Not_Resolved_Atoms>  (844) 
nan

$$$$
CHEMBL3640057
     RDKit          3D

  0  0  0  0  0  0  0  0  0  0999 V3000
M  V30 BEGIN CTAB
M  V30 COUNTS 75 79 0 0 0
M  V30 BEGIN ATOM
M  V30 1 C 3.708602 -3.615103 1.178639 0
M  V30 2 S 5.464040 -3.557350 0.925557 0
M  V30 3 O 5.936994 -4.989561 0.844427 0
M  V30 4 O 6.105575 -2.930622 2.111728 0
M  V30 5 C 5.889994 -2.641270 -0.554164 0
M  V30 6 C 5.350702 -3.402405 -1.728085 0
M  V30 7 C 5.261948 -2.512950 -2.950475 0
M  V30 8 N 4.328209 -1.438408 -2.688493 0
M  V30 9 C 3.100133 -1.475976 -3.395678 0
M  V30 10 O 3.172955 -2.516010 -4.119795 0
M  V30 11 N 1.934676 -0.672965 -3.450184 0
M  V30 12 C 1.554885 0.541006 -2.758653 0
M  V30 13 C 0.083713 0.780286 -2.762634 0
M  V30 14 C -0.627547 -0.511604 -2.436899 0
M  V30 15 N -0.062500 -1.018688 -1.187429 0
M  V30 16 C -0.893064 -1.261147 -0.033991 0
M  V30 17 O -2.102039 -0.997395 -0.240701 0
M  V30 18 N -0.386592 -1.746869 1.200597 0
M  V30 19 C -1.274898 -1.979010 2.333097 0
M  V30 20 C -1.994918 -0.750010 2.756907 0
M  V30 21 C -3.347677 -0.618057 2.419820 0
M  V30 22 N -4.117338 0.461519 2.751426 0
M  V30 23 C -5.473912 0.413676 2.316682 0
M  V30 24 C -6.335606 -0.574818 2.784523 0
M  V30 25 C -7.661740 -0.738345 2.448250 0
M  V30 26 C -8.160426 0.187808 1.553000 0
M  V30 27 C -7.371251 1.197715 1.043009 0
M  V30 28 C -6.049632 1.315390 1.413856 0
M  V30 29 C -3.519387 1.448184 3.444894 0
M  V30 30 C -4.340534 2.513241 3.753768 0
M  V30 31 C -3.754362 3.554850 4.473225 0
M  V30 32 Cl -4.763265 4.944292 4.894763 0
M  V30 33 C -2.408964 3.522467 4.860689 0
M  V30 34 C -1.649302 2.426021 4.516788 0
M  V30 35 C -2.187255 1.353601 3.795658 0
M  V30 36 C -1.398461 0.268812 3.467121 0
M  V30 37 O -0.203348 0.189942 3.785100 0
M  V30 38 C -0.378071 -1.471096 -3.580177 0
M  V30 39 C 0.859880 -1.055717 -4.339492 0
M  V30 40 C 4.991517 -0.578782 -1.702592 0
M  V30 41 C 5.321874 -1.267109 -0.426403 0
M  V30 42 H 3.532434 -4.390364 1.953117 0
M  V30 43 H 3.327073 -2.624398 1.529656 0
M  V30 44 H 3.221113 -3.960230 0.255193 0
M  V30 45 H 7.000580 -2.628115 -0.673059 0
M  V30 46 H 6.071287 -4.205838 -1.985767 0
M  V30 47 H 4.393399 -3.855682 -1.440539 0
M  V30 48 H 4.927046 -3.149422 -3.781977 0
M  V30 49 H 6.298434 -2.164313 -3.164627 0
M  V30 50 H 2.107692 1.398172 -3.222653 0
M  V30 51 H 1.933863 0.476856 -1.703102 0
M  V30 52 H -0.177430 1.586324 -2.026341 0
M  V30 53 H -0.221870 1.118069 -3.777209 0
M  V30 54 H -1.715962 -0.328147 -2.297964 0
M  V30 55 H 0.959931 -1.211715 -1.119162 0
M  V30 56 H 0.644724 -1.911808 1.208098 0
M  V30 57 H -0.741744 -2.460416 3.168896 0
M  V30 58 H -2.001853 -2.738148 1.975909 0
M  V30 59 H -3.798708 -1.444189 1.857595 0
M  V30 60 H -5.892963 -1.282860 3.490019 0
M  V30 61 H -8.233981 -1.543641 2.875216 0
M  V30 62 H -9.213376 0.109465 1.246131 0
M  V30 63 H -7.752399 1.940167 0.331032 0
M  V30 64 H -5.347389 2.079921 1.064742 0
M  V30 65 H -5.373105 2.554260 3.465239 0
M  V30 66 H -1.970655 4.341952 5.419662 0
M  V30 67 H -0.594817 2.386940 4.812475 0
M  V30 68 H -0.177000 -2.496280 -3.155831 0
M  V30 69 H -1.249864 -1.557477 -4.224131 0
M  V30 70 H 0.653642 -0.217124 -5.013953 0
M  V30 71 H 1.210463 -1.928501 -4.957517 0
M  V30 72 H 4.292463 0.246643 -1.468980 0
M  V30 73 H 5.884089 -0.102501 -2.159658 0
M  V30 74 H 4.432915 -1.270877 0.232994 0
M  V30 75 H 6.124479 -0.645380 0.069661 0
M  V30 END ATOM
M  V30 BEGIN BOND
M  V30 1 1 1 2
M  V30 2 2 2 3
M  V30 3 2 2 4
M  V30 4 1 2 5
M  V30 5 1 5 6
M  V30 6 1 6 7
M  V30 7 1 7 8
M  V30 8 1 8 9
M  V30 9 2 9 10
M  V30 10 1 9 11
M  V30 11 1 11 12
M  V30 12 1 12 13
M  V30 13 1 13 14
M  V30 14 1 14 15
M  V30 15 1 15 16
M  V30 16 2 16 17
M  V30 17 1 16 18
M  V30 18 1 18 19
M  V30 19 1 19 20
M  V30 20 2 20 21
M  V30 21 1 21 22
M  V30 22 1 22 23
M  V30 23 2 23 24
M  V30 24 1 24 25
M  V30 25 2 25 26
M  V30 26 1 26 27
M  V30 27 2 27 28
M  V30 28 1 22 29
M  V30 29 2 29 30
M  V30 30 1 30 31
M  V30 31 1 31 32
M  V30 32 2 31 33
M  V30 33 1 33 34
M  V30 34 2 34 35
M  V30 35 1 35 36
M  V30 36 2 36 37
M  V30 37 1 14 38
M  V30 38 1 38 39
M  V30 39 1 8 40
M  V30 40 1 40 41
M  V30 41 1 41 5
M  V30 42 1 39 11
M  V30 43 1 36 20
M  V30 44 1 28 23
M  V30 45 1 35 29
M  V30 46 1 1 42
M  V30 47 1 1 43
M  V30 48 1 1 44
M  V30 49 1 5 45
M  V30 50 1 6 46
M  V30 51 1 6 47
M  V30 52 1 7 48
M  V30 53 1 7 49
M  V30 54 1 12 50
M  V30 55 1 12 51
M  V30 56 1 13 52
M  V30 57 1 13 53
M  V30 58 1 14 54
M  V30 59 1 15 55
M  V30 60 1 18 56
M  V30 61 1 19 57
M  V30 62 1 19 58
M  V30 63 1 21 59
M  V30 64 1 24 60
M  V30 65 1 25 61
M  V30 66 1 26 62
M  V30 67 1 27 63
M  V30 68 1 28 64
M  V30 69 1 30 65
M  V30 70 1 33 66
M  V30 71 1 34 67
M  V30 72 1 38 68
M  V30 73 1 38 69
M  V30 74 1 39 70
M  V30 75 1 39 71
M  V30 76 1 40 72
M  V30 77 1 40 73
M  V30 78 1 41 74
M  V30 79 1 41 75
M  V30 END BOND
M  V30 END CTAB
M  END
>  <Dataset>  (845) 
ChEMBL_Kinases

>  <Ligand_Instance>  (845) 
nan

>  <PDB_ID>  (845) 
nan

>  <Standardized_SMILES>  (845) 
CS(=O)(=O)C1CCN(C(=O)N2CCC(NC(=O)NCc3cn(-c4ccccc4)c4cc(Cl)ccc4c3=O)CC2)CC1

>  <Name>  (845) 
nan

>  <Pocket>  (845) 
nan

>  <ATP_Site>  (845) 
nan

>  <Peripheral>  (845) 
nan

>  <Num_H_Atoms_ProtBoundConf>  (845) 
nan

>  <Num_Resolved_Atoms>  (845) 
nan

>  <Num_Not_Resolved_Atoms>  (845) 
nan

$$$$
CHEMBL3640058
     RDKit          3D

  0  0  0  0  0  0  0  0  0  0999 V3000
M  V30 BEGIN CTAB
M  V30 COUNTS 48 51 0 0 0
M  V30 BEGIN ATOM
M  V30 1 O 0.688066 -2.739788 0.795529 0
M  V30 2 C -0.191326 -3.152598 1.603491 0
M  V30 3 N -0.320191 -2.705429 2.940991 0
M  V30 4 C 0.613222 -1.703596 3.435369 0
M  V30 5 C 0.542714 -0.445339 2.652009 0
M  V30 6 C 1.410778 0.031041 1.697008 0
M  V30 7 N 1.168415 1.205962 1.089806 0
M  V30 8 C 2.096118 1.656637 0.103228 0
M  V30 9 C 1.704528 1.601485 -1.220952 0
M  V30 10 C 2.437914 1.983035 -2.324970 0
M  V30 11 C 3.708025 2.472835 -2.034665 0
M  V30 12 C 4.166285 2.555475 -0.717445 0
M  V30 13 C 3.365150 2.150826 0.331808 0
M  V30 14 C 0.101686 1.982732 1.353961 0
M  V30 15 C -0.053531 3.179212 0.668989 0
M  V30 16 C -1.182912 3.908349 1.011043 0
M  V30 17 Cl -1.449490 5.428741 0.190921 0
M  V30 18 C -2.111462 3.518052 1.953324 0
M  V30 19 C -1.904154 2.307314 2.609718 0
M  V30 20 C -0.798280 1.530267 2.316830 0
M  V30 21 C -0.573785 0.317816 2.961785 0
M  V30 22 O -1.449544 0.002139 3.815268 0
M  V30 23 N -0.908296 -4.090318 0.815553 0
M  V30 24 C -0.444919 -4.276207 -0.543703 0
M  V30 25 C -1.600790 -3.767973 -1.417953 0
M  V30 26 O -2.592925 -4.703523 -1.306392 0
M  V30 27 C -3.012562 -5.025852 -0.052744 0
M  V30 28 C -2.048772 -4.939411 1.064972 0
M  V30 29 H -1.136108 -3.220673 3.373397 0
M  V30 30 H 0.360882 -1.548262 4.501756 0
M  V30 31 H 1.649717 -2.119646 3.339611 0
M  V30 32 H 2.256889 -0.613990 1.510069 0
M  V30 33 H 0.707733 1.216809 -1.449090 0
M  V30 34 H 2.033352 1.896251 -3.321459 0
M  V30 35 H 4.343626 2.793977 -2.869364 0
M  V30 36 H 5.153241 2.935219 -0.485035 0
M  V30 37 H 3.671357 2.193050 1.376685 0
M  V30 38 H 0.650672 3.521104 -0.076229 0
M  V30 39 H -2.978155 4.129931 2.181247 0
M  V30 40 H -2.617664 1.993715 3.342747 0
M  V30 41 H -0.332437 -5.377781 -0.765209 0
M  V30 42 H 0.461260 -3.739648 -0.809312 0
M  V30 43 H -1.311376 -3.705342 -2.487002 0
M  V30 44 H -1.921428 -2.814079 -0.990661 0
M  V30 45 H -3.463015 -6.056850 -0.126674 0
M  V30 46 H -3.896016 -4.357502 0.161747 0
M  V30 47 H -2.590741 -4.622615 2.002359 0
M  V30 48 H -1.657724 -5.952765 1.292364 0
M  V30 END ATOM
M  V30 BEGIN BOND
M  V30 1 2 1 2
M  V30 2 1 2 3
M  V30 3 1 3 4
M  V30 4 1 4 5
M  V30 5 2 5 6
M  V30 6 1 6 7
M  V30 7 1 7 8
M  V30 8 2 8 9
M  V30 9 1 9 10
M  V30 10 2 10 11
M  V30 11 1 11 12
M  V30 12 2 12 13
M  V30 13 1 7 14
M  V30 14 2 14 15
M  V30 15 1 15 16
M  V30 16 1 16 17
M  V30 17 2 16 18
M  V30 18 1 18 19
M  V30 19 2 19 20
M  V30 20 1 20 21
M  V30 21 2 21 22
M  V30 22 1 2 23
M  V30 23 1 23 24
M  V30 24 1 24 25
M  V30 25 1 25 26
M  V30 26 1 26 27
M  V30 27 1 27 28
M  V30 28 1 21 5
M  V30 29 1 28 23
M  V30 30 1 13 8
M  V30 31 1 20 14
M  V30 32 1 3 29
M  V30 33 1 4 30
M  V30 34 1 4 31
M  V30 35 1 6 32
M  V30 36 1 9 33
M  V30 37 1 10 34
M  V30 38 1 11 35
M  V30 39 1 12 36
M  V30 40 1 13 37
M  V30 41 1 15 38
M  V30 42 1 18 39
M  V30 43 1 19 40
M  V30 44 1 24 41
M  V30 45 1 24 42
M  V30 46 1 25 43
M  V30 47 1 25 44
M  V30 48 1 27 45
M  V30 49 1 27 46
M  V30 50 1 28 47
M  V30 51 1 28 48
M  V30 END BOND
M  V30 END CTAB
M  END
>  <Dataset>  (846) 
ChEMBL_Kinases

>  <Ligand_Instance>  (846) 
nan

>  <PDB_ID>  (846) 
nan

>  <Standardized_SMILES>  (846) 
O=C(NCc1cn(-c2ccccc2)c2cc(Cl)ccc2c1=O)N1CCOCC1

>  <Name>  (846) 
nan

>  <Pocket>  (846) 
nan

>  <ATP_Site>  (846) 
nan

>  <Peripheral>  (846) 
nan

>  <Num_H_Atoms_ProtBoundConf>  (846) 
nan

>  <Num_Resolved_Atoms>  (846) 
nan

>  <Num_Not_Resolved_Atoms>  (846) 
nan

$$$$
CHEMBL3640050
     RDKit          3D

  0  0  0  0  0  0  0  0  0  0999 V3000
M  V30 BEGIN CTAB
M  V30 COUNTS 67 70 0 0 0
M  V30 BEGIN ATOM
M  V30 1 C 4.213459 2.973224 5.791411 0
M  V30 2 C 3.809211 1.513049 5.954891 0
M  V30 3 C 4.943554 0.823029 6.645530 0
M  V30 4 C 2.586132 1.496030 6.872514 0
M  V30 5 O 3.412509 0.946628 4.751899 0
M  V30 6 C 4.144115 0.807374 3.603963 0
M  V30 7 O 5.286848 1.283222 3.783926 0
M  V30 8 N 3.547283 0.191783 2.465369 0
M  V30 9 C 2.170403 -0.286476 2.516404 0
M  V30 10 C 1.939636 -1.131468 1.287552 0
M  V30 11 C 2.040570 -0.244097 0.068560 0
M  V30 12 N 0.879099 0.643398 0.086657 0
M  V30 13 C -0.094777 0.614595 -0.950235 0
M  V30 14 O 0.082088 -0.221482 -1.901155 0
M  V30 15 N -1.230323 1.448067 -0.985129 0
M  V30 16 C -2.222541 1.425643 -2.027967 0
M  V30 17 C -2.827757 0.068601 -2.062424 0
M  V30 18 C -2.626393 -0.963409 -2.953302 0
M  V30 19 N -3.285064 -2.126531 -2.803983 0
M  V30 20 C -3.011096 -3.121491 -3.769248 0
M  V30 21 C -2.239747 -4.248796 -3.577027 0
M  V30 22 C -2.074167 -5.127511 -4.641736 0
M  V30 23 C -2.653932 -4.911652 -5.883071 0
M  V30 24 C -3.419411 -3.770878 -6.035557 0
M  V30 25 C -3.614220 -2.866328 -5.007411 0
M  V30 26 C -4.158602 -2.339717 -1.796100 0
M  V30 27 C -4.769667 -3.579652 -1.756167 0
M  V30 28 C -5.673835 -3.808552 -0.718662 0
M  V30 29 Cl -6.507744 -5.341015 -0.568299 0
M  V30 30 C -5.939291 -2.836621 0.219127 0
M  V30 31 C -5.294309 -1.622936 0.119058 0
M  V30 32 C -4.382683 -1.331747 -0.890261 0
M  V30 33 C -3.724983 -0.117933 -1.007513 0
M  V30 34 O -4.036996 0.693130 -0.107338 0
M  V30 35 C 3.307089 0.541806 0.135533 0
M  V30 36 C 4.253429 0.005838 1.210038 0
M  V30 37 H 3.974808 3.472046 6.763409 0
M  V30 38 H 3.619284 3.439577 4.991303 0
M  V30 39 H 5.303870 3.015731 5.591806 0
M  V30 40 H 4.751311 0.858194 7.737891 0
M  V30 41 H 5.906338 1.361734 6.511011 0
M  V30 42 H 5.029227 -0.257703 6.386163 0
M  V30 43 H 1.660412 1.792893 6.343686 0
M  V30 44 H 2.406039 0.439726 7.217107 0
M  V30 45 H 2.731327 2.139812 7.765701 0
M  V30 46 H 1.984817 -0.867105 3.446615 0
M  V30 47 H 1.528359 0.591462 2.468198 0
M  V30 48 H 0.894102 -1.523608 1.368460 0
M  V30 49 H 2.663528 -1.981292 1.230742 0
M  V30 50 H 1.987657 -0.838487 -0.870892 0
M  V30 51 H 0.652313 1.351472 0.814192 0
M  V30 52 H -1.374601 2.139200 -0.200610 0
M  V30 53 H -3.015488 2.159448 -1.895790 0
M  V30 54 H -1.763334 1.639805 -3.036384 0
M  V30 55 H -1.915825 -0.710915 -3.724440 0
M  V30 56 H -1.805632 -4.390383 -2.612597 0
M  V30 57 H -1.467946 -6.021766 -4.506239 0
M  V30 58 H -2.494381 -5.634701 -6.694349 0
M  V30 59 H -3.865101 -3.621276 -7.017722 0
M  V30 60 H -4.235808 -1.982089 -5.205208 0
M  V30 61 H -4.579303 -4.362404 -2.480552 0
M  V30 62 H -6.635123 -2.983786 1.035099 0
M  V30 63 H -5.504657 -0.860223 0.857584 0
M  V30 64 H 3.870414 0.479879 -0.816144 0
M  V30 65 H 3.138731 1.612041 0.399920 0
M  V30 66 H 5.184427 0.606465 1.145303 0
M  V30 67 H 4.553113 -1.041087 1.021664 0
M  V30 END ATOM
M  V30 BEGIN BOND
M  V30 1 1 1 2
M  V30 2 1 2 3
M  V30 3 1 2 4
M  V30 4 1 2 5
M  V30 5 1 5 6
M  V30 6 2 6 7
M  V30 7 1 6 8
M  V30 8 1 8 9
M  V30 9 1 9 10
M  V30 10 1 10 11
M  V30 11 1 11 12
M  V30 12 1 12 13
M  V30 13 2 13 14
M  V30 14 1 13 15
M  V30 15 1 15 16
M  V30 16 1 16 17
M  V30 17 2 17 18
M  V30 18 1 18 19
M  V30 19 1 19 20
M  V30 20 2 20 21
M  V30 21 1 21 22
M  V30 22 2 22 23
M  V30 23 1 23 24
M  V30 24 2 24 25
M  V30 25 1 19 26
M  V30 26 2 26 27
M  V30 27 1 27 28
M  V30 28 1 28 29
M  V30 29 2 28 30
M  V30 30 1 30 31
M  V30 31 2 31 32
M  V30 32 1 32 33
M  V30 33 2 33 34
M  V30 34 1 11 35
M  V30 35 1 35 36
M  V30 36 1 36 8
M  V30 37 1 33 17
M  V30 38 1 25 20
M  V30 39 1 32 26
M  V30 40 1 1 37
M  V30 41 1 1 38
M  V30 42 1 1 39
M  V30 43 1 3 40
M  V30 44 1 3 41
M  V30 45 1 3 42
M  V30 46 1 4 43
M  V30 47 1 4 44
M  V30 48 1 4 45
M  V30 49 1 9 46
M  V30 50 1 9 47
M  V30 51 1 10 48
M  V30 52 1 10 49
M  V30 53 1 11 50
M  V30 54 1 12 51
M  V30 55 1 15 52
M  V30 56 1 16 53
M  V30 57 1 16 54
M  V30 58 1 18 55
M  V30 59 1 21 56
M  V30 60 1 22 57
M  V30 61 1 23 58
M  V30 62 1 24 59
M  V30 63 1 25 60
M  V30 64 1 27 61
M  V30 65 1 30 62
M  V30 66 1 31 63
M  V30 67 1 35 64
M  V30 68 1 35 65
M  V30 69 1 36 66
M  V30 70 1 36 67
M  V30 END BOND
M  V30 END CTAB
M  END
>  <Dataset>  (847) 
ChEMBL_Kinases

>  <Ligand_Instance>  (847) 
nan

>  <PDB_ID>  (847) 
nan

>  <Standardized_SMILES>  (847) 
CC(C)(C)OC(=O)N1CCC(NC(=O)NCc2cn(-c3ccccc3)c3cc(Cl)ccc3c2=O)CC1

>  <Name>  (847) 
nan

>  <Pocket>  (847) 
nan

>  <ATP_Site>  (847) 
nan

>  <Peripheral>  (847) 
nan

>  <Num_H_Atoms_ProtBoundConf>  (847) 
nan

>  <Num_Resolved_Atoms>  (847) 
nan

>  <Num_Not_Resolved_Atoms>  (847) 
nan

$$$$
CHEMBL363491
     RDKit          3D

  0  0  0  0  0  0  0  0  0  0999 V3000
M  V30 BEGIN CTAB
M  V30 COUNTS 30 32 0 0 0
M  V30 BEGIN ATOM
M  V30 1 O 0.729501 -2.600803 1.708028 0
M  V30 2 C 1.478507 -1.636674 1.466466 0
M  V30 3 N 2.835430 -1.783895 1.851086 0
M  V30 4 C 3.495100 -0.581643 1.485025 0
M  V30 5 C 4.776765 -0.076837 1.568763 0
M  V30 6 C 5.118960 1.177186 1.105182 0
M  V30 7 C 4.151842 1.975225 0.530131 0
M  V30 8 Br 4.733535 3.686577 -0.075411 0
M  V30 9 C 2.869304 1.504529 0.431376 0
M  V30 10 C 2.544520 0.227990 0.908850 0
M  V30 11 C 1.189412 -0.366079 0.846499 0
M  V30 12 C 0.049793 0.153272 0.351639 0
M  V30 13 C -1.025497 -0.789798 0.506890 0
M  V30 14 O -1.372598 0.259247 -0.030609 0
M  V30 15 C -2.391556 -1.166083 0.347316 0
M  V30 16 C -2.415081 -2.457112 0.902151 0
M  V30 17 C -3.588734 -3.217862 0.954946 0
M  V30 18 C -4.714509 -2.637200 0.436794 0
M  V30 19 C -4.807047 -1.397649 -0.123129 0
M  V30 20 C -3.624142 -0.713658 -0.140420 0
M  V30 21 H 3.360760 -2.553740 2.309482 0
M  V30 22 H 5.504552 -0.758527 2.036737 0
M  V30 23 H 6.164504 1.412086 1.250296 0
M  V30 24 H 2.152574 2.175193 -0.029195 0
M  V30 25 H 0.346637 1.170792 -0.019945 0
M  V30 26 H -1.715167 -3.163648 1.374278 0
M  V30 27 H -3.825946 -4.202766 1.326388 0
M  V30 28 H -5.706640 -3.091635 0.399536 0
M  V30 29 H -5.611088 -0.840860 -0.554870 0
M  V30 30 H -3.500813 0.277229 -0.541376 0
M  V30 END ATOM
M  V30 BEGIN BOND
M  V30 1 2 1 2
M  V30 2 1 2 3
M  V30 3 1 3 4
M  V30 4 2 4 5
M  V30 5 1 5 6
M  V30 6 2 6 7
M  V30 7 1 7 8
M  V30 8 1 7 9
M  V30 9 2 9 10
M  V30 10 1 10 11
M  V30 11 2 11 12
M  V30 12 1 12 13
M  V30 13 2 13 14
M  V30 14 1 13 15
M  V30 15 2 15 16
M  V30 16 1 16 17
M  V30 17 2 17 18
M  V30 18 1 18 19
M  V30 19 2 19 20
M  V30 20 1 11 2
M  V30 21 1 20 15
M  V30 22 1 10 4
M  V30 23 1 3 21
M  V30 24 1 5 22
M  V30 25 1 6 23
M  V30 26 1 9 24
M  V30 27 1 12 25
M  V30 28 1 16 26
M  V30 29 1 17 27
M  V30 30 1 18 28
M  V30 31 1 19 29
M  V30 32 1 20 30
M  V30 END BOND
M  V30 END CTAB
M  END
>  <Dataset>  (848) 
ChEMBL_Kinases

>  <Ligand_Instance>  (848) 
nan

>  <PDB_ID>  (848) 
nan

>  <Standardized_SMILES>  (848) 
O=C1Nc2ccc(Br)cc2/C1=C/C(=O)c1ccccc1

>  <Name>  (848) 
nan

>  <Pocket>  (848) 
nan

>  <ATP_Site>  (848) 
nan

>  <Peripheral>  (848) 
nan

>  <Num_H_Atoms_ProtBoundConf>  (848) 
nan

>  <Num_Resolved_Atoms>  (848) 
nan

>  <Num_Not_Resolved_Atoms>  (848) 
nan

$$$$
CHEMBL3634710
     RDKit          3D

  0  0  0  0  0  0  0  0  0  0999 V3000
M  V30 BEGIN CTAB
M  V30 COUNTS 48 52 0 0 0
M  V30 BEGIN ATOM
M  V30 1 C 4.012327 -3.519836 1.941407 0
M  V30 2 C 3.420785 -3.006178 0.660590 0
M  V30 3 C 3.926869 -3.401333 -0.559685 0
M  V30 4 C 3.399258 -2.942343 -1.745462 0
M  V30 5 F 3.927135 -3.355736 -2.921770 0
M  V30 6 C 2.325273 -2.056218 -1.647561 0
M  V30 7 C 1.804430 -1.648586 -0.436503 0
M  V30 8 C 0.678510 -0.719272 -0.432114 0
M  V30 9 N 0.655351 0.521304 -0.939755 0
M  V30 10 C -0.540004 1.139577 -0.784175 0
M  V30 11 C -0.772785 2.536387 -1.296017 0
M  V30 12 N -0.416007 3.562368 -0.384408 0
M  V30 13 C -0.876495 3.964082 0.880482 0
M  V30 14 C -1.922836 3.281035 1.461589 0
M  V30 15 C -2.445242 3.620898 2.716855 0
M  V30 16 C -1.894980 4.680585 3.404703 0
M  V30 17 C -0.848319 5.371234 2.834079 0
M  V30 18 C -0.355145 5.017333 1.601445 0
M  V30 19 F 0.686729 5.719517 1.054744 0
M  V30 20 N -1.311848 0.242776 -0.145163 0
M  V30 21 C -0.607657 -0.878130 0.077740 0
M  V30 22 C -1.035075 -2.106378 0.737674 0
M  V30 23 C -0.519891 -2.564420 1.935539 0
M  V30 24 C -0.977483 -3.737272 2.483463 0
M  V30 25 C -1.955009 -4.485591 1.860971 0
M  V30 26 N -2.561555 -5.643877 2.179536 0
M  V30 27 C -3.453454 -5.912627 1.187997 0
M  V30 28 N -3.355657 -4.905437 0.300755 0
M  V30 29 N -2.448474 -4.029526 0.696034 0
M  V30 30 C -2.019914 -2.879459 0.130482 0
M  V30 31 N 2.400006 -2.161922 0.656719 0
M  V30 32 H 3.514842 -4.451601 2.256303 0
M  V30 33 H 3.763849 -2.763837 2.716998 0
M  V30 34 H 5.094107 -3.577160 1.833058 0
M  V30 35 H 4.770905 -4.099278 -0.594701 0
M  V30 36 H 1.950640 -1.727891 -2.612596 0
M  V30 37 H 1.503438 0.930378 -1.401579 0
M  V30 38 H -0.203294 2.612380 -2.238071 0
M  V30 39 H -1.876519 2.640630 -1.550673 0
M  V30 40 H 0.388687 4.183892 -0.716825 0
M  V30 41 H -2.445032 2.453547 1.051043 0
M  V30 42 H -3.257126 3.117634 3.207875 0
M  V30 43 H -2.240768 5.002041 4.371987 0
M  V30 44 H -0.363314 6.223130 3.323395 0
M  V30 45 H 0.246517 -1.984393 2.431658 0
M  V30 46 H -0.526004 -4.030179 3.421227 0
M  V30 47 H -4.037932 -6.819761 1.281081 0
M  V30 48 H -2.457812 -2.579703 -0.795646 0
M  V30 END ATOM
M  V30 BEGIN BOND
M  V30 1 1 1 2
M  V30 2 2 2 3
M  V30 3 1 3 4
M  V30 4 1 4 5
M  V30 5 2 4 6
M  V30 6 1 6 7
M  V30 7 1 7 8
M  V30 8 1 8 9
M  V30 9 1 9 10
M  V30 10 1 10 11
M  V30 11 1 11 12
M  V30 12 1 12 13
M  V30 13 2 13 14
M  V30 14 1 14 15
M  V30 15 2 15 16
M  V30 16 1 16 17
M  V30 17 2 17 18
M  V30 18 1 18 19
M  V30 19 2 10 20
M  V30 20 1 20 21
M  V30 21 1 21 22
M  V30 22 1 22 23
M  V30 23 2 23 24
M  V30 24 1 24 25
M  V30 25 2 25 26
M  V30 26 1 26 27
M  V30 27 2 27 28
M  V30 28 1 28 29
M  V30 29 1 29 30
M  V30 30 2 7 31
M  V30 31 1 31 2
M  V30 32 2 21 8
M  V30 33 2 30 22
M  V30 34 1 18 13
M  V30 35 1 29 25
M  V30 36 1 1 32
M  V30 37 1 1 33
M  V30 38 1 1 34
M  V30 39 1 3 35
M  V30 40 1 6 36
M  V30 41 1 9 37
M  V30 42 1 11 38
M  V30 43 1 11 39
M  V30 44 1 12 40
M  V30 45 1 14 41
M  V30 46 1 15 42
M  V30 47 1 16 43
M  V30 48 1 17 44
M  V30 49 1 23 45
M  V30 50 1 24 46
M  V30 51 1 27 47
M  V30 52 1 30 48
M  V30 END BOND
M  V30 END CTAB
M  END
>  <Dataset>  (849) 
ChEMBL_Kinases

>  <Ligand_Instance>  (849) 
nan

>  <PDB_ID>  (849) 
nan

>  <Standardized_SMILES>  (849) 
Cc1cc(F)cc(-c2[nH]c(CNc3ccccc3F)nc2-c2ccc3ncnn3c2)n1

>  <Name>  (849) 
nan

>  <Pocket>  (849) 
nan

>  <ATP_Site>  (849) 
nan

>  <Peripheral>  (849) 
nan

>  <Num_H_Atoms_ProtBoundConf>  (849) 
nan

>  <Num_Resolved_Atoms>  (849) 
nan

>  <Num_Not_Resolved_Atoms>  (849) 
nan

$$$$
CHEMBL3634709
     RDKit          3D

  0  0  0  0  0  0  0  0  0  0999 V3000
M  V30 BEGIN CTAB
M  V30 COUNTS 48 52 0 0 0
M  V30 BEGIN ATOM
M  V30 1 C -0.383122 -1.857467 5.194031 0
M  V30 2 C 0.223360 -2.398082 3.928036 0
M  V30 3 C 0.724600 -3.683201 3.907667 0
M  V30 4 C 1.263280 -4.139096 2.711367 0
M  V30 5 F 1.750900 -5.410966 2.733458 0
M  V30 6 C 1.310728 -3.361582 1.568459 0
M  V30 7 C 0.789942 -2.066567 1.636139 0
M  V30 8 C 0.796951 -1.196039 0.466225 0
M  V30 9 N 1.649282 -0.199716 0.183263 0
M  V30 10 C 1.380298 0.404144 -0.982055 0
M  V30 11 C 1.972158 1.520421 -1.756175 0
M  V30 12 N 1.405153 2.802739 -1.525825 0
M  V30 13 C 1.381492 3.625609 -0.389574 0
M  V30 14 C 1.962214 3.327587 0.822539 0
M  V30 15 C 1.954657 4.113460 1.953022 0
M  V30 16 C 1.301978 5.318689 1.865224 0
M  V30 17 C 0.689778 5.704278 0.695318 0
M  V30 18 C 0.750756 4.850829 -0.383700 0
M  V30 19 N 0.289414 -0.253985 -1.464135 0
M  V30 20 C -0.070174 -1.217366 -0.602500 0
M  V30 21 C -1.177252 -2.157128 -0.722730 0
M  V30 22 C -2.418583 -1.531883 -0.726048 0
M  V30 23 C -3.584467 -2.283691 -0.834726 0
M  V30 24 C -3.525871 -3.654790 -0.939256 0
M  V30 25 N -4.364821 -4.697231 -1.056080 0
M  V30 26 C -3.710503 -5.868371 -1.120851 0
M  V30 27 N -2.391856 -5.537817 -1.039878 0
M  V30 28 N -2.282164 -4.223041 -0.931925 0
M  V30 29 C -1.136359 -3.523465 -0.828807 0
M  V30 30 N 0.278983 -1.668880 2.817824 0
M  V30 31 H -0.952300 -2.656081 5.724120 0
M  V30 32 H -1.155012 -1.095601 4.884582 0
M  V30 33 H 0.346905 -1.326498 5.811157 0
M  V30 34 H 0.701712 -4.313730 4.789558 0
M  V30 35 H 1.737395 -3.744725 0.657220 0
M  V30 36 H 2.439849 0.074332 0.792746 0
M  V30 37 H 3.053155 1.541261 -1.454561 0
M  V30 38 H 1.907473 1.266304 -2.840228 0
M  V30 39 H 0.906884 3.225614 -2.354631 0
M  V30 40 H 2.489533 2.402317 0.946797 0
M  V30 41 H 2.413655 3.851308 2.877434 0
M  V30 42 H 1.229294 6.021717 2.680166 0
M  V30 43 H 0.179745 6.644811 0.627409 0
M  V30 44 H 0.245932 5.212714 -1.295129 0
M  V30 45 H -2.567326 -0.470195 -0.647176 0
M  V30 46 H -4.591244 -1.831140 -0.841156 0
M  V30 47 H -4.315959 -6.758962 -1.217005 0
M  V30 48 H -0.156415 -3.948052 -0.824882 0
M  V30 END ATOM
M  V30 BEGIN BOND
M  V30 1 1 1 2
M  V30 2 2 2 3
M  V30 3 1 3 4
M  V30 4 1 4 5
M  V30 5 2 4 6
M  V30 6 1 6 7
M  V30 7 1 7 8
M  V30 8 1 8 9
M  V30 9 1 9 10
M  V30 10 1 10 11
M  V30 11 1 11 12
M  V30 12 1 12 13
M  V30 13 2 13 14
M  V30 14 1 14 15
M  V30 15 2 15 16
M  V30 16 1 16 17
M  V30 17 2 17 18
M  V30 18 2 10 19
M  V30 19 1 19 20
M  V30 20 1 20 21
M  V30 21 1 21 22
M  V30 22 2 22 23
M  V30 23 1 23 24
M  V30 24 2 24 25
M  V30 25 1 25 26
M  V30 26 2 26 27
M  V30 27 1 27 28
M  V30 28 1 28 29
M  V30 29 2 7 30
M  V30 30 1 30 2
M  V30 31 2 20 8
M  V30 32 2 29 21
M  V30 33 1 18 13
M  V30 34 1 28 24
M  V30 35 1 1 31
M  V30 36 1 1 32
M  V30 37 1 1 33
M  V30 38 1 3 34
M  V30 39 1 6 35
M  V30 40 1 9 36
M  V30 41 1 11 37
M  V30 42 1 11 38
M  V30 43 1 12 39
M  V30 44 1 14 40
M  V30 45 1 15 41
M  V30 46 1 16 42
M  V30 47 1 17 43
M  V30 48 1 18 44
M  V30 49 1 22 45
M  V30 50 1 23 46
M  V30 51 1 26 47
M  V30 52 1 29 48
M  V30 END BOND
M  V30 END CTAB
M  END
>  <Dataset>  (850) 
ChEMBL_Kinases

>  <Ligand_Instance>  (850) 
nan

>  <PDB_ID>  (850) 
nan

>  <Standardized_SMILES>  (850) 
Cc1cc(F)cc(-c2[nH]c(CNc3ccccc3)nc2-c2ccc3ncnn3c2)n1

>  <Name>  (850) 
nan

>  <Pocket>  (850) 
nan

>  <ATP_Site>  (850) 
nan

>  <Peripheral>  (850) 
nan

>  <Num_H_Atoms_ProtBoundConf>  (850) 
nan

>  <Num_Resolved_Atoms>  (850) 
nan

>  <Num_Not_Resolved_Atoms>  (850) 
nan

$$$$
CHEMBL363462
     RDKit          3D

  0  0  0  0  0  0  0  0  0  0999 V3000
M  V30 BEGIN CTAB
M  V30 COUNTS 88 92 0 0 0
M  V30 BEGIN ATOM
M  V30 1 C 6.675521 -2.765831 -0.965762 0
M  V30 2 O 5.380494 -3.099435 -1.384388 0
M  V30 3 C 4.553242 -2.144877 -1.943333 0
M  V30 4 C 5.117242 -0.879989 -2.038223 0
M  V30 5 C 4.381899 0.167266 -2.585184 0
M  V30 6 N 4.850179 1.415603 -2.718508 0
M  V30 7 C 4.106336 2.393806 -3.257448 0
M  V30 8 N 2.860042 2.101240 -3.672064 0
M  V30 9 C 2.307067 0.867686 -3.575614 0
M  V30 10 N 1.001284 0.755166 -4.082784 0
M  V30 11 C -0.363494 0.939458 -3.763514 0
M  V30 12 C -0.834401 1.377299 -2.548325 0
M  V30 13 C -2.154726 1.567733 -2.300812 0
M  V30 14 N -2.753329 1.980965 -1.101301 0
M  V30 15 C -2.215089 2.191784 0.181475 0
M  V30 16 O -0.981863 1.973696 0.310016 0
M  V30 17 C -2.986204 2.633071 1.337695 0
M  V30 18 C -4.237994 3.171282 1.207405 0
M  V30 19 C -5.033965 3.578362 2.260276 0
M  V30 20 N -4.524811 3.427250 3.511855 0
M  V30 21 C -3.294673 2.900279 3.675576 0
M  V30 22 N -2.881643 2.771723 5.026834 0
M  V30 23 C -1.649918 2.164926 5.565907 0
M  V30 24 C -2.043337 1.181615 6.646167 0
M  V30 25 O -3.401686 0.890664 6.666392 0
M  V30 26 C -4.237143 1.970055 6.778741 0
M  V30 27 C -3.658401 3.230711 6.160089 0
M  V30 28 C -2.507555 2.498101 2.620988 0
M  V30 29 C -2.996346 1.290314 -3.355018 0
M  V30 30 C -2.579347 0.849965 -4.587155 0
M  V30 31 C -1.233799 0.669506 -4.797555 0
M  V30 32 C -0.763846 0.185834 -6.133989 0
M  V30 33 C 3.103112 -0.105193 -3.015899 0
M  V30 34 C 2.536366 -1.354307 -2.925206 0
M  V30 35 C 3.251748 -2.396645 -2.386339 0
M  V30 36 O 2.901338 -3.689532 -2.195195 0
M  V30 37 C 1.729935 -4.377046 -2.433984 0
M  V30 38 C 0.520773 -3.860034 -1.650971 0
M  V30 39 N 0.778988 -3.943587 -0.258510 0
M  V30 40 C 0.867279 -5.249981 0.292928 0
M  V30 41 C 1.306049 -5.199476 1.761771 0
M  V30 42 C -0.391283 -6.059211 0.271773 0
M  V30 43 C 0.193867 -2.939665 0.562596 0
M  V30 44 C 0.660627 -1.535477 0.209176 0
M  V30 45 C -1.306196 -2.908066 0.556785 0
M  V30 46 H 7.283971 -2.565336 -1.889362 0
M  V30 47 H 6.719832 -1.902937 -0.259921 0
M  V30 48 H 7.124082 -3.623381 -0.399152 0
M  V30 49 H 6.112409 -0.614156 -1.716271 0
M  V30 50 H 4.511346 3.402497 -3.353524 0
M  V30 51 H 1.315827 0.403653 -5.012796 0
M  V30 52 H -0.129964 1.572487 -1.781544 0
M  V30 53 H -3.797953 2.187709 -1.091025 0
M  V30 54 H -4.721926 3.331897 0.261490 0
M  V30 55 H -6.038459 4.009089 2.145473 0
M  V30 56 H -1.095720 1.638256 4.793601 0
M  V30 57 H -1.075388 2.980831 6.054813 0
M  V30 58 H -1.654986 1.485574 7.662973 0
M  V30 59 H -1.531469 0.223105 6.432285 0
M  V30 60 H -4.603349 2.209499 7.776061 0
M  V30 61 H -5.152092 1.718313 6.164008 0
M  V30 62 H -3.044154 3.792211 6.899531 0
M  V30 63 H -4.526633 3.851132 5.832324 0
M  V30 64 H -1.514016 2.077129 2.791505 0
M  V30 65 H -4.070568 1.407266 -3.269777 0
M  V30 66 H -3.270205 0.643045 -5.380073 0
M  V30 67 H -0.193673 -0.752660 -5.955635 0
M  V30 68 H -0.103071 0.913047 -6.641177 0
M  V30 69 H -1.637713 -0.083048 -6.761988 0
M  V30 70 H 1.541168 -1.554535 -3.271408 0
M  V30 71 H 1.832132 -5.468637 -2.361018 0
M  V30 72 H 1.464147 -4.192692 -3.518603 0
M  V30 73 H -0.294132 -4.611998 -1.898754 0
M  V30 74 H 0.137971 -2.913277 -2.009211 0
M  V30 75 H 1.661236 -5.822487 -0.254593 0
M  V30 76 H 0.468340 -4.958977 2.440102 0
M  V30 77 H 2.099936 -4.442578 1.905475 0
M  V30 78 H 1.725987 -6.177080 2.063424 0
M  V30 79 H -0.918378 -5.912749 1.239714 0
M  V30 80 H -1.032001 -5.945887 -0.597102 0
M  V30 81 H -0.088103 -7.142842 0.279283 0
M  V30 82 H 0.526232 -3.126110 1.602716 0
M  V30 83 H 0.409480 -0.821960 1.008496 0
M  V30 84 H 0.062471 -1.253894 -0.695724 0
M  V30 85 H 1.712362 -1.553048 -0.094414 0
M  V30 86 H -1.789860 -3.880437 0.338314 0
M  V30 87 H -1.701359 -2.101642 -0.125894 0
M  V30 88 H -1.651562 -2.603262 1.564661 0
M  V30 END ATOM
M  V30 BEGIN BOND
M  V30 1 1 1 2
M  V30 2 1 2 3
M  V30 3 2 3 4
M  V30 4 1 4 5
M  V30 5 2 5 6
M  V30 6 1 6 7
M  V30 7 2 7 8
M  V30 8 1 8 9
M  V30 9 1 9 10
M  V30 10 1 10 11
M  V30 11 2 11 12
M  V30 12 1 12 13
M  V30 13 1 13 14
M  V30 14 1 14 15
M  V30 15 2 15 16
M  V30 16 1 15 17
M  V30 17 2 17 18
M  V30 18 1 18 19
M  V30 19 2 19 20
M  V30 20 1 20 21
M  V30 21 1 21 22
M  V30 22 1 22 23
M  V30 23 1 23 24
M  V30 24 1 24 25
M  V30 25 1 25 26
M  V30 26 1 26 27
M  V30 27 2 21 28
M  V30 28 2 13 29
M  V30 29 1 29 30
M  V30 30 2 30 31
M  V30 31 1 31 32
M  V30 32 2 9 33
M  V30 33 1 33 34
M  V30 34 2 34 35
M  V30 35 1 35 36
M  V30 36 1 36 37
M  V30 37 1 37 38
M  V30 38 1 38 39
M  V30 39 1 39 40
M  V30 40 1 40 41
M  V30 41 1 40 42
M  V30 42 1 39 43
M  V30 43 1 43 44
M  V30 44 1 43 45
M  V30 45 1 35 3
M  V30 46 1 33 5
M  V30 47 1 31 11
M  V30 48 1 28 17
M  V30 49 1 27 22
M  V30 50 1 1 46
M  V30 51 1 1 47
M  V30 52 1 1 48
M  V30 53 1 4 49
M  V30 54 1 7 50
M  V30 55 1 10 51
M  V30 56 1 12 52
M  V30 57 1 14 53
M  V30 58 1 18 54
M  V30 59 1 19 55
M  V30 60 1 23 56
M  V30 61 1 23 57
M  V30 62 1 24 58
M  V30 63 1 24 59
M  V30 64 1 26 60
M  V30 65 1 26 61
M  V30 66 1 27 62
M  V30 67 1 27 63
M  V30 68 1 28 64
M  V30 69 1 29 65
M  V30 70 1 30 66
M  V30 71 1 32 67
M  V30 72 1 32 68
M  V30 73 1 32 69
M  V30 74 1 34 70
M  V30 75 1 37 71
M  V30 76 1 37 72
M  V30 77 1 38 73
M  V30 78 1 38 74
M  V30 79 1 40 75
M  V30 80 1 41 76
M  V30 81 1 41 77
M  V30 82 1 41 78
M  V30 83 1 42 79
M  V30 84 1 42 80
M  V30 85 1 42 81
M  V30 86 1 43 82
M  V30 87 1 44 83
M  V30 88 1 44 84
M  V30 89 1 44 85
M  V30 90 1 45 86
M  V30 91 1 45 87
M  V30 92 1 45 88
M  V30 END BOND
M  V30 END CTAB
M  END
>  <Dataset>  (851) 
ChEMBL_Kinases

>  <Ligand_Instance>  (851) 
nan

>  <PDB_ID>  (851) 
nan

>  <Standardized_SMILES>  (851) 
COc1cc2ncnc(Nc3cc(NC(=O)c4ccnc(N5CCOCC5)c4)ccc3C)c2cc1OCCN(C(C)C)C(C)C

>  <Name>  (851) 
nan

>  <Pocket>  (851) 
nan

>  <ATP_Site>  (851) 
nan

>  <Peripheral>  (851) 
nan

>  <Num_H_Atoms_ProtBoundConf>  (851) 
nan

>  <Num_Resolved_Atoms>  (851) 
nan

>  <Num_Not_Resolved_Atoms>  (851) 
nan

$$$$
CHEMBL3634367
     RDKit          3D

  0  0  0  0  0  0  0  0  0  0999 V3000
M  V30 BEGIN CTAB
M  V30 COUNTS 41 44 0 0 0
M  V30 BEGIN ATOM
M  V30 1 C 0.209468 -5.800885 -0.049758 0
M  V30 2 N -0.032195 -4.419519 0.370123 0
M  V30 3 C -1.060370 -4.057867 1.326892 0
M  V30 4 C 0.779399 -3.393451 -0.187604 0
M  V30 5 N 1.749823 -3.674499 -1.075990 0
M  V30 6 C 2.484883 -2.664341 -1.569111 0
M  V30 7 C 2.326110 -1.335222 -1.235207 0
M  V30 8 N 1.353154 -1.063463 -0.346010 0
M  V30 9 C 0.957843 0.113609 0.171544 0
M  V30 10 C 1.429158 1.451897 -0.043844 0
M  V30 11 C 0.830542 2.562280 -0.600494 0
M  V30 12 C 1.512393 3.757734 -0.689111 0
M  V30 13 N 2.772698 3.900983 -0.246177 0
M  V30 14 C 3.392742 2.841766 0.303529 0
M  V30 15 C 2.742123 1.607337 0.415717 0
M  V30 16 C -0.081624 -0.139147 1.041387 0
M  V30 17 C -0.943159 0.658784 1.907543 0
M  V30 18 C -1.882722 1.613877 1.579037 0
M  V30 19 C -2.591424 2.255973 2.572787 0
M  V30 20 C -2.369004 1.951002 3.900078 0
M  V30 21 F -3.101604 2.621378 4.826640 0
M  V30 22 C -1.440279 1.003379 4.279515 0
M  V30 23 C -0.741990 0.372895 3.264634 0
M  V30 24 N -0.280202 -1.479363 1.018171 0
M  V30 25 C 0.604600 -2.056397 0.161417 0
M  V30 26 H 1.292917 -5.984169 0.166922 0
M  V30 27 H 0.014285 -5.817887 -1.146182 0
M  V30 28 H -0.412249 -6.509903 0.511961 0
M  V30 29 H -0.592148 -3.615333 2.211269 0
M  V30 30 H -1.678799 -4.957976 1.582855 0
M  V30 31 H -1.778832 -3.323299 0.916308 0
M  V30 32 H 3.273304 -2.887201 -2.290243 0
M  V30 33 H 2.925298 -0.544785 -1.641913 0
M  V30 34 H -0.175552 2.352484 -0.928071 0
M  V30 35 H 0.872554 4.518565 -1.158142 0
M  V30 36 H 4.406582 3.009894 0.644520 0
M  V30 37 H 3.380934 0.852767 0.883479 0
M  V30 38 H -1.974266 1.768620 0.529845 0
M  V30 39 H -3.313449 2.996697 2.216590 0
M  V30 40 H -1.286534 0.784096 5.320798 0
M  V30 41 H -0.021573 -0.367357 3.639380 0
M  V30 END ATOM
M  V30 BEGIN BOND
M  V30 1 1 1 2
M  V30 2 1 2 3
M  V30 3 1 2 4
M  V30 4 2 4 5
M  V30 5 1 5 6
M  V30 6 2 6 7
M  V30 7 1 7 8
M  V30 8 1 8 9
M  V30 9 1 9 10
M  V30 10 2 10 11
M  V30 11 1 11 12
M  V30 12 2 12 13
M  V30 13 1 13 14
M  V30 14 2 14 15
M  V30 15 2 9 16
M  V30 16 1 16 17
M  V30 17 2 17 18
M  V30 18 1 18 19
M  V30 19 2 19 20
M  V30 20 1 20 21
M  V30 21 1 20 22
M  V30 22 2 22 23
M  V30 23 1 16 24
M  V30 24 2 24 25
M  V30 25 1 25 4
M  V30 26 1 25 8
M  V30 27 1 15 10
M  V30 28 1 23 17
M  V30 29 1 1 26
M  V30 30 1 1 27
M  V30 31 1 1 28
M  V30 32 1 3 29
M  V30 33 1 3 30
M  V30 34 1 3 31
M  V30 35 1 6 32
M  V30 36 1 7 33
M  V30 37 1 11 34
M  V30 38 1 12 35
M  V30 39 1 14 36
M  V30 40 1 15 37
M  V30 41 1 18 38
M  V30 42 1 19 39
M  V30 43 1 22 40
M  V30 44 1 23 41
M  V30 END BOND
M  V30 END CTAB
M  END
>  <Dataset>  (852) 
ChEMBL_Kinases

>  <Ligand_Instance>  (852) 
nan

>  <PDB_ID>  (852) 
nan

>  <Standardized_SMILES>  (852) 
CN(C)c1nccn2c(-c3ccncc3)c(-c3ccc(F)cc3)nc12

>  <Name>  (852) 
nan

>  <Pocket>  (852) 
nan

>  <ATP_Site>  (852) 
nan

>  <Peripheral>  (852) 
nan

>  <Num_H_Atoms_ProtBoundConf>  (852) 
nan

>  <Num_Resolved_Atoms>  (852) 
nan

>  <Num_Not_Resolved_Atoms>  (852) 
nan

$$$$
CHEMBL363418
     RDKit          3D

  0  0  0  0  0  0  0  0  0  0999 V3000
M  V30 BEGIN CTAB
M  V30 COUNTS 66 66 0 0 0
M  V30 BEGIN ATOM
M  V30 1 C 1.623415 -4.243816 5.161174 0
M  V30 2 C 1.904953 -4.276115 3.669212 0
M  V30 3 C 0.868606 -5.115482 3.004784 0
M  V30 4 C 2.223831 -2.964109 3.088297 0
M  V30 5 C 1.293798 -1.841449 3.167311 0
M  V30 6 C 1.925741 -0.591709 2.532397 0
M  V30 7 C 1.089049 0.587774 2.589839 0
M  V30 8 C 0.750521 1.548804 1.786827 0
M  V30 9 C 1.270846 1.606492 0.418502 0
M  V30 10 C 0.386491 2.653517 -0.205960 0
M  V30 11 C 1.173629 3.539527 -1.150682 0
M  V30 12 O 0.346440 4.580745 -1.496833 0
M  V30 13 C -0.868162 2.131585 -0.817336 0
M  V30 14 O -0.655743 1.323695 -1.924356 0
M  V30 15 C -1.891604 0.918401 -2.381405 0
M  V30 16 C -1.858211 0.030509 -3.588202 0
M  V30 17 C -1.208300 0.674280 -4.781776 0
M  V30 18 C -3.314561 -0.222397 -3.979029 0
M  V30 19 C -1.233168 -1.306632 -3.323992 0
M  V30 20 O 0.040617 3.458904 0.906951 0
M  V30 21 C -0.137033 2.676767 2.039844 0
M  V30 22 O -0.859337 2.849417 3.046047 0
M  V30 23 C -0.120717 -1.930599 2.866978 0
M  V30 24 C -0.673299 -2.357525 1.580232 0
M  V30 25 C -2.221375 -2.271278 1.762826 0
M  V30 26 C -0.425306 -1.483039 0.389141 0
M  V30 27 H 1.590304 -5.308079 5.486704 0
M  V30 28 H 2.437955 -3.774324 5.742543 0
M  V30 29 H 0.644684 -3.804944 5.407127 0
M  V30 30 H 2.848825 -4.958717 3.634896 0
M  V30 31 H 1.034168 -5.055845 1.893607 0
M  V30 32 H 0.991719 -6.200486 3.290522 0
M  V30 33 H -0.160749 -4.799488 3.204815 0
M  V30 34 H 2.630222 -3.157615 2.056593 0
M  V30 35 H 3.178214 -2.621902 3.619569 0
M  V30 36 H 1.330152 -1.530509 4.296736 0
M  V30 37 H 2.326975 -0.824454 1.522598 0
M  V30 38 H 2.855186 -0.371418 3.136643 0
M  V30 39 H 0.669503 0.610456 3.594346 0
M  V30 40 H 2.308403 2.050675 0.425361 0
M  V30 41 H 1.337170 0.689228 -0.142853 0
M  V30 42 H 1.614844 3.007303 -1.995778 0
M  V30 43 H 2.006250 3.958950 -0.538119 0
M  V30 44 H 0.853445 5.416268 -1.732952 0
M  V30 45 H -1.534035 1.720230 -0.057500 0
M  V30 46 H -1.407689 3.038519 -1.222066 0
M  V30 47 H -2.511160 1.808010 -2.600217 0
M  V30 48 H -2.442834 0.368770 -1.588885 0
M  V30 49 H -1.629406 1.688156 -4.942357 0
M  V30 50 H -0.112906 0.662659 -4.765984 0
M  V30 51 H -1.513063 0.078231 -5.679562 0
M  V30 52 H -3.800937 -0.703010 -3.108934 0
M  V30 53 H -3.831559 0.732878 -4.199939 0
M  V30 54 H -3.370600 -0.926187 -4.847527 0
M  V30 55 H -0.236371 -1.271677 -2.878174 0
M  V30 56 H -1.258033 -1.860004 -4.307535 0
M  V30 57 H -1.977824 -1.875819 -2.698049 0
M  V30 58 H -0.605034 -0.902063 3.067159 0
M  V30 59 H -0.676449 -2.535296 3.667122 0
M  V30 60 H -0.572257 -3.441857 1.312691 0
M  V30 61 H -2.729348 -2.637648 0.864970 0
M  V30 62 H -2.511896 -2.770627 2.703393 0
M  V30 63 H -2.422993 -1.183131 1.861212 0
M  V30 64 H -1.041590 -1.872713 -0.488129 0
M  V30 65 H -0.787688 -0.474139 0.544592 0
M  V30 66 H 0.602061 -1.518949 0.017806 0
M  V30 END ATOM
M  V30 BEGIN BOND
M  V30 1 1 1 2
M  V30 2 1 2 3
M  V30 3 1 2 4
M  V30 4 1 4 5
M  V30 5 1 5 6
M  V30 6 1 6 7
M  V30 7 2 7 8
M  V30 8 1 8 9
M  V30 9 1 9 10
M  V30 10 1 10 11
M  V30 11 1 11 12
M  V30 12 1 10 13
M  V30 13 1 13 14
M  V30 14 1 14 15
M  V30 15 1 15 16
M  V30 16 1 16 17
M  V30 17 1 16 18
M  V30 18 1 16 19
M  V30 19 1 10 20
M  V30 20 1 20 21
M  V30 21 2 21 22
M  V30 22 1 5 23
M  V30 23 1 23 24
M  V30 24 1 24 25
M  V30 25 1 24 26
M  V30 26 1 21 8
M  V30 27 1 1 27
M  V30 28 1 1 28
M  V30 29 1 1 29
M  V30 30 1 2 30
M  V30 31 1 3 31
M  V30 32 1 3 32
M  V30 33 1 3 33
M  V30 34 1 4 34
M  V30 35 1 4 35
M  V30 36 1 5 36
M  V30 37 1 6 37
M  V30 38 1 6 38
M  V30 39 1 7 39
M  V30 40 1 9 40
M  V30 41 1 9 41
M  V30 42 1 11 42
M  V30 43 1 11 43
M  V30 44 1 12 44
M  V30 45 1 13 45
M  V30 46 1 13 46
M  V30 47 1 15 47
M  V30 48 1 15 48
M  V30 49 1 17 49
M  V30 50 1 17 50
M  V30 51 1 17 51
M  V30 52 1 18 52
M  V30 53 1 18 53
M  V30 54 1 18 54
M  V30 55 1 19 55
M  V30 56 1 19 56
M  V30 57 1 19 57
M  V30 58 1 23 58
M  V30 59 1 23 59
M  V30 60 1 24 60
M  V30 61 1 25 61
M  V30 62 1 25 62
M  V30 63 1 25 63
M  V30 64 1 26 64
M  V30 65 1 26 65
M  V30 66 1 26 66
M  V30 END BOND
M  V30 END CTAB
M  END
>  <Dataset>  (853) 
ChEMBL_Kinases

>  <Ligand_Instance>  (853) 
nan

>  <PDB_ID>  (853) 
nan

>  <Standardized_SMILES>  (853) 
CC(C)CC(C/C=C1\CC(CO)(COCC(C)(C)C)OC1=O)CC(C)C

>  <Name>  (853) 
nan

>  <Pocket>  (853) 
nan

>  <ATP_Site>  (853) 
nan

>  <Peripheral>  (853) 
nan

>  <Num_H_Atoms_ProtBoundConf>  (853) 
nan

>  <Num_Resolved_Atoms>  (853) 
nan

>  <Num_Not_Resolved_Atoms>  (853) 
nan

$$$$
CHEMBL363357
     RDKit          3D

  0  0  0  0  0  0  0  0  0  0999 V3000
M  V30 BEGIN CTAB
M  V30 COUNTS 29 30 0 0 0
M  V30 BEGIN ATOM
M  V30 1 O 3.195676 -3.560499 5.155472 0
M  V30 2 N 2.813509 -3.907517 4.020607 0 CHG=1 VAL=4
M  V30 3 O 2.773626 -5.220148 3.552101 0 CHG=-1 VAL=1
M  V30 4 C 2.389916 -2.866724 3.150825 0
M  V30 5 C 2.543132 -2.928097 1.802558 0
M  V30 6 C 2.154053 -1.962788 0.954102 0
M  V30 7 S 2.156708 -1.645400 -0.748242 0
M  V30 8 O 2.768620 -2.821162 -1.424115 0
M  V30 9 O 2.921964 -0.379259 -1.076372 0
M  V30 10 N 0.543815 -1.427907 -1.329294 0
M  V30 11 C -0.308773 -0.389682 -0.874957 0
M  V30 12 C 0.169833 0.902930 -0.748704 0
M  V30 13 C -0.685194 1.901120 -0.302085 0
M  V30 14 C -2.010058 1.634567 0.021432 0
M  V30 15 C -2.923565 2.710652 0.500368 0
M  V30 16 F -4.043692 2.146442 1.049523 0
M  V30 17 F -2.338291 3.482990 1.496561 0
M  V30 18 F -3.275981 3.564666 -0.524575 0
M  V30 19 C -2.504328 0.337961 -0.101163 0
M  V30 20 C -1.632706 -0.635575 -0.547486 0
M  V30 21 S 1.449374 -0.716817 2.070579 0
M  V30 22 C 1.755503 -1.639074 3.596012 0
M  V30 23 Cl 1.466963 -1.387172 5.410738 0
M  V30 24 H 2.988716 -3.745789 1.255139 0
M  V30 25 H 0.127775 -2.075112 -2.059236 0
M  V30 26 H 1.177893 1.178489 -0.980140 0
M  V30 27 H -0.396067 2.933270 -0.174890 0
M  V30 28 H -3.538190 0.105233 0.146315 0
M  V30 29 H -2.017337 -1.641995 -0.642380 0
M  V30 END ATOM
M  V30 BEGIN BOND
M  V30 1 2 1 2
M  V30 2 1 2 3
M  V30 3 1 2 4
M  V30 4 1 4 5
M  V30 5 2 5 6
M  V30 6 1 6 7
M  V30 7 2 7 8
M  V30 8 2 7 9
M  V30 9 1 7 10
M  V30 10 1 10 11
M  V30 11 2 11 12
M  V30 12 1 12 13
M  V30 13 2 13 14
M  V30 14 1 14 15
M  V30 15 1 15 16
M  V30 16 1 15 17
M  V30 17 1 15 18
M  V30 18 1 14 19
M  V30 19 2 19 20
M  V30 20 1 6 21
M  V30 21 1 21 22
M  V30 22 1 22 23
M  V30 23 2 22 4
M  V30 24 1 20 11
M  V30 25 1 5 24
M  V30 26 1 10 25
M  V30 27 1 12 26
M  V30 28 1 13 27
M  V30 29 1 19 28
M  V30 30 1 20 29
M  V30 END BOND
M  V30 END CTAB
M  END
>  <Dataset>  (854) 
ChEMBL_Kinases

>  <Ligand_Instance>  (854) 
nan

>  <PDB_ID>  (854) 
nan

>  <Standardized_SMILES>  (854) 
O=[N+]([O-])c1cc(S(=O)(=O)Nc2ccc(C(F)(F)F)cc2)sc1Cl

>  <Name>  (854) 
nan

>  <Pocket>  (854) 
nan

>  <ATP_Site>  (854) 
nan

>  <Peripheral>  (854) 
nan

>  <Num_H_Atoms_ProtBoundConf>  (854) 
nan

>  <Num_Resolved_Atoms>  (854) 
nan

>  <Num_Not_Resolved_Atoms>  (854) 
nan

$$$$
CHEMBL363355
     RDKit          3D

  0  0  0  0  0  0  0  0  0  0999 V3000
M  V30 BEGIN CTAB
M  V30 COUNTS 49 52 0 0 0
M  V30 BEGIN ATOM
M  V30 1 N 4.012808 0.507140 5.396868 0
M  V30 2 C 3.429102 0.791467 4.436327 0
M  V30 3 C 2.713233 1.139478 3.240736 0
M  V30 4 C 3.346461 1.336943 2.096938 0
M  V30 5 N 2.855476 1.684261 0.810337 0
M  V30 6 C 3.831483 1.800033 -0.181468 0
M  V30 7 C 3.659248 2.124531 -1.534589 0
M  V30 8 C 4.730694 2.191637 -2.367185 0
M  V30 9 C 6.023769 1.957842 -1.976485 0
M  V30 10 C 6.212539 1.638758 -0.655647 0
M  V30 11 C 5.144518 1.571596 0.176169 0
M  V30 12 S 5.124753 1.180826 1.947183 0
M  V30 13 C 1.258508 1.254857 3.301458 0
M  V30 14 C 0.520484 1.862390 4.314697 0
M  V30 15 C -0.848295 1.842860 4.175393 0
M  V30 16 N -1.471000 1.277813 3.133560 0
M  V30 17 C -0.760529 0.695505 2.163342 0
M  V30 18 N -1.390622 0.071233 1.022170 0
M  V30 19 C -0.547438 -0.550890 0.052547 0
M  V30 20 C -1.249544 -1.185716 -1.100639 0
M  V30 21 C -2.193991 -2.251525 -0.759261 0
M  V30 22 C -3.534539 -1.902048 -0.542446 0
M  V30 23 C -4.482179 -2.879156 -0.213309 0
M  V30 24 C -4.120739 -4.226230 -0.091851 0
M  V30 25 S -5.314562 -5.436741 0.315516 0
M  V30 26 N -5.448615 -5.616172 2.007554 0
M  V30 27 O -6.620667 -5.105596 -0.352163 0
M  V30 28 O -4.854014 -6.778333 -0.233385 0
M  V30 29 C -2.804282 -4.566662 -0.305418 0
M  V30 30 C -1.889805 -3.588482 -0.628019 0
M  V30 31 N 0.578502 0.704169 2.280241 0
M  V30 32 H 1.832815 1.834906 0.664907 0
M  V30 33 H 2.668639 2.335246 -1.969353 0
M  V30 34 H 4.579635 2.446564 -3.420957 0
M  V30 35 H 6.836322 2.026343 -2.683168 0
M  V30 36 H 7.206934 1.444257 -0.293473 0
M  V30 37 H 1.100201 2.293410 5.117538 0
M  V30 38 H -1.394324 2.332240 4.995867 0
M  V30 39 H -2.437610 0.120106 0.985281 0
M  V30 40 H 0.086623 -1.343260 0.542404 0
M  V30 41 H 0.211012 0.151269 -0.382133 0
M  V30 42 H -0.447636 -1.635809 -1.748621 0
M  V30 43 H -1.770440 -0.365544 -1.662820 0
M  V30 44 H -3.903048 -0.896934 -0.614290 0
M  V30 45 H -5.497821 -2.595934 -0.051544 0
M  V30 46 H -6.362796 -5.260146 2.361139 0
M  V30 47 H -4.701513 -5.066016 2.492374 0
M  V30 48 H -2.463861 -5.595696 -0.225507 0
M  V30 49 H -0.860989 -3.878241 -0.791216 0
M  V30 END ATOM
M  V30 BEGIN BOND
M  V30 1 3 1 2
M  V30 2 1 2 3
M  V30 3 2 3 4
M  V30 4 1 4 5
M  V30 5 1 5 6
M  V30 6 2 6 7
M  V30 7 1 7 8
M  V30 8 2 8 9
M  V30 9 1 9 10
M  V30 10 2 10 11
M  V30 11 1 11 12
M  V30 12 1 3 13
M  V30 13 2 13 14
M  V30 14 1 14 15
M  V30 15 2 15 16
M  V30 16 1 16 17
M  V30 17 1 17 18
M  V30 18 1 18 19
M  V30 19 1 19 20
M  V30 20 1 20 21
M  V30 21 2 21 22
M  V30 22 1 22 23
M  V30 23 2 23 24
M  V30 24 1 24 25
M  V30 25 1 25 26
M  V30 26 2 25 27
M  V30 27 2 25 28
M  V30 28 1 24 29
M  V30 29 2 29 30
M  V30 30 2 17 31
M  V30 31 1 12 4
M  V30 32 1 31 13
M  V30 33 1 11 6
M  V30 34 1 30 21
M  V30 35 1 5 32
M  V30 36 1 7 33
M  V30 37 1 8 34
M  V30 38 1 9 35
M  V30 39 1 10 36
M  V30 40 1 14 37
M  V30 41 1 15 38
M  V30 42 1 18 39
M  V30 43 1 19 40
M  V30 44 1 19 41
M  V30 45 1 20 42
M  V30 46 1 20 43
M  V30 47 1 22 44
M  V30 48 1 23 45
M  V30 49 1 26 46
M  V30 50 1 26 47
M  V30 51 1 29 48
M  V30 52 1 30 49
M  V30 END BOND
M  V30 END CTAB
M  END
>  <Dataset>  (855) 
ChEMBL_Kinases

>  <Ligand_Instance>  (855) 
nan

>  <PDB_ID>  (855) 
nan

>  <Standardized_SMILES>  (855) 
N#C/C(=C1/Nc2ccccc2S1)c1ccnc(NCCc2ccc(S(N)(=O)=O)cc2)n1

>  <Name>  (855) 
nan

>  <Pocket>  (855) 
nan

>  <ATP_Site>  (855) 
nan

>  <Peripheral>  (855) 
nan

>  <Num_H_Atoms_ProtBoundConf>  (855) 
nan

>  <Num_Resolved_Atoms>  (855) 
nan

>  <Num_Not_Resolved_Atoms>  (855) 
nan

$$$$
CHEMBL363339
     RDKit          3D

  0  0  0  0  0  0  0  0  0  0999 V3000
M  V30 BEGIN CTAB
M  V30 COUNTS 48 51 0 0 0
M  V30 BEGIN ATOM
M  V30 1 C 6.777474 -3.282164 1.389440 0
M  V30 2 S 6.809184 -2.059607 2.655804 0
M  V30 3 O 5.738262 -2.339541 3.676831 0
M  V30 4 O 8.128438 -2.197841 3.386298 0
M  V30 5 N 6.717294 -0.458402 2.088964 0
M  V30 6 C 5.650474 0.128989 1.353861 0
M  V30 7 C 5.138402 1.374835 1.650382 0
M  V30 8 C 4.099794 1.949234 0.937124 0
M  V30 9 C 3.543244 1.252291 -0.121706 0
M  V30 10 O 2.484704 1.753628 -0.905265 0
M  V30 11 C 1.155755 1.477450 -0.524457 0
M  V30 12 C 0.668848 0.296261 -1.095912 0
M  V30 13 C -0.631415 -0.144326 -0.835352 0
M  V30 14 C -1.432623 0.630636 0.014091 0
M  V30 15 C -2.814839 0.221030 0.330063 0
M  V30 16 N -3.391731 -0.895289 -0.161970 0
M  V30 17 C -4.650065 -1.007490 0.297248 0
M  V30 18 C -5.651223 -1.939746 0.106163 0
M  V30 19 C -6.898717 -1.842730 0.698541 0
M  V30 20 C -7.936381 -2.843407 0.476906 0
M  V30 21 N -7.633843 -3.941186 -0.377137 0
M  V30 22 O -9.046150 -2.661858 1.067246 0
M  V30 23 C -7.087439 -0.741498 1.505114 0
M  V30 24 C -6.109409 0.207824 1.717294 0
M  V30 25 C -4.871053 0.085793 1.112249 0
M  V30 26 N -3.736880 0.812233 1.110914 0
M  V30 27 C -0.917817 1.790840 0.559902 0
M  V30 28 C 0.364050 2.239334 0.312333 0
M  V30 29 C 4.041374 -0.012384 -0.445680 0
M  V30 30 C 5.079776 -0.545988 0.294879 0
M  V30 31 H 7.307505 -4.216511 1.725490 0
M  V30 32 H 7.300851 -2.873212 0.502959 0
M  V30 33 H 5.735672 -3.574164 1.163552 0
M  V30 34 H 7.476832 0.269299 2.240249 0
M  V30 35 H 5.591083 1.892752 2.478573 0
M  V30 36 H 3.710728 2.923760 1.181363 0
M  V30 37 H 1.227075 -0.348867 -1.757098 0
M  V30 38 H -1.026110 -1.050619 -1.264919 0
M  V30 39 H -5.407814 -2.774044 -0.547272 0
M  V30 40 H -7.310645 -3.606297 -1.333960 0
M  V30 41 H -7.829819 -4.775490 0.221666 0
M  V30 42 H -8.031338 -0.599338 1.998752 0
M  V30 43 H -6.275349 1.068108 2.355323 0
M  V30 44 H -3.576347 1.707729 1.633646 0
M  V30 45 H -1.535271 2.408639 1.227714 0
M  V30 46 H 0.821405 3.126706 0.702610 0
M  V30 47 H 3.583761 -0.535772 -1.282833 0
M  V30 48 H 5.394317 -1.516812 -0.025261 0
M  V30 END ATOM
M  V30 BEGIN BOND
M  V30 1 1 1 2
M  V30 2 2 2 3
M  V30 3 2 2 4
M  V30 4 1 2 5
M  V30 5 1 5 6
M  V30 6 2 6 7
M  V30 7 1 7 8
M  V30 8 2 8 9
M  V30 9 1 9 10
M  V30 10 1 10 11
M  V30 11 2 11 12
M  V30 12 1 12 13
M  V30 13 2 13 14
M  V30 14 1 14 15
M  V30 15 2 15 16
M  V30 16 1 16 17
M  V30 17 2 17 18
M  V30 18 1 18 19
M  V30 19 1 19 20
M  V30 20 1 20 21
M  V30 21 2 20 22
M  V30 22 2 19 23
M  V30 23 1 23 24
M  V30 24 2 24 25
M  V30 25 1 25 26
M  V30 26 1 14 27
M  V30 27 2 27 28
M  V30 28 1 9 29
M  V30 29 2 29 30
M  V30 30 1 30 6
M  V30 31 1 28 11
M  V30 32 1 26 15
M  V30 33 1 25 17
M  V30 34 1 1 31
M  V30 35 1 1 32
M  V30 36 1 1 33
M  V30 37 1 5 34
M  V30 38 1 7 35
M  V30 39 1 8 36
M  V30 40 1 12 37
M  V30 41 1 13 38
M  V30 42 1 18 39
M  V30 43 1 21 40
M  V30 44 1 21 41
M  V30 45 1 23 42
M  V30 46 1 24 43
M  V30 47 1 26 44
M  V30 48 1 27 45
M  V30 49 1 28 46
M  V30 50 1 29 47
M  V30 51 1 30 48
M  V30 END BOND
M  V30 END CTAB
M  END
>  <Dataset>  (856) 
ChEMBL_Kinases

>  <Ligand_Instance>  (856) 
nan

>  <PDB_ID>  (856) 
nan

>  <Standardized_SMILES>  (856) 
CS(=O)(=O)Nc1ccc(Oc2ccc(-c3nc4cc(C(N)=O)ccc4[nH]3)cc2)cc1

>  <Name>  (856) 
nan

>  <Pocket>  (856) 
nan

>  <ATP_Site>  (856) 
nan

>  <Peripheral>  (856) 
nan

>  <Num_H_Atoms_ProtBoundConf>  (856) 
nan

>  <Num_Resolved_Atoms>  (856) 
nan

>  <Num_Not_Resolved_Atoms>  (856) 
nan

$$$$
CHEMBL3632746
     RDKit          3D

  0  0  0  0  0  0  0  0  0  0999 V3000
M  V30 BEGIN CTAB
M  V30 COUNTS 52 54 0 0 0
M  V30 BEGIN ATOM
M  V30 1 C 3.414932 -1.223724 7.027930 0
M  V30 2 O 3.834392 -1.168850 5.692131 0
M  V30 3 C 4.124321 -2.429464 5.273087 0
M  V30 4 C 4.597711 -2.583643 3.849199 0
M  V30 5 N 3.672060 -2.143300 2.851357 0
M  V30 6 C 3.120041 -0.915454 2.566862 0
M  V30 7 O 3.616892 -0.099645 3.425706 0
M  V30 8 C 2.189333 -0.346551 1.616891 0
M  V30 9 S 1.964965 1.377333 1.890614 0
M  V30 10 C 0.766575 1.640209 0.526881 0
M  V30 11 N 0.113961 2.719177 0.083626 0
M  V30 12 C -0.730912 2.652074 -0.952754 0
M  V30 13 N -0.828767 1.442192 -1.452278 0
M  V30 14 C -0.212695 0.328669 -1.063959 0
M  V30 15 N -0.555213 -0.817719 -1.825753 0
M  V30 16 C -1.476536 -0.743889 -2.874775 0
M  V30 17 C -1.165528 -0.941669 -4.230691 0
M  V30 18 C -2.095356 -0.854334 -5.254549 0
M  V30 19 C -3.382802 -0.559770 -4.921464 0
M  V30 20 F -4.169663 -0.507801 -6.022712 0
M  V30 21 C -3.700571 -0.362765 -3.571188 0
M  V30 22 C -2.762706 -0.450570 -2.522640 0
M  V30 23 O -3.517167 -0.197021 -1.443056 0
M  V30 24 C -3.373210 -0.158768 -0.100760 0
M  V30 25 C -3.533032 1.266871 0.419593 0
M  V30 26 C -4.468038 -0.984877 0.615267 0
M  V30 27 C 0.668363 0.322374 -0.008262 0
M  V30 28 C 1.405665 -0.658047 0.571321 0
M  V30 29 C 1.347463 -2.037769 0.042046 0
M  V30 30 H 4.259928 -1.656606 7.599787 0
M  V30 31 H 3.194893 -0.210324 7.408493 0
M  V30 32 H 2.484724 -1.850787 7.091263 0
M  V30 33 H 4.931213 -2.845177 5.918758 0
M  V30 34 H 3.217806 -3.076191 5.438440 0
M  V30 35 H 4.777561 -3.696612 3.734853 0
M  V30 36 H 5.608915 -2.114627 3.720512 0
M  V30 37 H 3.357717 -2.906706 2.222733 0
M  V30 38 H -1.213028 3.556361 -1.246631 0
M  V30 39 H -0.384413 -1.832620 -1.934617 0
M  V30 40 H -0.092695 -1.170830 -4.341917 0
M  V30 41 H -1.605153 -1.047370 -6.195228 0
M  V30 42 H -4.784979 -0.144742 -3.596429 0
M  V30 43 H -2.420091 -0.593230 0.243684 0
M  V30 44 H -4.532857 1.389127 0.866696 0
M  V30 45 H -3.501700 1.974014 -0.457362 0
M  V30 46 H -2.760269 1.447409 1.166122 0
M  V30 47 H -5.443844 -0.754113 0.153037 0
M  V30 48 H -4.485992 -0.604718 1.654503 0
M  V30 49 H -4.221644 -2.049113 0.629570 0
M  V30 50 H 1.713719 -2.079818 -1.028205 0
M  V30 51 H 0.348437 -2.500354 0.175766 0
M  V30 52 H 2.051616 -2.692786 0.552193 0
M  V30 END ATOM
M  V30 BEGIN BOND
M  V30 1 1 1 2
M  V30 2 1 2 3
M  V30 3 1 3 4
M  V30 4 1 4 5
M  V30 5 1 5 6
M  V30 6 2 6 7
M  V30 7 1 6 8
M  V30 8 1 8 9
M  V30 9 1 9 10
M  V30 10 2 10 11
M  V30 11 1 11 12
M  V30 12 2 12 13
M  V30 13 1 13 14
M  V30 14 1 14 15
M  V30 15 1 15 16
M  V30 16 2 16 17
M  V30 17 1 17 18
M  V30 18 2 18 19
M  V30 19 1 19 20
M  V30 20 1 19 21
M  V30 21 2 21 22
M  V30 22 1 22 23
M  V30 23 1 23 24
M  V30 24 1 24 25
M  V30 25 1 24 26
M  V30 26 2 14 27
M  V30 27 1 27 28
M  V30 28 1 28 29
M  V30 29 2 28 8
M  V30 30 1 27 10
M  V30 31 1 22 16
M  V30 32 1 1 30
M  V30 33 1 1 31
M  V30 34 1 1 32
M  V30 35 1 3 33
M  V30 36 1 3 34
M  V30 37 1 4 35
M  V30 38 1 4 36
M  V30 39 1 5 37
M  V30 40 1 12 38
M  V30 41 1 15 39
M  V30 42 1 17 40
M  V30 43 1 18 41
M  V30 44 1 21 42
M  V30 45 1 24 43
M  V30 46 1 25 44
M  V30 47 1 25 45
M  V30 48 1 25 46
M  V30 49 1 26 47
M  V30 50 1 26 48
M  V30 51 1 26 49
M  V30 52 1 29 50
M  V30 53 1 29 51
M  V30 54 1 29 52
M  V30 END BOND
M  V30 END CTAB
M  END
>  <Dataset>  (857) 
ChEMBL_Kinases

>  <Ligand_Instance>  (857) 
nan

>  <PDB_ID>  (857) 
nan

>  <Standardized_SMILES>  (857) 
COCCNC(=O)c1sc2ncnc(Nc3ccc(F)cc3OC(C)C)c2c1C

>  <Name>  (857) 
nan

>  <Pocket>  (857) 
nan

>  <ATP_Site>  (857) 
nan

>  <Peripheral>  (857) 
nan

>  <Num_H_Atoms_ProtBoundConf>  (857) 
nan

>  <Num_Resolved_Atoms>  (857) 
nan

>  <Num_Not_Resolved_Atoms>  (857) 
nan

$$$$
CHEMBL3632741
     RDKit          3D

  0  0  0  0  0  0  0  0  0  0999 V3000
M  V30 BEGIN CTAB
M  V30 COUNTS 34 36 0 0 0
M  V30 BEGIN ATOM
M  V30 1 C 0.245176 -2.239660 1.616866 0
M  V30 2 C 1.421011 -2.467885 0.763393 0
M  V30 3 C 2.243810 -3.551293 0.871047 0
M  V30 4 C 3.333406 -3.690914 0.044021 0
M  V30 5 F 4.082826 -4.806454 0.239691 0
M  V30 6 C 3.559778 -2.703139 -0.888734 0
M  V30 7 C 2.724297 -1.602166 -0.998388 0
M  V30 8 C 1.610385 -1.462535 -0.150554 0
M  V30 9 N 0.949698 -0.246268 -0.467016 0
M  V30 10 C 0.637618 0.872555 0.343097 0
M  V30 11 N 1.764679 1.537204 0.624099 0
M  V30 12 C 1.806236 2.659355 1.370419 0
M  V30 13 N 0.632960 3.099083 1.836420 0
M  V30 14 C -0.493785 2.419499 1.545267 0
M  V30 15 S -2.218818 2.731549 1.985453 0
M  V30 16 C -2.890718 1.335923 1.140866 0
M  V30 17 C -4.302883 1.099082 1.154796 0
M  V30 18 O -5.034833 1.932150 1.793923 0
M  V30 19 O -5.110007 0.145078 0.618490 0
M  V30 20 C -1.802267 0.708342 0.576127 0
M  V30 21 C -2.155558 -0.514644 -0.179946 0
M  V30 22 C -0.585625 1.281847 0.796559 0
M  V30 23 H -0.690009 -2.589423 1.131944 0
M  V30 24 H 0.347987 -2.931162 2.508243 0
M  V30 25 H 0.219549 -1.210755 1.979084 0
M  V30 26 H 1.937769 -4.241676 1.651678 0
M  V30 27 H 4.426395 -2.849723 -1.522710 0
M  V30 28 H 3.047131 -0.909963 -1.793135 0
M  V30 29 H 0.620641 -0.033177 -1.423824 0
M  V30 30 H 2.676877 3.235050 1.628856 0
M  V30 31 H -6.034768 -0.113066 0.928117 0
M  V30 32 H -1.350464 -0.967919 -0.762223 0
M  V30 33 H -2.921621 -0.214531 -0.956362 0
M  V30 34 H -2.698482 -1.253849 0.452678 0
M  V30 END ATOM
M  V30 BEGIN BOND
M  V30 1 1 1 2
M  V30 2 2 2 3
M  V30 3 1 3 4
M  V30 4 1 4 5
M  V30 5 2 4 6
M  V30 6 1 6 7
M  V30 7 2 7 8
M  V30 8 1 8 9
M  V30 9 1 9 10
M  V30 10 2 10 11
M  V30 11 1 11 12
M  V30 12 2 12 13
M  V30 13 1 13 14
M  V30 14 1 14 15
M  V30 15 1 15 16
M  V30 16 1 16 17
M  V30 17 2 17 18
M  V30 18 1 17 19
M  V30 19 2 16 20
M  V30 20 1 20 21
M  V30 21 1 20 22
M  V30 22 1 8 2
M  V30 23 1 22 10
M  V30 24 2 22 14
M  V30 25 1 1 23
M  V30 26 1 1 24
M  V30 27 1 1 25
M  V30 28 1 3 26
M  V30 29 1 6 27
M  V30 30 1 7 28
M  V30 31 1 9 29
M  V30 32 1 12 30
M  V30 33 1 19 31
M  V30 34 1 21 32
M  V30 35 1 21 33
M  V30 36 1 21 34
M  V30 END BOND
M  V30 END CTAB
M  END
>  <Dataset>  (858) 
ChEMBL_Kinases

>  <Ligand_Instance>  (858) 
nan

>  <PDB_ID>  (858) 
nan

>  <Standardized_SMILES>  (858) 
Cc1cc(F)ccc1Nc1ncnc2sc(C(=O)O)c(C)c12

>  <Name>  (858) 
nan

>  <Pocket>  (858) 
nan

>  <ATP_Site>  (858) 
nan

>  <Peripheral>  (858) 
nan

>  <Num_H_Atoms_ProtBoundConf>  (858) 
nan

>  <Num_Resolved_Atoms>  (858) 
nan

>  <Num_Not_Resolved_Atoms>  (858) 
nan

$$$$
CHEMBL36327
     RDKit          3D

  0  0  0  0  0  0  0  0  0  0999 V3000
M  V30 BEGIN CTAB
M  V30 COUNTS 50 53 0 0 0
M  V30 BEGIN ATOM
M  V30 1 O -0.735614 -2.527911 -1.501895 0
M  V30 2 C -0.420448 -2.160942 -0.340433 0
M  V30 3 O 0.483282 -1.157224 -0.116257 0
M  V30 4 C 1.175752 -0.405630 -1.061062 0 CFG=2
M  V30 5 C 2.652061 -0.638257 -0.961167 0
M  V30 6 C 3.278736 0.170308 0.130272 0
M  V30 7 C 4.462294 -0.189050 0.719355 0
M  V30 8 O 5.034062 -1.349167 0.233718 0
M  V30 9 C 5.041157 0.553999 1.724830 0
M  V30 10 C 4.369049 1.706000 2.130425 0
M  V30 11 O 4.952006 2.470017 3.155309 0
M  V30 12 C 3.172072 2.074738 1.538788 0
M  V30 13 C 2.615167 1.310480 0.532883 0
M  V30 14 O 1.431007 1.772129 0.023249 0
M  V30 15 C 0.812783 1.059192 -1.044922 0 CFG=2
M  V30 16 C -0.656521 1.261972 -0.950720 0
M  V30 17 C -1.421932 1.563080 -2.082216 0
M  V30 18 C -2.787223 1.754958 -2.014270 0
M  V30 19 C -3.424118 1.649493 -0.804599 0
M  V30 20 O -4.803238 1.852489 -0.791556 0
M  V30 21 C -2.698078 1.349882 0.352912 0
M  V30 22 O -3.400604 1.256283 1.549868 0
M  V30 23 C -1.349722 1.168162 0.238956 0
M  V30 24 C -1.044612 -2.834053 0.797370 0
M  V30 25 C -1.962604 -3.852932 0.621178 0
M  V30 26 C -2.572718 -4.511616 1.668441 0
M  V30 27 O -3.495014 -5.536182 1.433627 0
M  V30 28 C -2.263330 -4.148317 2.982557 0
M  V30 29 O -2.858165 -4.789576 4.062360 0
M  V30 30 C -1.337765 -3.121179 3.154334 0
M  V30 31 O -0.992604 -2.718750 4.444860 0
M  V30 32 C -0.740835 -2.477518 2.080223 0
M  V30 33 H 0.855092 -0.776457 -2.072779 0
M  V30 34 H 2.879551 -1.693285 -0.728946 0
M  V30 35 H 3.151659 -0.334332 -1.907177 0
M  V30 36 H 5.034228 -1.568402 -0.759718 0
M  V30 37 H 5.981868 0.233917 2.166009 0
M  V30 38 H 4.689545 3.438184 3.307196 0
M  V30 39 H 2.728194 2.984537 1.923036 0
M  V30 40 H 1.125708 1.573688 -1.976912 0
M  V30 41 H -0.878923 1.640003 -3.036066 0
M  V30 42 H -3.254099 1.982832 -2.970925 0
M  V30 43 H -5.439285 1.280917 -1.341306 0
M  V30 44 H -2.897515 1.513064 2.391718 0
M  V30 45 H -0.838341 0.941880 1.145447 0
M  V30 46 H -2.212566 -4.145744 -0.408754 0
M  V30 47 H -3.425145 -6.146232 0.622131 0
M  V30 48 H -3.094565 -5.769529 3.954802 0
M  V30 49 H 0.004487 -2.672096 4.666651 0
M  V30 50 H -0.022654 -1.679259 2.288435 0
M  V30 END ATOM
M  V30 BEGIN BOND
M  V30 1 2 1 2
M  V30 2 1 2 3
M  V30 3 1 3 4
M  V30 4 1 4 5
M  V30 5 1 5 6
M  V30 6 2 6 7
M  V30 7 1 7 8
M  V30 8 1 7 9
M  V30 9 2 9 10
M  V30 10 1 10 11
M  V30 11 1 10 12
M  V30 12 2 12 13
M  V30 13 1 13 14
M  V30 14 1 14 15
M  V30 15 1 15 16
M  V30 16 2 16 17
M  V30 17 1 17 18
M  V30 18 2 18 19
M  V30 19 1 19 20
M  V30 20 1 19 21
M  V30 21 1 21 22
M  V30 22 2 21 23
M  V30 23 1 2 24
M  V30 24 2 24 25
M  V30 25 1 25 26
M  V30 26 1 26 27
M  V30 27 2 26 28
M  V30 28 1 28 29
M  V30 29 1 28 30
M  V30 30 1 30 31
M  V30 31 2 30 32
M  V30 32 1 15 4
M  V30 33 1 23 16
M  V30 34 1 32 24
M  V30 35 1 13 6
M  V30 36 1 4 33 CFG=3
M  V30 37 1 5 34
M  V30 38 1 5 35
M  V30 39 1 8 36
M  V30 40 1 9 37
M  V30 41 1 11 38
M  V30 42 1 12 39
M  V30 43 1 15 40 CFG=3
M  V30 44 1 17 41
M  V30 45 1 18 42
M  V30 46 1 20 43
M  V30 47 1 22 44
M  V30 48 1 23 45
M  V30 49 1 25 46
M  V30 50 1 27 47
M  V30 51 1 29 48
M  V30 52 1 31 49
M  V30 53 1 32 50
M  V30 END BOND
M  V30 END CTAB
M  END
>  <Dataset>  (859) 
ChEMBL_Kinases

>  <Ligand_Instance>  (859) 
nan

>  <PDB_ID>  (859) 
nan

>  <Standardized_SMILES>  (859) 
O=C(O[C@@H]1Cc2c(O)cc(O)cc2O[C@@H]1c1ccc(O)c(O)c1)c1cc(O)c(O)c(O)c1

>  <Name>  (859) 
EPICATECHIN GALLATE

>  <Pocket>  (859) 
nan

>  <ATP_Site>  (859) 
nan

>  <Peripheral>  (859) 
nan

>  <Num_H_Atoms_ProtBoundConf>  (859) 
nan

>  <Num_Resolved_Atoms>  (859) 
nan

>  <Num_Not_Resolved_Atoms>  (859) 
nan

$$$$
CHEMBL363258
     RDKit          3D

  0  0  0  0  0  0  0  0  0  0999 V3000
M  V30 BEGIN CTAB
M  V30 COUNTS 35 37 0 0 0
M  V30 BEGIN ATOM
M  V30 1 N 0.521172 -2.424152 3.547095 0
M  V30 2 C 0.276731 -3.398546 2.574055 0
M  V30 3 C 0.041272 -3.015141 1.160258 0
M  V30 4 C 1.137621 -2.244199 0.506688 0
M  V30 5 C 1.358747 -0.840452 0.992439 0
M  V30 6 N 0.308751 0.076166 0.703001 0
M  V30 7 C 0.402538 0.682120 -0.528403 0
M  V30 8 C 1.392861 0.551199 -1.607233 0
M  V30 9 N 2.500528 -0.202412 -1.704139 0
M  V30 10 O 3.112097 -0.027300 -2.833393 0
M  V30 11 N 2.460104 0.833188 -3.534940 0
M  V30 12 C 1.391272 1.214156 -2.811449 0
M  V30 13 N 0.449999 2.165280 -3.294513 0
M  V30 14 N -0.634067 1.548726 -0.725125 0
M  V30 15 C -1.426535 1.540083 0.351236 0
M  V30 16 C -2.576876 2.154650 0.782020 0
M  V30 17 N -3.100454 1.876138 2.008411 0
M  V30 18 C -2.484682 0.980948 2.823375 0
M  V30 19 C -1.338955 0.363243 2.404010 0
M  V30 20 C -0.806114 0.637269 1.171120 0
M  V30 21 H 1.474837 -2.422342 3.968898 0
M  V30 22 H -0.232108 -2.282925 4.258008 0
M  V30 23 H 1.122849 -4.142150 2.612008 0
M  V30 24 H -0.595363 -4.029251 2.953366 0
M  V30 25 H -0.953328 -2.534651 0.995362 0
M  V30 26 H -0.040282 -3.980598 0.569802 0
M  V30 27 H 0.972000 -2.249687 -0.613840 0
M  V30 28 H 2.070607 -2.859746 0.612348 0
M  V30 29 H 1.540870 -0.913994 2.109612 0
M  V30 30 H 2.368829 -0.501583 0.620684 0
M  V30 31 H -0.104434 2.192527 -4.191526 0
M  V30 32 H 0.137932 3.047047 -2.803758 0
M  V30 33 H -3.006095 2.853504 0.076123 0
M  V30 34 H -2.929562 0.787981 3.785702 0
M  V30 35 H -0.918600 -0.306552 3.091987 0
M  V30 END ATOM
M  V30 BEGIN BOND
M  V30 1 1 1 2
M  V30 2 1 2 3
M  V30 3 1 3 4
M  V30 4 1 4 5
M  V30 5 1 5 6
M  V30 6 1 6 7
M  V30 7 1 7 8
M  V30 8 2 8 9
M  V30 9 1 9 10
M  V30 10 1 10 11
M  V30 11 2 11 12
M  V30 12 1 12 13
M  V30 13 2 7 14
M  V30 14 1 14 15
M  V30 15 2 15 16
M  V30 16 1 16 17
M  V30 17 2 17 18
M  V30 18 1 18 19
M  V30 19 2 19 20
M  V30 20 1 20 6
M  V30 21 1 12 8
M  V30 22 1 20 15
M  V30 23 1 1 21
M  V30 24 1 1 22
M  V30 25 1 2 23
M  V30 26 1 2 24
M  V30 27 1 3 25
M  V30 28 1 3 26
M  V30 29 1 4 27
M  V30 30 1 4 28
M  V30 31 1 5 29
M  V30 32 1 5 30
M  V30 33 1 13 31
M  V30 34 1 13 32
M  V30 35 1 16 33
M  V30 36 1 18 34
M  V30 37 1 19 35
M  V30 END BOND
M  V30 END CTAB
M  END
>  <Dataset>  (860) 
ChEMBL_Kinases

>  <Ligand_Instance>  (860) 
nan

>  <PDB_ID>  (860) 
nan

>  <Standardized_SMILES>  (860) 
NCCCCn1c(-c2nonc2N)nc2cnccc21

>  <Name>  (860) 
nan

>  <Pocket>  (860) 
nan

>  <ATP_Site>  (860) 
nan

>  <Peripheral>  (860) 
nan

>  <Num_H_Atoms_ProtBoundConf>  (860) 
nan

>  <Num_Resolved_Atoms>  (860) 
nan

>  <Num_Not_Resolved_Atoms>  (860) 
nan

$$$$
CHEMBL363254
     RDKit          3D

  0  0  0  0  0  0  0  0  0  0999 V3000
M  V30 BEGIN CTAB
M  V30 COUNTS 44 47 0 0 0
M  V30 BEGIN ATOM
M  V30 1 C 3.937197 -4.529423 1.603776 0
M  V30 2 N 3.193920 -3.830214 0.570851 0
M  V30 3 C 2.751846 -4.476529 -0.533276 0
M  V30 4 N 2.088480 -3.646192 -1.339049 0
M  V30 5 C 2.081249 -2.427513 -0.774870 0
M  V30 6 C 1.476147 -1.160728 -1.215095 0
M  V30 7 C 2.351747 -0.302012 -2.081042 0
M  V30 8 N 1.623674 0.917553 -2.437966 0
M  V30 9 C 1.133190 1.947205 -1.593860 0
M  V30 10 N 1.814349 3.105636 -1.593902 0
M  V30 11 C 1.436693 4.144957 -0.830184 0
M  V30 12 C 0.307131 3.939791 -0.049536 0
M  V30 13 C -0.425661 2.744203 -0.025940 0
M  V30 14 C -1.573414 2.769001 0.862910 0
M  V30 15 C -2.380501 3.960584 0.943042 0
M  V30 16 N -3.038903 4.933669 0.990393 0
M  V30 17 C -1.878367 1.726537 1.587544 0
M  V30 18 N -1.277712 0.445902 1.713916 0
M  V30 19 C -1.915467 -0.470376 2.578635 0
M  V30 20 C -1.426544 -1.768838 2.770936 0
M  V30 21 C -2.172399 -2.571760 3.640993 0
M  V30 22 C -3.304143 -2.123638 4.265534 0
M  V30 23 C -3.761174 -0.842970 4.058801 0
M  V30 24 C -3.033292 -0.017738 3.192600 0
M  V30 25 S -3.304779 1.684332 2.700465 0
M  V30 26 N 0.018269 1.727460 -0.831338 0
M  V30 27 C 2.781884 -2.554241 0.429879 0
M  V30 28 H 4.897734 -4.857359 1.178455 0
M  V30 29 H 3.332859 -5.407184 1.956445 0
M  V30 30 H 4.072556 -3.860959 2.479699 0
M  V30 31 H 2.819698 -5.504238 -0.895126 0
M  V30 32 H 0.578404 -1.415857 -1.818870 0
M  V30 33 H 1.184063 -0.561695 -0.329962 0
M  V30 34 H 3.273085 -0.019058 -1.546646 0
M  V30 35 H 2.618436 -0.826945 -3.004484 0
M  V30 36 H 1.379077 1.157039 -3.445289 0
M  V30 37 H 1.965345 5.088305 -0.812213 0
M  V30 38 H 0.022508 4.808888 0.566672 0
M  V30 39 H -0.406618 0.325911 1.138811 0
M  V30 40 H -0.548688 -2.217951 2.327263 0
M  V30 41 H -1.838342 -3.583607 3.823299 0
M  V30 42 H -3.819493 -2.823404 4.927585 0
M  V30 43 H -4.648309 -0.469923 4.539638 0
M  V30 44 H 3.012153 -1.827442 1.188087 0
M  V30 END ATOM
M  V30 BEGIN BOND
M  V30 1 1 1 2
M  V30 2 1 2 3
M  V30 3 2 3 4
M  V30 4 1 4 5
M  V30 5 1 5 6
M  V30 6 1 6 7
M  V30 7 1 7 8
M  V30 8 1 8 9
M  V30 9 2 9 10
M  V30 10 1 10 11
M  V30 11 2 11 12
M  V30 12 1 12 13
M  V30 13 1 13 14
M  V30 14 1 14 15
M  V30 15 3 15 16
M  V30 16 2 14 17
M  V30 17 1 17 18
M  V30 18 1 18 19
M  V30 19 2 19 20
M  V30 20 1 20 21
M  V30 21 2 21 22
M  V30 22 1 22 23
M  V30 23 2 23 24
M  V30 24 1 24 25
M  V30 25 2 13 26
M  V30 26 2 5 27
M  V30 27 1 27 2
M  V30 28 1 26 9
M  V30 29 1 25 17
M  V30 30 1 24 19
M  V30 31 1 1 28
M  V30 32 1 1 29
M  V30 33 1 1 30
M  V30 34 1 3 31
M  V30 35 1 6 32
M  V30 36 1 6 33
M  V30 37 1 7 34
M  V30 38 1 7 35
M  V30 39 1 8 36
M  V30 40 1 11 37
M  V30 41 1 12 38
M  V30 42 1 18 39
M  V30 43 1 20 40
M  V30 44 1 21 41
M  V30 45 1 22 42
M  V30 46 1 23 43
M  V30 47 1 27 44
M  V30 END BOND
M  V30 END CTAB
M  END
>  <Dataset>  (861) 
ChEMBL_Kinases

>  <Ligand_Instance>  (861) 
nan

>  <PDB_ID>  (861) 
nan

>  <Standardized_SMILES>  (861) 
Cn1cnc(CCNc2nccc(/C(C#N)=C3\Nc4ccccc4S3)n2)c1

>  <Name>  (861) 
nan

>  <Pocket>  (861) 
nan

>  <ATP_Site>  (861) 
nan

>  <Peripheral>  (861) 
nan

>  <Num_H_Atoms_ProtBoundConf>  (861) 
nan

>  <Num_Resolved_Atoms>  (861) 
nan

>  <Num_Not_Resolved_Atoms>  (861) 
nan

$$$$
CHEMBL363253
     RDKit          3D

  0  0  0  0  0  0  0  0  0  0999 V3000
M  V30 BEGIN CTAB
M  V30 COUNTS 44 47 0 0 0
M  V30 BEGIN ATOM
M  V30 1 N 5.072149 1.493119 3.686554 0
M  V30 2 C 4.088557 1.429139 3.044001 0
M  V30 3 C 2.873738 1.335526 2.251255 0
M  V30 4 C 2.973164 1.193699 0.945868 0
M  V30 5 N 1.948299 1.081684 -0.031589 0
M  V30 6 C 2.383197 0.908698 -1.344668 0
M  V30 7 C 1.605141 0.758339 -2.494231 0
M  V30 8 C 2.206721 0.585429 -3.707684 0
M  V30 9 C 3.567401 0.544919 -3.903258 0
M  V30 10 C 4.344423 0.692161 -2.780739 0
M  V30 11 C 3.738109 0.866317 -1.559507 0
M  V30 12 S 4.523366 1.092673 0.057365 0
M  V30 13 C 1.572351 1.392850 2.910373 0
M  V30 14 C 1.336367 2.218490 4.013334 0
M  V30 15 C 0.110264 2.275244 4.646075 0
M  V30 16 N -0.895610 1.499918 4.176001 0
M  V30 17 C -0.701452 0.687632 3.108303 0
M  V30 18 N -1.695812 -0.185453 2.525055 0
M  V30 19 C -1.511055 -1.457404 3.132930 0
M  V30 20 C -2.447109 -2.544159 2.680580 0
M  V30 21 C -2.391318 -2.848639 1.243675 0
M  V30 22 C -1.681601 -3.978284 0.825348 0
M  V30 23 C -1.536727 -4.381348 -0.497489 0
M  V30 24 C -2.131548 -3.619756 -1.470537 0
M  V30 25 C -2.843632 -2.495087 -1.113046 0
M  V30 26 C -2.957415 -2.138476 0.212967 0
M  V30 27 F -3.670443 -1.037443 0.545763 0
M  V30 28 N 0.497654 0.677178 2.543170 0
M  V30 29 H 0.956078 1.135541 0.281166 0
M  V30 30 H 0.503766 0.772595 -2.466870 0
M  V30 31 H 1.575523 0.469413 -4.598726 0
M  V30 32 H 3.961591 0.405198 -4.891023 0
M  V30 33 H 5.421870 0.672040 -2.852385 0
M  V30 34 H 2.143653 2.845660 4.395984 0
M  V30 35 H -0.097767 2.905276 5.499216 0
M  V30 36 H -2.068666 0.578998 1.926694 0
M  V30 37 H -0.455822 -1.818697 2.994994 0
M  V30 38 H -1.709873 -1.342255 4.239074 0
M  V30 39 H -2.158601 -3.451731 3.280439 0
M  V30 40 H -3.496567 -2.275118 2.953038 0
M  V30 41 H -1.202555 -4.593000 1.596502 0
M  V30 42 H -0.976448 -5.259875 -0.738903 0
M  V30 43 H -2.056608 -3.878302 -2.516686 0
M  V30 44 H -3.318867 -1.883526 -1.870794 0
M  V30 END ATOM
M  V30 BEGIN BOND
M  V30 1 3 1 2
M  V30 2 1 2 3
M  V30 3 2 3 4
M  V30 4 1 4 5
M  V30 5 1 5 6
M  V30 6 2 6 7
M  V30 7 1 7 8
M  V30 8 2 8 9
M  V30 9 1 9 10
M  V30 10 2 10 11
M  V30 11 1 11 12
M  V30 12 1 3 13
M  V30 13 2 13 14
M  V30 14 1 14 15
M  V30 15 2 15 16
M  V30 16 1 16 17
M  V30 17 1 17 18
M  V30 18 1 18 19
M  V30 19 1 19 20
M  V30 20 1 20 21
M  V30 21 2 21 22
M  V30 22 1 22 23
M  V30 23 2 23 24
M  V30 24 1 24 25
M  V30 25 2 25 26
M  V30 26 1 26 27
M  V30 27 2 17 28
M  V30 28 1 12 4
M  V30 29 1 28 13
M  V30 30 1 11 6
M  V30 31 1 26 21
M  V30 32 1 5 29
M  V30 33 1 7 30
M  V30 34 1 8 31
M  V30 35 1 9 32
M  V30 36 1 10 33
M  V30 37 1 14 34
M  V30 38 1 15 35
M  V30 39 1 18 36
M  V30 40 1 19 37
M  V30 41 1 19 38
M  V30 42 1 20 39
M  V30 43 1 20 40
M  V30 44 1 22 41
M  V30 45 1 23 42
M  V30 46 1 24 43
M  V30 47 1 25 44
M  V30 END BOND
M  V30 END CTAB
M  END
>  <Dataset>  (862) 
ChEMBL_Kinases

>  <Ligand_Instance>  (862) 
nan

>  <PDB_ID>  (862) 
nan

>  <Standardized_SMILES>  (862) 
N#C/C(=C1/Nc2ccccc2S1)c1ccnc(NCCc2ccccc2F)n1

>  <Name>  (862) 
nan

>  <Pocket>  (862) 
nan

>  <ATP_Site>  (862) 
nan

>  <Peripheral>  (862) 
nan

>  <Num_H_Atoms_ProtBoundConf>  (862) 
nan

>  <Num_Resolved_Atoms>  (862) 
nan

>  <Num_Not_Resolved_Atoms>  (862) 
nan

$$$$
CHEMBL3639684
     RDKit          3D

  0  0  0  0  0  0  0  0  0  0999 V3000
M  V30 BEGIN CTAB
M  V30 COUNTS 53 57 0 0 0
M  V30 BEGIN ATOM
M  V30 1 C -1.467014 1.301619 3.297960 0
M  V30 2 C -0.541788 0.173561 2.912970 0
M  V30 3 C -0.678094 -1.037280 3.818839 0
M  V30 4 C 0.845304 0.689350 3.034911 0
M  V30 5 N 1.879086 0.914569 3.868916 0
M  V30 6 N 2.908029 1.450330 3.230207 0
M  V30 7 C 2.565246 1.591960 1.933827 0
M  V30 8 N 3.275786 2.106595 0.817142 0
M  V30 9 C 3.386019 3.374364 0.183911 0
M  V30 10 C 4.212839 3.509610 -0.911234 0
M  V30 11 C 4.266308 4.754484 -1.473343 0
M  V30 12 N 3.570485 5.801929 -1.013073 0
M  V30 13 C 2.762035 5.644031 0.068056 0
M  V30 14 C 2.044715 6.803821 0.506827 0
M  V30 15 N 1.467186 7.725776 0.845212 0
M  V30 16 N 2.677673 4.417709 0.661661 0
M  V30 17 C 1.280257 1.115767 1.823267 0
M  V30 18 C 0.144655 0.873810 0.899567 0
M  V30 19 N -0.675863 -0.150928 1.510096 0
M  V30 20 C -1.349971 -1.116613 0.720728 0
M  V30 21 O -1.040804 -0.806194 -0.477198 0
M  V30 22 N -2.181134 -2.190835 1.116120 0
M  V30 23 C -2.766127 -3.051589 0.102915 0 CFG=2
M  V30 24 C -3.815111 -4.008272 0.439577 0
M  V30 25 C -2.445647 -4.528853 0.331250 0 CFG=1
M  V30 26 C -2.028441 -5.320390 -0.869700 0
M  V30 27 C -1.124036 -6.329287 -0.967385 0
M  V30 28 C -0.887390 -6.930877 -2.185299 0
M  V30 29 C -1.551721 -6.532920 -3.324174 0
M  V30 30 C -2.485368 -5.501704 -3.260383 0
M  V30 31 C -2.701583 -4.915887 -2.021239 0
M  V30 32 H -2.083743 1.624653 2.408123 0
M  V30 33 H -2.156066 1.030926 4.109926 0
M  V30 34 H -0.941077 2.220324 3.628705 0
M  V30 35 H 0.026357 -0.867397 4.687974 0
M  V30 36 H -1.669015 -1.178223 4.246189 0
M  V30 37 H -0.242672 -1.911179 3.297096 0
M  V30 38 H 3.842946 1.733354 3.607510 0
M  V30 39 H 3.809834 1.287350 0.445821 0
M  V30 40 H 4.763554 2.626791 -1.254230 0
M  V30 41 H 4.928771 4.844708 -2.344164 0
M  V30 42 H -0.488571 1.807011 0.891407 0
M  V30 43 H 0.462633 0.575767 -0.095531 0
M  V30 44 H -2.303816 -2.268561 2.146649 0
M  V30 45 H -2.528081 -2.700583 -0.925886 0
M  V30 46 H -4.541034 -4.287543 -0.349029 0
M  V30 47 H -4.276714 -3.907700 1.459715 0
M  V30 48 H -1.943602 -4.830327 1.257547 0
M  V30 49 H -0.649643 -6.578153 -0.032498 0
M  V30 50 H -0.162813 -7.728215 -2.223589 0
M  V30 51 H -1.364934 -7.006059 -4.277013 0
M  V30 52 H -2.993379 -5.207604 -4.163903 0
M  V30 53 H -3.448402 -4.120977 -2.074142 0
M  V30 END ATOM
M  V30 BEGIN BOND
M  V30 1 1 1 2
M  V30 2 1 2 3
M  V30 3 1 2 4
M  V30 4 2 4 5
M  V30 5 1 5 6
M  V30 6 1 6 7
M  V30 7 1 7 8
M  V30 8 1 8 9
M  V30 9 2 9 10
M  V30 10 1 10 11
M  V30 11 2 11 12
M  V30 12 1 12 13
M  V30 13 1 13 14
M  V30 14 3 14 15
M  V30 15 2 13 16
M  V30 16 2 7 17
M  V30 17 1 17 18
M  V30 18 1 18 19
M  V30 19 1 19 20
M  V30 20 2 20 21
M  V30 21 1 20 22
M  V30 22 1 22 23
M  V30 23 1 23 24
M  V30 24 1 24 25
M  V30 25 1 25 26
M  V30 26 2 26 27
M  V30 27 1 27 28
M  V30 28 2 28 29
M  V30 29 1 29 30
M  V30 30 2 30 31
M  V30 31 1 19 2
M  V30 32 1 25 23
M  V30 33 1 31 26
M  V30 34 1 17 4
M  V30 35 1 16 9
M  V30 36 1 1 32
M  V30 37 1 1 33
M  V30 38 1 1 34
M  V30 39 1 3 35
M  V30 40 1 3 36
M  V30 41 1 3 37
M  V30 42 1 6 38
M  V30 43 1 8 39
M  V30 44 1 10 40
M  V30 45 1 11 41
M  V30 46 1 18 42
M  V30 47 1 18 43
M  V30 48 1 22 44
M  V30 49 1 23 45 CFG=3
M  V30 50 1 24 46
M  V30 51 1 24 47
M  V30 52 1 25 48 CFG=1
M  V30 53 1 27 49
M  V30 54 1 28 50
M  V30 55 1 29 51
M  V30 56 1 30 52
M  V30 57 1 31 53
M  V30 END BOND
M  V30 END CTAB
M  END
>  <Dataset>  (863) 
ChEMBL_Kinases

>  <Ligand_Instance>  (863) 
nan

>  <PDB_ID>  (863) 
nan

>  <Standardized_SMILES>  (863) 
CC1(C)c2n[nH]c(Nc3ccnc(C#N)n3)c2CN1C(=O)N[C@@H]1C[C@H]1c1ccccc1

>  <Name>  (863) 
nan

>  <Pocket>  (863) 
nan

>  <ATP_Site>  (863) 
nan

>  <Peripheral>  (863) 
nan

>  <Num_H_Atoms_ProtBoundConf>  (863) 
nan

>  <Num_Resolved_Atoms>  (863) 
nan

>  <Num_Not_Resolved_Atoms>  (863) 
nan

$$$$
CHEMBL362919
     RDKit          3D

  0  0  0  0  0  0  0  0  0  0999 V3000
M  V30 BEGIN CTAB
M  V30 COUNTS 36 37 0 0 0
M  V30 BEGIN ATOM
M  V30 1 C -1.009504 -3.930900 4.861678 0
M  V30 2 O 0.175756 -3.162256 4.756398 0
M  V30 3 C 0.504922 -2.666843 3.504808 0
M  V30 4 C -0.271207 -2.896672 2.388048 0
M  V30 5 C 0.124887 -2.369499 1.180933 0
M  V30 6 C 1.255453 -1.611581 0.972053 0
M  V30 7 C 1.699282 -1.045362 -0.299749 0
M  V30 8 C 0.962516 0.183615 -0.666669 0
M  V30 9 C -0.231765 0.232516 -1.349825 0
M  V30 10 C -0.918590 1.376378 -1.693117 0
M  V30 11 C -0.379114 2.592090 -1.329408 0
M  V30 12 O -0.991276 3.802041 -1.626914 0
M  V30 13 C -2.229002 3.869337 -2.334285 0
M  V30 14 C 0.814444 2.655849 -0.641556 0
M  V30 15 C 1.427942 1.465510 -0.342462 0
M  V30 16 C 1.890001 -2.008456 -1.426198 0
M  V30 17 Cl 0.462418 -2.915066 -1.901668 0
M  V30 18 Cl 3.253438 -3.089521 -1.056732 0
M  V30 19 Cl 2.400362 -1.078429 -2.881557 0
M  V30 20 C 1.974258 -1.435085 2.164579 0
M  V30 21 C 1.659319 -1.921151 3.415004 0
M  V30 22 H -1.868171 -3.226560 4.679163 0
M  V30 23 H -1.043685 -4.746844 4.102772 0
M  V30 24 H -1.093623 -4.359956 5.887352 0
M  V30 25 H -1.165092 -3.484896 2.504513 0
M  V30 26 H -0.525518 -2.585256 0.372405 0
M  V30 27 H 2.762961 -0.662688 -0.089863 0
M  V30 28 H -0.696219 -0.692400 -1.655239 0
M  V30 29 H -1.854562 1.330104 -2.232350 0
M  V30 30 H -2.336617 4.849569 -2.837808 0
M  V30 31 H -3.108913 3.729183 -1.687254 0
M  V30 32 H -2.247375 3.107490 -3.153877 0
M  V30 33 H 1.255332 3.588994 -0.346957 0
M  V30 34 H 2.374587 1.539819 0.204153 0
M  V30 35 H 2.898076 -0.841126 2.104798 0
M  V30 36 H 2.287946 -1.718819 4.249816 0
M  V30 END ATOM
M  V30 BEGIN BOND
M  V30 1 1 1 2
M  V30 2 1 2 3
M  V30 3 2 3 4
M  V30 4 1 4 5
M  V30 5 2 5 6
M  V30 6 1 6 7
M  V30 7 1 7 8
M  V30 8 2 8 9
M  V30 9 1 9 10
M  V30 10 2 10 11
M  V30 11 1 11 12
M  V30 12 1 12 13
M  V30 13 1 11 14
M  V30 14 2 14 15
M  V30 15 1 7 16
M  V30 16 1 16 17
M  V30 17 1 16 18
M  V30 18 1 16 19
M  V30 19 1 6 20
M  V30 20 2 20 21
M  V30 21 1 21 3
M  V30 22 1 15 8
M  V30 23 1 1 22
M  V30 24 1 1 23
M  V30 25 1 1 24
M  V30 26 1 4 25
M  V30 27 1 5 26
M  V30 28 1 7 27
M  V30 29 1 9 28
M  V30 30 1 10 29
M  V30 31 1 13 30
M  V30 32 1 13 31
M  V30 33 1 13 32
M  V30 34 1 14 33
M  V30 35 1 15 34
M  V30 36 1 20 35
M  V30 37 1 21 36
M  V30 END BOND
M  V30 END CTAB
M  END
>  <Dataset>  (864) 
ChEMBL_Kinases

>  <Ligand_Instance>  (864) 
nan

>  <PDB_ID>  (864) 
nan

>  <Standardized_SMILES>  (864) 
COc1ccc(C(c2ccc(OC)cc2)C(Cl)(Cl)Cl)cc1

>  <Name>  (864) 
METHOXYCHLOR

>  <Pocket>  (864) 
nan

>  <ATP_Site>  (864) 
nan

>  <Peripheral>  (864) 
nan

>  <Num_H_Atoms_ProtBoundConf>  (864) 
nan

>  <Num_Resolved_Atoms>  (864) 
nan

>  <Num_Not_Resolved_Atoms>  (864) 
nan

$$$$
CHEMBL3629277
     RDKit          3D

  0  0  0  0  0  0  0  0  0  0999 V3000
M  V30 BEGIN CTAB
M  V30 COUNTS 45 48 0 0 0
M  V30 BEGIN ATOM
M  V30 1 C 0.596907 -8.707507 2.060074 0
M  V30 2 C 1.050631 -7.354369 1.656321 0
M  V30 3 C 0.199533 -6.268520 1.654995 0
M  V30 4 C 0.670455 -5.030200 1.270685 0
M  V30 5 C 1.960651 -4.802085 0.880302 0
M  V30 6 N 2.527377 -3.570538 0.471898 0
M  V30 7 C 1.931092 -2.310867 0.366151 0
M  V30 8 O 0.718602 -2.169117 0.658058 0
M  V30 9 N 2.583695 -1.121197 -0.056227 0
M  V30 10 C 1.837612 0.088174 -0.111881 0
M  V30 11 C 1.818957 0.863229 1.028995 0
M  V30 12 C 1.133019 2.034588 1.069143 0
M  V30 13 C 0.409718 2.541664 -0.002512 0
M  V30 14 C -0.398952 3.722788 -0.171505 0
M  V30 15 N -0.012410 4.473343 -1.249222 0
M  V30 16 C -0.647252 5.609285 -1.566322 0
M  V30 17 N -1.699161 6.073320 -0.842834 0
M  V30 18 C -2.115571 5.368589 0.224034 0
M  V30 19 N -3.101197 5.521746 1.121954 0
M  V30 20 C -3.076044 4.502252 1.970891 0
M  V30 21 C -2.032027 3.633433 1.626809 0
M  V30 22 C -1.718479 2.383949 2.326549 0
M  V30 23 C -1.453072 4.215647 0.525884 0
M  V30 24 C 0.460862 1.716128 -1.139107 0
M  V30 25 C 1.151515 0.524175 -1.199988 0
M  V30 26 F 1.183797 -0.244929 -2.298146 0
M  V30 27 C 2.769243 -5.915749 0.898743 0
M  V30 28 N 2.319296 -7.125753 1.271559 0
M  V30 29 H 1.054261 -8.977485 3.033526 0
M  V30 30 H -0.498763 -8.656624 2.258515 0
M  V30 31 H 0.737196 -9.469775 1.275587 0
M  V30 32 H -0.836530 -6.385146 1.954560 0
M  V30 33 H -0.021372 -4.227313 1.286322 0
M  V30 34 H 3.533689 -3.532223 0.196905 0
M  V30 35 H 3.608245 -1.185374 -0.314468 0
M  V30 36 H 2.333880 0.617115 1.969901 0
M  V30 37 H 1.101333 2.676558 1.917627 0
M  V30 38 H -0.334996 6.208865 -2.430368 0
M  V30 39 H -3.774856 6.340179 1.122910 0
M  V30 40 H -3.753006 4.354593 2.804392 0
M  V30 41 H -1.581814 1.508886 1.648200 0
M  V30 42 H -0.932537 2.513667 3.066882 0
M  V30 43 H -2.631115 2.078526 2.932540 0
M  V30 44 H -0.049341 1.968058 -2.059358 0
M  V30 45 H 3.805760 -5.856990 0.611176 0
M  V30 END ATOM
M  V30 BEGIN BOND
M  V30 1 1 1 2
M  V30 2 2 2 3
M  V30 3 1 3 4
M  V30 4 2 4 5
M  V30 5 1 5 6
M  V30 6 1 6 7
M  V30 7 2 7 8
M  V30 8 1 7 9
M  V30 9 1 9 10
M  V30 10 2 10 11
M  V30 11 1 11 12
M  V30 12 2 12 13
M  V30 13 1 13 14
M  V30 14 2 14 15
M  V30 15 1 15 16
M  V30 16 2 16 17
M  V30 17 1 17 18
M  V30 18 1 18 19
M  V30 19 1 19 20
M  V30 20 2 20 21
M  V30 21 1 21 22
M  V30 22 1 21 23
M  V30 23 1 13 24
M  V30 24 2 24 25
M  V30 25 1 25 26
M  V30 26 1 5 27
M  V30 27 2 27 28
M  V30 28 1 28 2
M  V30 29 1 25 10
M  V30 30 1 23 14
M  V30 31 2 23 18
M  V30 32 1 1 29
M  V30 33 1 1 30
M  V30 34 1 1 31
M  V30 35 1 3 32
M  V30 36 1 4 33
M  V30 37 1 6 34
M  V30 38 1 9 35
M  V30 39 1 11 36
M  V30 40 1 12 37
M  V30 41 1 16 38
M  V30 42 1 19 39
M  V30 43 1 20 40
M  V30 44 1 22 41
M  V30 45 1 22 42
M  V30 46 1 22 43
M  V30 47 1 24 44
M  V30 48 1 27 45
M  V30 END BOND
M  V30 END CTAB
M  END
>  <Dataset>  (865) 
ChEMBL_Kinases

>  <Ligand_Instance>  (865) 
nan

>  <PDB_ID>  (865) 
nan

>  <Standardized_SMILES>  (865) 
Cc1ccc(NC(=O)Nc2ccc(-c3ncnc4[nH]cc(C)c34)cc2F)cn1

>  <Name>  (865) 
nan

>  <Pocket>  (865) 
nan

>  <ATP_Site>  (865) 
nan

>  <Peripheral>  (865) 
nan

>  <Num_H_Atoms_ProtBoundConf>  (865) 
nan

>  <Num_Resolved_Atoms>  (865) 
nan

>  <Num_Not_Resolved_Atoms>  (865) 
nan

$$$$
CHEMBL3629278
     RDKit          3D

  0  0  0  0  0  0  0  0  0  0999 V3000
M  V30 BEGIN CTAB
M  V30 COUNTS 45 48 0 0 0
M  V30 BEGIN ATOM
M  V30 1 C -0.856928 -6.809029 0.741409 0
M  V30 2 C -0.427851 -6.329215 -0.585852 0
M  V30 3 C -0.103787 -5.019531 -0.831898 0
M  V30 4 C 0.302196 -4.484696 -2.023091 0
M  V30 5 N 0.637097 -3.142435 -2.286324 0
M  V30 6 C 0.645645 -2.034194 -1.435848 0
M  V30 7 O 0.322142 -2.162217 -0.248995 0
M  V30 8 N 1.003591 -0.717789 -1.811439 0
M  V30 9 C 0.956641 0.299082 -0.812901 0
M  V30 10 C 2.091005 0.533269 -0.065242 0
M  V30 11 C 1.989005 1.534693 0.893618 0
M  V30 12 C 0.848757 2.308116 1.154526 0
M  V30 13 C 1.011705 3.311267 2.176064 0
M  V30 14 N 2.079932 4.126593 1.925447 0
M  V30 15 C 2.420295 5.134081 2.747586 0
M  V30 16 N 1.710238 5.394715 3.883165 0
M  V30 17 C 0.634168 4.609228 4.181818 0
M  V30 18 N -0.266918 4.544841 5.176724 0
M  V30 19 C -1.119448 3.528510 4.959569 0
M  V30 20 C -0.783178 2.875810 3.767204 0
M  V30 21 C -1.469661 1.698108 3.208706 0
M  V30 22 C 0.307068 3.585418 3.325273 0
M  V30 23 C -0.220257 1.984723 0.345567 0
M  V30 24 C -0.204724 1.016191 -0.618773 0
M  V30 25 F -1.328215 0.809179 -1.334350 0
M  V30 26 C 0.371253 -5.411217 -3.038057 0
M  V30 27 C 0.054496 -6.735108 -2.832465 0
M  V30 28 N -0.340371 -7.197258 -1.627555 0
M  V30 29 H -1.377185 -7.779466 0.607141 0
M  V30 30 H -0.030941 -6.925777 1.469099 0
M  V30 31 H -1.648025 -6.115801 1.147394 0
M  V30 32 H -0.189289 -4.373007 0.025038 0
M  V30 33 H 0.934812 -2.880489 -3.263636 0
M  V30 34 H 1.292360 -0.539536 -2.819702 0
M  V30 35 H 2.989657 -0.019137 -0.213460 0
M  V30 36 H 2.915726 1.686405 1.464647 0
M  V30 37 H 3.257543 5.784773 2.564614 0
M  V30 38 H -0.264484 5.210168 5.980550 0
M  V30 39 H -1.965362 3.217270 5.589831 0
M  V30 40 H -2.045948 1.214750 4.061052 0
M  V30 41 H -2.244745 1.915460 2.463695 0
M  V30 42 H -0.780398 0.882120 2.897277 0
M  V30 43 H -1.097800 2.587479 0.524621 0
M  V30 44 H 0.687464 -5.092272 -4.043767 0
M  V30 45 H 0.131551 -7.397078 -3.668135 0
M  V30 END ATOM
M  V30 BEGIN BOND
M  V30 1 1 1 2
M  V30 2 2 2 3
M  V30 3 1 3 4
M  V30 4 1 4 5
M  V30 5 1 5 6
M  V30 6 2 6 7
M  V30 7 1 6 8
M  V30 8 1 8 9
M  V30 9 2 9 10
M  V30 10 1 10 11
M  V30 11 2 11 12
M  V30 12 1 12 13
M  V30 13 2 13 14
M  V30 14 1 14 15
M  V30 15 2 15 16
M  V30 16 1 16 17
M  V30 17 1 17 18
M  V30 18 1 18 19
M  V30 19 2 19 20
M  V30 20 1 20 21
M  V30 21 1 20 22
M  V30 22 1 12 23
M  V30 23 2 23 24
M  V30 24 1 24 25
M  V30 25 2 4 26
M  V30 26 1 26 27
M  V30 27 2 27 28
M  V30 28 1 28 2
M  V30 29 1 24 9
M  V30 30 1 22 13
M  V30 31 2 22 17
M  V30 32 1 1 29
M  V30 33 1 1 30
M  V30 34 1 1 31
M  V30 35 1 3 32
M  V30 36 1 5 33
M  V30 37 1 8 34
M  V30 38 1 10 35
M  V30 39 1 11 36
M  V30 40 1 15 37
M  V30 41 1 18 38
M  V30 42 1 19 39
M  V30 43 1 21 40
M  V30 44 1 21 41
M  V30 45 1 21 42
M  V30 46 1 23 43
M  V30 47 1 26 44
M  V30 48 1 27 45
M  V30 END BOND
M  V30 END CTAB
M  END
>  <Dataset>  (866) 
ChEMBL_Kinases

>  <Ligand_Instance>  (866) 
nan

>  <PDB_ID>  (866) 
nan

>  <Standardized_SMILES>  (866) 
Cc1cc(NC(=O)Nc2ccc(-c3ncnc4[nH]cc(C)c34)cc2F)ccn1

>  <Name>  (866) 
nan

>  <Pocket>  (866) 
nan

>  <ATP_Site>  (866) 
nan

>  <Peripheral>  (866) 
nan

>  <Num_H_Atoms_ProtBoundConf>  (866) 
nan

>  <Num_Resolved_Atoms>  (866) 
nan

>  <Num_Not_Resolved_Atoms>  (866) 
nan

$$$$
CHEMBL3629279
     RDKit          3D

  0  0  0  0  0  0  0  0  0  0999 V3000
M  V30 BEGIN CTAB
M  V30 COUNTS 41 44 0 0 0
M  V30 BEGIN ATOM
M  V30 1 C 1.105598 -4.124206 1.379400 0
M  V30 2 C 1.850842 -4.674082 0.244492 0
M  V30 3 C 2.253278 -6.009187 0.097663 0
M  V30 4 N 2.934705 -6.171391 -1.029813 0
M  V30 5 C 3.001024 -4.989133 -1.641635 0
M  V30 6 N 3.589822 -4.594480 -2.803138 0
M  V30 7 C 3.474304 -3.289637 -3.115622 0
M  V30 8 N 2.836405 -2.367378 -2.387031 0
M  V30 9 C 2.240034 -2.748830 -1.220401 0
M  V30 10 C 1.586951 -1.653913 -0.530822 0
M  V30 11 C 2.416785 -0.552924 -0.286017 0
M  V30 12 C 1.993586 0.599288 0.318786 0
M  V30 13 C 0.690848 0.730006 0.725996 0
M  V30 14 N 0.301311 1.934763 1.345311 0
M  V30 15 C -0.881197 2.428028 1.875978 0
M  V30 16 O -1.895498 1.724134 1.850351 0
M  V30 17 N -1.094348 3.689649 2.471983 0
M  V30 18 C -2.387131 4.002795 2.955700 0
M  V30 19 C -2.738018 3.700720 4.267619 0
M  V30 20 N -3.976547 4.001087 4.729931 0
M  V30 21 C -4.865273 4.600973 3.889328 0
M  V30 22 N -4.518309 4.889892 2.621905 0
M  V30 23 C -3.300372 4.613789 2.108498 0
M  V30 24 C -0.114340 -0.351801 0.482058 0
M  V30 25 F -1.416521 -0.377985 0.822064 0
M  V30 26 C 0.278009 -1.522160 -0.122614 0
M  V30 27 C 2.344843 -4.057892 -0.883480 0
M  V30 28 H 1.227491 -4.853116 2.243454 0
M  V30 29 H 1.517814 -3.183514 1.802144 0
M  V30 30 H 0.016582 -4.097980 1.205982 0
M  V30 31 H 2.023609 -6.790630 0.827843 0
M  V30 32 H 3.368794 -7.037030 -1.428572 0
M  V30 33 H 3.960949 -3.005132 -4.057392 0
M  V30 34 H 3.461803 -0.566746 -0.573844 0
M  V30 35 H 2.712112 1.414611 0.472042 0
M  V30 36 H 1.049336 2.681615 1.461172 0
M  V30 37 H -0.260032 4.352499 2.528843 0
M  V30 38 H -1.985629 3.226236 4.877467 0
M  V30 39 H -5.850570 4.833431 4.276921 0
M  V30 40 H -3.056199 4.860541 1.084100 0
M  V30 41 H -0.344015 -2.360964 -0.331567 0
M  V30 END ATOM
M  V30 BEGIN BOND
M  V30 1 1 1 2
M  V30 2 2 2 3
M  V30 3 1 3 4
M  V30 4 1 4 5
M  V30 5 2 5 6
M  V30 6 1 6 7
M  V30 7 2 7 8
M  V30 8 1 8 9
M  V30 9 1 9 10
M  V30 10 2 10 11
M  V30 11 1 11 12
M  V30 12 2 12 13
M  V30 13 1 13 14
M  V30 14 1 14 15
M  V30 15 2 15 16
M  V30 16 1 15 17
M  V30 17 1 17 18
M  V30 18 2 18 19
M  V30 19 1 19 20
M  V30 20 2 20 21
M  V30 21 1 21 22
M  V30 22 2 22 23
M  V30 23 1 13 24
M  V30 24 1 24 25
M  V30 25 2 24 26
M  V30 26 2 9 27
M  V30 27 1 27 2
M  V30 28 1 27 5
M  V30 29 1 26 10
M  V30 30 1 23 18
M  V30 31 1 1 28
M  V30 32 1 1 29
M  V30 33 1 1 30
M  V30 34 1 3 31
M  V30 35 1 4 32
M  V30 36 1 7 33
M  V30 37 1 11 34
M  V30 38 1 12 35
M  V30 39 1 14 36
M  V30 40 1 17 37
M  V30 41 1 19 38
M  V30 42 1 21 39
M  V30 43 1 23 40
M  V30 44 1 26 41
M  V30 END BOND
M  V30 END CTAB
M  END
>  <Dataset>  (867) 
ChEMBL_Kinases

>  <Ligand_Instance>  (867) 
nan

>  <PDB_ID>  (867) 
nan

>  <Standardized_SMILES>  (867) 
Cc1c[nH]c2ncnc(-c3ccc(NC(=O)Nc4cncnc4)c(F)c3)c12

>  <Name>  (867) 
nan

>  <Pocket>  (867) 
nan

>  <ATP_Site>  (867) 
nan

>  <Peripheral>  (867) 
nan

>  <Num_H_Atoms_ProtBoundConf>  (867) 
nan

>  <Num_Resolved_Atoms>  (867) 
nan

>  <Num_Not_Resolved_Atoms>  (867) 
nan

$$$$
CHEMBL3629280
     RDKit          3D

  0  0  0  0  0  0  0  0  0  0999 V3000
M  V30 BEGIN CTAB
M  V30 COUNTS 50 53 0 0 0
M  V30 BEGIN ATOM
M  V30 1 C 4.143492 -2.763108 0.456408 0
M  V30 2 C 5.347378 -1.918901 0.518090 0
M  V30 3 C 6.678782 -2.319687 0.334029 0
M  V30 4 N 7.502790 -1.271699 0.438309 0
M  V30 5 C 6.781214 -0.172961 0.686629 0
M  V30 6 N 7.093359 1.132037 0.863746 0
M  V30 7 C 6.076081 2.012141 1.087270 0
M  V30 8 N 4.776781 1.611812 1.135994 0
M  V30 9 C 4.427043 0.300348 0.962241 0
M  V30 10 C 3.013871 0.113892 1.053090 0
M  V30 11 C 2.244657 0.934484 0.212298 0
M  V30 12 C 0.846727 0.959045 0.146093 0
M  V30 13 C 0.191142 0.091292 0.991446 0
M  V30 14 N -1.216276 0.018396 1.021471 0
M  V30 15 C -1.920521 -0.887082 0.166980 0
M  V30 16 O -1.155766 -1.554038 -0.556297 0
M  V30 17 N -3.359633 -0.976788 0.182482 0
M  V30 18 C -3.901951 -1.949610 -0.751178 0
M  V30 19 C -4.188634 -1.342462 -2.110930 0
M  V30 20 O -4.709858 -2.279174 -3.006920 0
M  V30 21 C -4.355146 -0.300647 0.931812 0
M  V30 22 C -5.000865 0.873622 0.601694 0
M  V30 23 C -5.942861 1.353409 1.488221 0
M  V30 24 C -6.239407 0.697054 2.662972 0
M  V30 25 C -5.592050 -0.489775 3.004551 0
M  V30 26 C -4.649995 -0.960825 2.108245 0
M  V30 27 C 0.868496 -0.751243 1.852058 0
M  V30 28 F 0.267298 -1.624098 2.704193 0
M  V30 29 C 2.244522 -0.707715 1.850283 0
M  V30 30 C 5.470519 -0.568836 0.736054 0
M  V30 31 H 4.469452 -3.692205 -0.109845 0
M  V30 32 H 3.335079 -2.360986 -0.189177 0
M  V30 33 H 3.806657 -3.171248 1.425969 0
M  V30 34 H 6.958459 -3.362491 0.133976 0
M  V30 35 H 8.542489 -1.347082 0.334474 0
M  V30 36 H 6.364118 3.046486 1.223343 0
M  V30 37 H 2.727588 1.643401 -0.479839 0
M  V30 38 H 0.334359 1.607161 -0.515195 0
M  V30 39 H -1.758996 0.644977 1.688132 0
M  V30 40 H -3.189421 -2.800412 -0.926807 0
M  V30 41 H -4.828006 -2.436211 -0.386986 0
M  V30 42 H -4.987513 -0.562093 -2.009545 0
M  V30 43 H -3.297763 -0.829437 -2.516032 0
M  V30 44 H -3.948865 -2.771983 -3.398290 0
M  V30 45 H -4.702085 1.316015 -0.339078 0
M  V30 46 H -6.437299 2.273709 1.211992 0
M  V30 47 H -6.980630 1.094165 3.338840 0
M  V30 48 H -5.864180 -0.962151 3.938442 0
M  V30 49 H -4.191090 -1.895857 2.454330 0
M  V30 50 H 2.807976 -1.334080 2.519224 0
M  V30 END ATOM
M  V30 BEGIN BOND
M  V30 1 1 1 2
M  V30 2 2 2 3
M  V30 3 1 3 4
M  V30 4 1 4 5
M  V30 5 2 5 6
M  V30 6 1 6 7
M  V30 7 2 7 8
M  V30 8 1 8 9
M  V30 9 1 9 10
M  V30 10 2 10 11
M  V30 11 1 11 12
M  V30 12 2 12 13
M  V30 13 1 13 14
M  V30 14 1 14 15
M  V30 15 2 15 16
M  V30 16 1 15 17
M  V30 17 1 17 18
M  V30 18 1 18 19
M  V30 19 1 19 20
M  V30 20 1 17 21
M  V30 21 2 21 22
M  V30 22 1 22 23
M  V30 23 2 23 24
M  V30 24 1 24 25
M  V30 25 2 25 26
M  V30 26 1 13 27
M  V30 27 1 27 28
M  V30 28 2 27 29
M  V30 29 2 9 30
M  V30 30 1 30 2
M  V30 31 1 30 5
M  V30 32 1 29 10
M  V30 33 1 26 21
M  V30 34 1 1 31
M  V30 35 1 1 32
M  V30 36 1 1 33
M  V30 37 1 3 34
M  V30 38 1 4 35
M  V30 39 1 7 36
M  V30 40 1 11 37
M  V30 41 1 12 38
M  V30 42 1 14 39
M  V30 43 1 18 40
M  V30 44 1 18 41
M  V30 45 1 19 42
M  V30 46 1 19 43
M  V30 47 1 20 44
M  V30 48 1 22 45
M  V30 49 1 23 46
M  V30 50 1 24 47
M  V30 51 1 25 48
M  V30 52 1 26 49
M  V30 53 1 29 50
M  V30 END BOND
M  V30 END CTAB
M  END
>  <Dataset>  (868) 
ChEMBL_Kinases

>  <Ligand_Instance>  (868) 
nan

>  <PDB_ID>  (868) 
nan

>  <Standardized_SMILES>  (868) 
Cc1c[nH]c2ncnc(-c3ccc(NC(=O)N(CCO)c4ccccc4)c(F)c3)c12

>  <Name>  (868) 
nan

>  <Pocket>  (868) 
nan

>  <ATP_Site>  (868) 
nan

>  <Peripheral>  (868) 
nan

>  <Num_H_Atoms_ProtBoundConf>  (868) 
nan

>  <Num_Resolved_Atoms>  (868) 
nan

>  <Num_Not_Resolved_Atoms>  (868) 
nan

$$$$
CHEMBL3629323
     RDKit          3D

  0  0  0  0  0  0  0  0  0  0999 V3000
M  V30 BEGIN CTAB
M  V30 COUNTS 34 36 0 0 0
M  V30 BEGIN ATOM
M  V30 1 N 1.268738 -2.904320 2.272348 0
M  V30 2 C 2.289332 -2.989261 1.308333 0
M  V30 3 N 2.403551 -4.124760 0.608560 0
M  V30 4 C 3.410631 -4.255252 -0.309395 0
M  V30 5 C 4.274421 -3.172337 -0.461689 0
M  V30 6 Cl 5.552345 -3.361974 -1.640998 0
M  V30 7 N 4.110616 -2.066077 0.263725 0
M  V30 8 C 3.114385 -1.904128 1.188192 0
M  V30 9 C 3.079641 -0.586557 1.858481 0
M  V30 10 N 2.185739 0.371236 1.252426 0
M  V30 11 C 0.835980 0.565685 0.959751 0
M  V30 12 O 0.041218 -0.309356 1.285758 0
M  V30 13 N 0.238327 1.671124 0.316269 0
M  V30 14 C -1.177505 1.442804 0.224550 0
M  V30 15 C -1.454923 0.776405 -0.972462 0
M  V30 16 C -2.755495 0.419230 -1.324258 0
M  V30 17 C -3.733516 0.772814 -0.406378 0
M  V30 18 N -5.088451 0.621189 -0.351446 0
M  V30 19 C -5.602340 1.143295 0.771648 0
M  V30 20 O -6.832856 1.121212 1.042150 0
M  V30 21 O -4.579557 1.639345 1.454426 0
M  V30 22 C -3.471807 1.430826 0.778481 0
M  V30 23 C -2.171767 1.765850 1.087993 0
M  V30 24 H 0.896371 -2.277180 2.995618 0
M  V30 25 H 0.560341 -3.615214 2.458910 0
M  V30 26 H 3.458643 -5.187687 -0.846550 0
M  V30 27 H 4.092848 -0.201669 1.966211 0
M  V30 28 H 2.652836 -0.775343 2.893550 0
M  V30 29 H 2.723876 1.211898 0.909037 0
M  V30 30 H 0.899650 2.455683 0.020443 0
M  V30 31 H -0.731748 0.464930 -1.742353 0
M  V30 32 H -3.018991 -0.092041 -2.226650 0
M  V30 33 H -5.629655 0.139538 -1.129171 0
M  V30 34 H -1.842487 2.266610 1.952731 0
M  V30 END ATOM
M  V30 BEGIN BOND
M  V30 1 1 1 2
M  V30 2 2 2 3
M  V30 3 1 3 4
M  V30 4 2 4 5
M  V30 5 1 5 6
M  V30 6 1 5 7
M  V30 7 2 7 8
M  V30 8 1 8 9
M  V30 9 1 9 10
M  V30 10 1 10 11
M  V30 11 2 11 12
M  V30 12 1 11 13
M  V30 13 1 13 14
M  V30 14 2 14 15
M  V30 15 1 15 16
M  V30 16 2 16 17
M  V30 17 1 17 18
M  V30 18 1 18 19
M  V30 19 2 19 20
M  V30 20 1 19 21
M  V30 21 1 21 22
M  V30 22 2 22 23
M  V30 23 1 8 2
M  V30 24 1 23 14
M  V30 25 1 22 17
M  V30 26 1 1 24
M  V30 27 1 1 25
M  V30 28 1 4 26
M  V30 29 1 9 27
M  V30 30 1 9 28
M  V30 31 1 10 29
M  V30 32 1 13 30
M  V30 33 1 15 31
M  V30 34 1 16 32
M  V30 35 1 18 33
M  V30 36 1 23 34
M  V30 END BOND
M  V30 END CTAB
M  END
>  <Dataset>  (869) 
ChEMBL_Kinases

>  <Ligand_Instance>  (869) 
nan

>  <PDB_ID>  (869) 
nan

>  <Standardized_SMILES>  (869) 
Nc1ncc(Cl)nc1CNC(=O)Nc1ccc2[nH]c(=O)oc2c1

>  <Name>  (869) 
nan

>  <Pocket>  (869) 
nan

>  <ATP_Site>  (869) 
nan

>  <Peripheral>  (869) 
nan

>  <Num_H_Atoms_ProtBoundConf>  (869) 
nan

>  <Num_Resolved_Atoms>  (869) 
nan

>  <Num_Not_Resolved_Atoms>  (869) 
nan

$$$$
CHEMBL3629324
     RDKit          3D

  0  0  0  0  0  0  0  0  0  0999 V3000
M  V30 BEGIN CTAB
M  V30 COUNTS 41 44 0 0 0
M  V30 BEGIN ATOM
M  V30 1 N 5.156179 -1.478565 -1.248351 0
M  V30 2 C 3.905504 -1.886797 -0.680393 0
M  V30 3 N 3.313940 -3.024411 -1.130811 0
M  V30 4 C 2.127836 -3.458010 -0.627539 0
M  V30 5 C 1.493537 -2.738806 0.365652 0
M  V30 6 C 0.188680 -3.179147 0.947229 0
M  V30 7 C -0.277330 -4.566379 0.852836 0
M  V30 8 C -0.799872 -3.596938 -0.140795 0
M  V30 9 N 2.099719 -1.618437 0.792669 0
M  V30 10 C 3.272355 -1.157813 0.319433 0
M  V30 11 C 3.906982 0.096847 0.828682 0
M  V30 12 N 3.031628 0.638850 1.856378 0
M  V30 13 C 1.708474 0.956666 1.386092 0
M  V30 14 O 1.196811 0.842945 0.249349 0
M  V30 15 N 0.764283 1.495408 2.309367 0
M  V30 16 C -0.560920 1.834194 1.921007 0
M  V30 17 C -1.033174 3.038498 1.438703 0
M  V30 18 C -2.371511 3.130969 1.125742 0
M  V30 19 C -3.264416 2.094514 1.265477 0
M  V30 20 N -4.584970 2.000566 1.015452 0
M  V30 21 C -4.898898 0.734751 1.350676 0
M  V30 22 O -6.002063 0.160910 1.299029 0
M  V30 23 O -3.840107 0.111160 1.772967 0
M  V30 24 C -2.774117 0.884467 1.753429 0
M  V30 25 C -1.439045 0.755673 2.077225 0
M  V30 26 H 5.239706 -0.947647 -2.159359 0
M  V30 27 H 5.865816 -1.835071 -0.551086 0
M  V30 28 H 1.662294 -4.379957 -1.002315 0
M  V30 29 H -0.210593 -2.508034 1.738500 0
M  V30 30 H 0.364382 -5.385753 0.504929 0
M  V30 31 H -0.989153 -4.896382 1.650684 0
M  V30 32 H -1.803151 -3.137813 -0.064445 0
M  V30 33 H -0.463166 -3.722814 -1.171620 0
M  V30 34 H 3.860394 0.818728 -0.035287 0
M  V30 35 H 4.930370 -0.054923 1.163109 0
M  V30 36 H 3.231349 0.822559 2.862341 0
M  V30 37 H 0.971613 1.678905 3.324454 0
M  V30 38 H -0.290483 3.795509 1.355829 0
M  V30 39 H -2.712741 4.078312 0.752753 0
M  V30 40 H -5.234711 2.733490 0.645142 0
M  V30 41 H -1.188599 -0.226275 2.441947 0
M  V30 END ATOM
M  V30 BEGIN BOND
M  V30 1 1 1 2
M  V30 2 2 2 3
M  V30 3 1 3 4
M  V30 4 2 4 5
M  V30 5 1 5 6
M  V30 6 1 6 7
M  V30 7 1 7 8
M  V30 8 1 5 9
M  V30 9 2 9 10
M  V30 10 1 10 11
M  V30 11 1 11 12
M  V30 12 1 12 13
M  V30 13 2 13 14
M  V30 14 1 13 15
M  V30 15 1 15 16
M  V30 16 2 16 17
M  V30 17 1 17 18
M  V30 18 2 18 19
M  V30 19 1 19 20
M  V30 20 1 20 21
M  V30 21 2 21 22
M  V30 22 1 21 23
M  V30 23 1 23 24
M  V30 24 2 24 25
M  V30 25 1 10 2
M  V30 26 1 25 16
M  V30 27 1 8 6
M  V30 28 1 24 19
M  V30 29 1 1 26
M  V30 30 1 1 27
M  V30 31 1 4 28
M  V30 32 1 6 29
M  V30 33 1 7 30
M  V30 34 1 7 31
M  V30 35 1 8 32
M  V30 36 1 8 33
M  V30 37 1 11 34
M  V30 38 1 11 35
M  V30 39 1 12 36
M  V30 40 1 15 37
M  V30 41 1 17 38
M  V30 42 1 18 39
M  V30 43 1 20 40
M  V30 44 1 25 41
M  V30 END BOND
M  V30 END CTAB
M  END
>  <Dataset>  (870) 
ChEMBL_Kinases

>  <Ligand_Instance>  (870) 
nan

>  <PDB_ID>  (870) 
nan

>  <Standardized_SMILES>  (870) 
Nc1ncc(C2CC2)nc1CNC(=O)Nc1ccc2[nH]c(=O)oc2c1

>  <Name>  (870) 
nan

>  <Pocket>  (870) 
nan

>  <ATP_Site>  (870) 
nan

>  <Peripheral>  (870) 
nan

>  <Num_H_Atoms_ProtBoundConf>  (870) 
nan

>  <Num_Resolved_Atoms>  (870) 
nan

>  <Num_Not_Resolved_Atoms>  (870) 
nan

$$$$
CHEMBL363226
     RDKit          3D

  0  0  0  0  0  0  0  0  0  0999 V3000
M  V30 BEGIN CTAB
M  V30 COUNTS 43 45 0 0 0
M  V30 BEGIN ATOM
M  V30 1 C -4.566380 -1.600985 -0.312117 0
M  V30 2 N -3.209531 -1.375428 -0.131357 0
M  V30 3 C -1.846801 -1.155077 0.046816 0
M  V30 4 N -0.766426 -1.871208 -0.296400 0
M  V30 5 C 0.492140 -1.500098 -0.035589 0
M  V30 6 C 1.496112 -2.417972 -0.502097 0
M  V30 7 C 1.119378 -3.607032 -1.105918 0
M  V30 8 C 2.027848 -4.531073 -1.599766 0
M  V30 9 C 3.402835 -4.261230 -1.489287 0
M  V30 10 C 3.859383 -3.091322 -0.896752 0
M  V30 11 C 2.853538 -2.267271 -0.451521 0
M  V30 12 O 3.317001 -1.106761 0.139101 0
M  V30 13 C 0.597595 -0.313478 0.619892 0
M  V30 14 C -0.384303 0.542266 1.044287 0
M  V30 15 C -0.163837 1.827768 1.730015 0
M  V30 16 C 1.242888 2.300897 1.406119 0
M  V30 17 C 2.238587 2.071247 2.495536 0
M  V30 18 C 1.965980 0.957557 3.447455 0
M  V30 19 N 0.574640 0.599947 3.609930 0
M  V30 20 C -0.195817 1.746525 3.240427 0
M  V30 21 C -1.668730 0.063893 0.722906 0
M  V30 22 C -2.751268 0.943413 1.156328 0
M  V30 23 N -3.611004 1.643390 1.480874 0
M  V30 24 H -5.138185 -0.654696 0.000617 0
M  V30 25 H -4.990417 -2.342677 0.433948 0
M  V30 26 H -4.954612 -1.916713 -1.307221 0
M  V30 27 H -3.078917 -2.323961 -0.621609 0
M  V30 28 H 0.079126 -3.889779 -1.233026 0
M  V30 29 H 1.686882 -5.442934 -2.061130 0
M  V30 30 H 4.110531 -4.987361 -1.877508 0
M  V30 31 H 4.906402 -2.867994 -0.805742 0
M  V30 32 H 3.729535 -0.348095 -0.349219 0
M  V30 33 H 1.601018 0.003386 0.834142 0
M  V30 34 H -0.913691 2.600076 1.366759 0
M  V30 35 H 1.163553 3.433684 1.280821 0
M  V30 36 H 1.617156 1.963072 0.431562 0
M  V30 37 H 2.500233 3.036494 3.038536 0
M  V30 38 H 3.231144 1.837995 1.991963 0
M  V30 39 H 2.493767 0.043105 3.113526 0
M  V30 40 H 2.425856 1.236909 4.436612 0
M  V30 41 H 0.346715 0.204959 4.532399 0
M  V30 42 H 0.335201 2.645508 3.683704 0
M  V30 43 H -1.200159 1.791674 3.680775 0
M  V30 END ATOM
M  V30 BEGIN BOND
M  V30 1 1 1 2
M  V30 2 1 2 3
M  V30 3 2 3 4
M  V30 4 1 4 5
M  V30 5 1 5 6
M  V30 6 2 6 7
M  V30 7 1 7 8
M  V30 8 2 8 9
M  V30 9 1 9 10
M  V30 10 2 10 11
M  V30 11 1 11 12
M  V30 12 2 5 13
M  V30 13 1 13 14
M  V30 14 1 14 15
M  V30 15 1 15 16
M  V30 16 1 16 17
M  V30 17 1 17 18
M  V30 18 1 18 19
M  V30 19 1 19 20
M  V30 20 2 14 21
M  V30 21 1 21 22
M  V30 22 3 22 23
M  V30 23 1 21 3
M  V30 24 1 11 6
M  V30 25 1 20 15
M  V30 26 1 1 24
M  V30 27 1 1 25
M  V30 28 1 1 26
M  V30 29 1 2 27
M  V30 30 1 7 28
M  V30 31 1 8 29
M  V30 32 1 9 30
M  V30 33 1 10 31
M  V30 34 1 12 32
M  V30 35 1 13 33
M  V30 36 1 15 34
M  V30 37 1 16 35
M  V30 38 1 16 36
M  V30 39 1 17 37
M  V30 40 1 17 38
M  V30 41 1 18 39
M  V30 42 1 18 40
M  V30 43 1 19 41
M  V30 44 1 20 42
M  V30 45 1 20 43
M  V30 END BOND
M  V30 END CTAB
M  END
>  <Dataset>  (871) 
ChEMBL_Kinases

>  <Ligand_Instance>  (871) 
nan

>  <PDB_ID>  (871) 
nan

>  <Standardized_SMILES>  (871) 
CNc1nc(-c2ccccc2O)cc(C2CCCNC2)c1C#N

>  <Name>  (871) 
nan

>  <Pocket>  (871) 
nan

>  <ATP_Site>  (871) 
nan

>  <Peripheral>  (871) 
nan

>  <Num_H_Atoms_ProtBoundConf>  (871) 
nan

>  <Num_Resolved_Atoms>  (871) 
nan

>  <Num_Not_Resolved_Atoms>  (871) 
nan

$$$$
CHEMBL3629326
     RDKit          3D

  0  0  0  0  0  0  0  0  0  0999 V3000
M  V30 BEGIN CTAB
M  V30 COUNTS 57 58 0 0 0
M  V30 BEGIN ATOM
M  V30 1 C 1.826930 -2.683537 2.992018 0
M  V30 2 C 2.052510 -2.716427 1.478167 0
M  V30 3 C 3.493502 -2.362973 1.158513 0
M  V30 4 C 3.784563 -0.997871 1.671510 0
M  V30 5 C 4.264125 -0.845316 2.961399 0
M  V30 6 N 4.500382 0.413828 3.355689 0
M  V30 7 C 4.278090 1.444161 2.533414 0
M  V30 8 N 4.582900 2.709723 3.114597 0
M  V30 9 C 3.793314 1.288569 1.230327 0
M  V30 10 C 3.626677 2.578398 0.515187 0
M  V30 11 N 2.409778 3.236652 1.017903 0
M  V30 12 C 1.204534 2.504638 0.834058 0
M  V30 13 O 1.302312 1.385256 0.267759 0
M  V30 14 N -0.123848 2.887394 1.217576 0
M  V30 15 C -1.179595 1.951797 0.909854 0
M  V30 16 C -1.725853 2.188133 -0.343092 0
M  V30 17 C -2.748344 1.389371 -0.810767 0
M  V30 18 C -3.215256 0.360311 -0.019353 0
M  V30 19 N -4.280175 -0.521658 -0.436966 0
M  V30 20 C -3.712601 -1.637808 -1.123570 0
M  V30 21 O -2.471991 -1.627354 -1.220584 0
M  V30 22 O -4.436485 -2.687938 -1.665057 0
M  V30 23 C -3.844354 -3.786935 -2.344341 0
M  V30 24 C -4.966822 -4.707211 -2.778480 0
M  V30 25 C -2.918363 -4.590269 -1.455214 0
M  V30 26 C -3.107005 -3.357346 -3.596444 0
M  V30 27 C -2.661042 0.131017 1.236369 0
M  V30 28 C -1.638062 0.922716 1.715764 0
M  V30 29 N 3.543460 0.023092 0.799693 0
M  V30 30 H 0.775931 -2.962784 3.208387 0
M  V30 31 H 1.983550 -1.668337 3.406407 0
M  V30 32 H 2.559705 -3.349803 3.475683 0
M  V30 33 H 1.810154 -3.735861 1.158351 0
M  V30 34 H 1.385926 -1.999913 0.968044 0
M  V30 35 H 4.138503 -3.077399 1.682372 0
M  V30 36 H 3.606420 -2.440946 0.058005 0
M  V30 37 H 4.413132 -1.731062 3.550958 0
M  V30 38 H 4.211002 3.542954 3.595629 0
M  V30 39 H 4.073608 3.498481 3.596673 0
M  V30 40 H 3.428019 2.337475 -0.543775 0
M  V30 41 H 4.487517 3.236339 0.685291 0
M  V30 42 H 2.273618 4.169331 1.498536 0
M  V30 43 H -0.167284 3.833607 1.692030 0
M  V30 44 H -1.427102 2.966845 -1.030032 0
M  V30 45 H -3.204788 1.542040 -1.790414 0
M  V30 46 H -5.335753 -0.523134 -0.350556 0
M  V30 47 H -5.305826 -5.226915 -1.838892 0
M  V30 48 H -5.784055 -4.167476 -3.270213 0
M  V30 49 H -4.519504 -5.526768 -3.398709 0
M  V30 50 H -1.880553 -4.187376 -1.432884 0
M  V30 51 H -3.390954 -4.624963 -0.442055 0
M  V30 52 H -2.841370 -5.606570 -1.895546 0
M  V30 53 H -3.823899 -3.288655 -4.438923 0
M  V30 54 H -2.361602 -4.140962 -3.825293 0
M  V30 55 H -2.541935 -2.436658 -3.415141 0
M  V30 56 H -2.997008 -0.674029 1.902504 0
M  V30 57 H -1.136722 0.836375 2.668722 0
M  V30 END ATOM
M  V30 BEGIN BOND
M  V30 1 1 1 2
M  V30 2 1 2 3
M  V30 3 1 3 4
M  V30 4 2 4 5
M  V30 5 1 5 6
M  V30 6 2 6 7
M  V30 7 1 7 8
M  V30 8 1 7 9
M  V30 9 1 9 10
M  V30 10 1 10 11
M  V30 11 1 11 12
M  V30 12 2 12 13
M  V30 13 1 12 14
M  V30 14 1 14 15
M  V30 15 2 15 16
M  V30 16 1 16 17
M  V30 17 2 17 18
M  V30 18 1 18 19
M  V30 19 1 19 20
M  V30 20 2 20 21
M  V30 21 1 20 22
M  V30 22 1 22 23
M  V30 23 1 23 24
M  V30 24 1 23 25
M  V30 25 1 23 26
M  V30 26 1 18 27
M  V30 27 2 27 28
M  V30 28 2 9 29
M  V30 29 1 29 4
M  V30 30 1 28 15
M  V30 31 1 1 30
M  V30 32 1 1 31
M  V30 33 1 1 32
M  V30 34 1 2 33
M  V30 35 1 2 34
M  V30 36 1 3 35
M  V30 37 1 3 36
M  V30 38 1 5 37
M  V30 39 1 8 38
M  V30 40 1 8 39
M  V30 41 1 10 40
M  V30 42 1 10 41
M  V30 43 1 11 42
M  V30 44 1 14 43
M  V30 45 1 16 44
M  V30 46 1 17 45
M  V30 47 1 19 46
M  V30 48 1 24 47
M  V30 49 1 24 48
M  V30 50 1 24 49
M  V30 51 1 25 50
M  V30 52 1 25 51
M  V30 53 1 25 52
M  V30 54 1 26 53
M  V30 55 1 26 54
M  V30 56 1 26 55
M  V30 57 1 27 56
M  V30 58 1 28 57
M  V30 END BOND
M  V30 END CTAB
M  END
>  <Dataset>  (872) 
ChEMBL_Kinases

>  <Ligand_Instance>  (872) 
nan

>  <PDB_ID>  (872) 
nan

>  <Standardized_SMILES>  (872) 
CCCc1cnc(N)c(CNC(=O)Nc2ccc(NC(=O)OC(C)(C)C)cc2)n1

>  <Name>  (872) 
nan

>  <Pocket>  (872) 
nan

>  <ATP_Site>  (872) 
nan

>  <Peripheral>  (872) 
nan

>  <Num_H_Atoms_ProtBoundConf>  (872) 
nan

>  <Num_Resolved_Atoms>  (872) 
nan

>  <Num_Not_Resolved_Atoms>  (872) 
nan

$$$$
CHEMBL3629330
     RDKit          3D

  0  0  0  0  0  0  0  0  0  0999 V3000
M  V30 BEGIN CTAB
M  V30 COUNTS 58 60 0 0 0
M  V30 BEGIN ATOM
M  V30 1 C 2.149057 -0.172105 2.523462 0
M  V30 2 C 3.195562 -0.021262 3.590590 0
M  V30 3 C 3.765187 1.391466 3.587795 0
M  V30 4 C 4.388686 1.716153 2.292537 0
M  V30 5 C 5.730123 1.440813 2.098667 0
M  V30 6 N 6.289601 1.744116 0.904788 0
M  V30 7 C 5.532386 2.308092 -0.073269 0
M  V30 8 N 6.308123 2.547855 -1.247510 0
M  V30 9 C 4.188102 2.579190 0.133860 0
M  V30 10 C 3.550452 3.191450 -1.054621 0
M  V30 11 N 2.148614 3.451923 -0.784507 0
M  V30 12 C 1.258174 2.404155 -0.450311 0
M  V30 13 O 1.608467 1.211812 -0.366778 0
M  V30 14 N -0.133535 2.615333 -0.175730 0
M  V30 15 C -0.988112 1.527226 0.155881 0
M  V30 16 C -1.188909 1.109842 1.455633 0
M  V30 17 C -2.020705 0.055048 1.746335 0
M  V30 18 C -2.700740 -0.649435 0.791411 0
M  V30 19 N -3.543432 -1.726861 1.152408 0
M  V30 20 C -4.337259 -2.592953 0.373148 0
M  V30 21 O -4.319184 -2.407024 -0.858817 0
M  V30 22 O -5.085581 -3.581071 0.929494 0
M  V30 23 C -5.902197 -4.490281 0.245299 0
M  V30 24 C -5.119891 -5.307326 -0.708439 0
M  V30 25 C -4.876821 -5.150028 -2.044495 0
M  V30 26 C -4.093460 -6.046003 -2.728190 0
M  V30 27 C -3.508949 -7.142790 -2.134686 0
M  V30 28 C -3.742140 -7.316017 -0.797459 0
M  V30 29 C -4.535011 -6.409771 -0.102870 0
M  V30 30 C -2.472795 -0.201288 -0.490128 0
M  V30 31 C -1.654307 0.845384 -0.842294 0
M  V30 32 N 3.642753 2.275467 1.319080 0
M  V30 33 H 1.455578 -0.988093 2.871187 0
M  V30 34 H 2.630825 -0.463902 1.561396 0
M  V30 35 H 1.589412 0.768086 2.403052 0
M  V30 36 H 4.008021 -0.729774 3.382305 0
M  V30 37 H 2.773094 -0.256973 4.566860 0
M  V30 38 H 2.988649 2.134196 3.838503 0
M  V30 39 H 4.551992 1.447312 4.368371 0
M  V30 40 H 6.285405 0.993510 2.905673 0
M  V30 41 H 7.014840 3.256163 -1.555799 0
M  V30 42 H 6.055248 1.787828 -1.924625 0
M  V30 43 H 3.655838 2.432039 -1.871871 0
M  V30 44 H 4.057966 4.111379 -1.366783 0
M  V30 45 H 1.790140 4.426318 -0.837122 0
M  V30 46 H -0.493615 3.615032 -0.231184 0
M  V30 47 H -0.680189 1.625325 2.257095 0
M  V30 48 H -2.122424 -0.209867 2.808662 0
M  V30 49 H -3.594675 -1.928392 2.196961 0
M  V30 50 H -6.697162 -3.918327 -0.319536 0
M  V30 51 H -6.439644 -5.125834 0.980767 0
M  V30 52 H -5.353423 -4.291166 -2.481278 0
M  V30 53 H -3.980651 -5.804184 -3.782374 0
M  V30 54 H -2.920718 -7.761752 -2.786776 0
M  V30 55 H -3.281803 -8.179049 -0.332861 0
M  V30 56 H -4.634055 -6.675229 0.959438 0
M  V30 57 H -2.949499 -0.673399 -1.323880 0
M  V30 58 H -1.496800 1.169787 -1.839201 0
M  V30 END ATOM
M  V30 BEGIN BOND
M  V30 1 1 1 2
M  V30 2 1 2 3
M  V30 3 1 3 4
M  V30 4 2 4 5
M  V30 5 1 5 6
M  V30 6 2 6 7
M  V30 7 1 7 8
M  V30 8 1 7 9
M  V30 9 1 9 10
M  V30 10 1 10 11
M  V30 11 1 11 12
M  V30 12 2 12 13
M  V30 13 1 12 14
M  V30 14 1 14 15
M  V30 15 2 15 16
M  V30 16 1 16 17
M  V30 17 2 17 18
M  V30 18 1 18 19
M  V30 19 1 19 20
M  V30 20 2 20 21
M  V30 21 1 20 22
M  V30 22 1 22 23
M  V30 23 1 23 24
M  V30 24 2 24 25
M  V30 25 1 25 26
M  V30 26 2 26 27
M  V30 27 1 27 28
M  V30 28 2 28 29
M  V30 29 1 18 30
M  V30 30 2 30 31
M  V30 31 2 9 32
M  V30 32 1 32 4
M  V30 33 1 31 15
M  V30 34 1 29 24
M  V30 35 1 1 33
M  V30 36 1 1 34
M  V30 37 1 1 35
M  V30 38 1 2 36
M  V30 39 1 2 37
M  V30 40 1 3 38
M  V30 41 1 3 39
M  V30 42 1 5 40
M  V30 43 1 8 41
M  V30 44 1 8 42
M  V30 45 1 10 43
M  V30 46 1 10 44
M  V30 47 1 11 45
M  V30 48 1 14 46
M  V30 49 1 16 47
M  V30 50 1 17 48
M  V30 51 1 19 49
M  V30 52 1 23 50
M  V30 53 1 23 51
M  V30 54 1 25 52
M  V30 55 1 26 53
M  V30 56 1 27 54
M  V30 57 1 28 55
M  V30 58 1 29 56
M  V30 59 1 30 57
M  V30 60 1 31 58
M  V30 END BOND
M  V30 END CTAB
M  END
>  <Dataset>  (873) 
ChEMBL_Kinases

>  <Ligand_Instance>  (873) 
nan

>  <PDB_ID>  (873) 
nan

>  <Standardized_SMILES>  (873) 
CCCc1cnc(N)c(CNC(=O)Nc2ccc(NC(=O)OCc3ccccc3)cc2)n1

>  <Name>  (873) 
nan

>  <Pocket>  (873) 
nan

>  <ATP_Site>  (873) 
nan

>  <Peripheral>  (873) 
nan

>  <Num_H_Atoms_ProtBoundConf>  (873) 
nan

>  <Num_Resolved_Atoms>  (873) 
nan

>  <Num_Not_Resolved_Atoms>  (873) 
nan

$$$$
CHEMBL362934
     RDKit          3D

  0  0  0  0  0  0  0  0  0  0999 V3000
M  V30 BEGIN CTAB
M  V30 COUNTS 40 43 0 0 0
M  V30 BEGIN ATOM
M  V30 1 N 3.885496 -0.087155 4.421047 0
M  V30 2 C 3.260728 -0.155944 3.443183 0
M  V30 3 C 2.473419 -0.226410 2.245146 0
M  V30 4 C 2.722729 -1.123270 1.330925 0
M  V30 5 N 2.092115 -1.383153 0.084488 0
M  V30 6 C 2.629467 -2.454197 -0.662827 0
M  V30 7 C 2.193112 -2.902429 -1.896771 0
M  V30 8 C 2.839661 -3.963632 -2.473130 0
M  V30 9 C 3.917954 -4.645890 -1.918485 0
M  V30 10 C 4.313460 -4.167477 -0.699448 0
M  V30 11 C 3.697510 -3.119271 -0.098425 0
M  V30 12 S 4.053577 -2.334715 1.488261 0
M  V30 13 C 1.390386 0.710074 2.053624 0
M  V30 14 C 1.605415 1.997095 2.517622 0
M  V30 15 C 0.695774 3.027617 2.427933 0
M  V30 16 N -0.477983 2.727230 1.840605 0
M  V30 17 C -0.720768 1.484234 1.377478 0
M  V30 18 N -1.937676 1.101562 0.748692 0
M  V30 19 C -2.232448 -0.222465 0.227400 0
M  V30 20 C -3.523160 -0.680337 0.862401 0
M  V30 21 N -3.900381 0.186856 1.959551 0
M  V30 22 C -4.101219 1.561823 1.564702 0
M  V30 23 C -3.037353 2.032247 0.563886 0
M  V30 24 N 0.186986 0.516393 1.484533 0
M  V30 25 H 1.291254 -0.769198 -0.178493 0
M  V30 26 H 1.359537 -2.448176 -2.427750 0
M  V30 27 H 2.485796 -4.305238 -3.442416 0
M  V30 28 H 4.369326 -5.471414 -2.438974 0
M  V30 29 H 5.148000 -4.652186 -0.210945 0
M  V30 30 H 2.553381 2.270415 3.000820 0
M  V30 31 H 0.890981 4.023946 2.798954 0
M  V30 32 H -2.478212 -0.052304 -0.860586 0
M  V30 33 H -1.403866 -0.934487 0.317123 0
M  V30 34 H -4.333051 -0.852471 0.145729 0
M  V30 35 H -3.291505 -1.667329 1.334999 0
M  V30 36 H -3.180871 0.155400 2.695902 0
M  V30 37 H -5.120480 1.805268 1.250639 0
M  V30 38 H -3.918069 2.184792 2.489760 0
M  V30 39 H -3.464019 1.914830 -0.437943 0
M  V30 40 H -2.731524 3.070924 0.776620 0
M  V30 END ATOM
M  V30 BEGIN BOND
M  V30 1 3 1 2
M  V30 2 1 2 3
M  V30 3 2 3 4
M  V30 4 1 4 5
M  V30 5 1 5 6
M  V30 6 2 6 7
M  V30 7 1 7 8
M  V30 8 2 8 9
M  V30 9 1 9 10
M  V30 10 2 10 11
M  V30 11 1 11 12
M  V30 12 1 3 13
M  V30 13 2 13 14
M  V30 14 1 14 15
M  V30 15 2 15 16
M  V30 16 1 16 17
M  V30 17 1 17 18
M  V30 18 1 18 19
M  V30 19 1 19 20
M  V30 20 1 20 21
M  V30 21 1 21 22
M  V30 22 1 22 23
M  V30 23 2 17 24
M  V30 24 1 12 4
M  V30 25 1 24 13
M  V30 26 1 11 6
M  V30 27 1 23 18
M  V30 28 1 5 25
M  V30 29 1 7 26
M  V30 30 1 8 27
M  V30 31 1 9 28
M  V30 32 1 10 29
M  V30 33 1 14 30
M  V30 34 1 15 31
M  V30 35 1 19 32
M  V30 36 1 19 33
M  V30 37 1 20 34
M  V30 38 1 20 35
M  V30 39 1 21 36
M  V30 40 1 22 37
M  V30 41 1 22 38
M  V30 42 1 23 39
M  V30 43 1 23 40
M  V30 END BOND
M  V30 END CTAB
M  END
>  <Dataset>  (874) 
ChEMBL_Kinases

>  <Ligand_Instance>  (874) 
nan

>  <PDB_ID>  (874) 
nan

>  <Standardized_SMILES>  (874) 
N#C/C(=C1/Nc2ccccc2S1)c1ccnc(N2CCNCC2)n1

>  <Name>  (874) 
nan

>  <Pocket>  (874) 
nan

>  <ATP_Site>  (874) 
nan

>  <Peripheral>  (874) 
nan

>  <Num_H_Atoms_ProtBoundConf>  (874) 
nan

>  <Num_Resolved_Atoms>  (874) 
nan

>  <Num_Not_Resolved_Atoms>  (874) 
nan

$$$$
CHEMBL3629616
     RDKit          3D

  0  0  0  0  0  0  0  0  0  0999 V3000
M  V30 BEGIN CTAB
M  V30 COUNTS 27 30 0 0 0
M  V30 BEGIN ATOM
M  V30 1 O 3.601175 -1.515790 1.109471 0
M  V30 2 C 2.340422 -1.457731 1.127169 0
M  V30 3 C 1.512543 -2.467611 1.777657 0
M  V30 4 C 1.759945 -3.648832 2.487301 0
M  V30 5 C 0.694955 -4.398789 2.989321 0
M  V30 6 C -0.598425 -4.006124 2.804425 0
M  V30 7 C -0.905975 -2.849478 2.112292 0
M  V30 8 C 0.177717 -2.145792 1.637692 0
M  V30 9 C 0.123327 -0.883368 0.870413 0
M  V30 10 C 1.407571 -0.477109 0.568671 0
M  V30 11 O 1.693589 0.612700 -0.107719 0
M  V30 12 C 0.797074 1.437402 -0.572693 0
M  V30 13 C 1.075960 2.583300 -1.282967 0
M  V30 14 C 0.090306 3.425433 -1.754805 0
M  V30 15 C -1.211296 3.028267 -1.457877 0
M  V30 16 C -1.540714 1.891270 -0.750902 0
M  V30 17 C -0.512821 1.091128 -0.306435 0
M  V30 18 C -0.863901 -0.042490 0.399398 0
M  V30 19 O -2.067023 -0.349835 0.637428 0
M  V30 20 H 2.817730 -3.906719 2.599967 0
M  V30 21 H 0.945897 -5.307849 3.532907 0
M  V30 22 H -1.388292 -4.641955 3.225306 0
M  V30 23 H -1.910308 -2.536413 1.963730 0
M  V30 24 H 2.108273 2.806338 -1.462426 0
M  V30 25 H 0.293205 4.328695 -2.313965 0
M  V30 26 H -2.033284 3.660076 -1.808404 0
M  V30 27 H -2.561990 1.626912 -0.546720 0
M  V30 END ATOM
M  V30 BEGIN BOND
M  V30 1 2 1 2
M  V30 2 1 2 3
M  V30 3 2 3 4
M  V30 4 1 4 5
M  V30 5 2 5 6
M  V30 6 1 6 7
M  V30 7 2 7 8
M  V30 8 1 8 9
M  V30 9 2 9 10
M  V30 10 1 10 11
M  V30 11 1 11 12
M  V30 12 2 12 13
M  V30 13 1 13 14
M  V30 14 2 14 15
M  V30 15 1 15 16
M  V30 16 2 16 17
M  V30 17 1 17 18
M  V30 18 2 18 19
M  V30 19 1 10 2
M  V30 20 1 17 12
M  V30 21 1 8 3
M  V30 22 1 18 9
M  V30 23 1 4 20
M  V30 24 1 5 21
M  V30 25 1 6 22
M  V30 26 1 7 23
M  V30 27 1 13 24
M  V30 28 1 14 25
M  V30 29 1 15 26
M  V30 30 1 16 27
M  V30 END BOND
M  V30 END CTAB
M  END
>  <Dataset>  (875) 
ChEMBL_Kinases

>  <Ligand_Instance>  (875) 
nan

>  <PDB_ID>  (875) 
nan

>  <Standardized_SMILES>  (875) 
O=C1c2ccccc2-c2c1oc1ccccc1c2=O

>  <Name>  (875) 
nan

>  <Pocket>  (875) 
nan

>  <ATP_Site>  (875) 
nan

>  <Peripheral>  (875) 
nan

>  <Num_H_Atoms_ProtBoundConf>  (875) 
nan

>  <Num_Resolved_Atoms>  (875) 
nan

>  <Num_Not_Resolved_Atoms>  (875) 
nan

$$$$
CHEMBL362967
     RDKit          3D

  0  0  0  0  0  0  0  0  0  0999 V3000
M  V30 BEGIN CTAB
M  V30 COUNTS 47 51 0 0 0
M  V30 BEGIN ATOM
M  V30 1 Br 0.842480 -4.972650 4.566062 0
M  V30 2 C 1.500101 -3.558018 3.488006 0
M  V30 3 C 2.852452 -3.413216 3.283211 0
M  V30 4 N 3.270693 -2.408914 2.521348 0
M  V30 5 C 2.468839 -1.513704 1.928524 0
M  V30 6 N 3.056722 -0.496772 1.145721 0
M  V30 7 C 2.413094 0.539595 0.423067 0
M  V30 8 C 1.061948 0.733351 0.338463 0
M  V30 9 C 0.445160 1.742869 -0.365313 0
M  V30 10 C 1.213719 2.645209 -1.048420 0
M  V30 11 N 0.909169 3.705515 -1.801495 0
M  V30 12 C 2.056014 4.223209 -2.222189 0
M  V30 13 N 3.085972 3.502026 -1.743641 0
M  V30 14 C 2.571469 2.498767 -0.998224 0
M  V30 15 C 3.136949 1.471899 -0.279819 0
M  V30 16 N 1.184113 -1.699240 2.158108 0
M  V30 17 C 0.620259 -2.664039 2.901955 0
M  V30 18 N -0.788357 -2.777280 3.085855 0
M  V30 19 C -1.746852 -1.888919 2.512328 0
M  V30 20 C -1.576386 -0.459492 2.937097 0
M  V30 21 C -2.265318 0.551632 2.101935 0
M  V30 22 C -3.063666 -0.005304 0.945027 0
M  V30 23 C -2.300643 -1.039693 0.201047 0
M  V30 24 C -2.217454 -1.109206 -1.181571 0
M  V30 25 C -1.474624 -2.121285 -1.787881 0
M  V30 26 C -0.831613 -3.041412 -0.996710 0
M  V30 27 C -0.930967 -2.949032 0.371668 0
M  V30 28 C -1.659014 -1.959201 1.035986 0
M  V30 29 H 3.547844 -4.108044 3.738098 0
M  V30 30 H 4.116563 -0.484912 1.072867 0
M  V30 31 H 0.392699 0.068922 0.845290 0
M  V30 32 H -0.624891 1.867181 -0.411724 0
M  V30 33 H -0.026086 4.097079 -2.045989 0
M  V30 34 H 2.268742 5.082149 -2.851069 0
M  V30 35 H 4.229216 1.443242 -0.303862 0
M  V30 36 H -1.107329 -3.584524 3.693032 0
M  V30 37 H -2.761384 -2.193040 2.863506 0
M  V30 38 H -1.979246 -0.409096 3.982054 0
M  V30 39 H -0.506919 -0.171475 3.050528 0
M  V30 40 H -2.976398 1.130714 2.733177 0
M  V30 41 H -1.535343 1.326199 1.738622 0
M  V30 42 H -4.000793 -0.467892 1.317181 0
M  V30 43 H -3.351402 0.825138 0.283971 0
M  V30 44 H -2.770597 -0.323944 -1.680088 0
M  V30 45 H -1.484285 -2.072626 -2.853227 0
M  V30 46 H -0.265373 -3.811884 -1.494020 0
M  V30 47 H -0.409196 -3.694151 0.923104 0
M  V30 END ATOM
M  V30 BEGIN BOND
M  V30 1 1 1 2
M  V30 2 2 2 3
M  V30 3 1 3 4
M  V30 4 2 4 5
M  V30 5 1 5 6
M  V30 6 1 6 7
M  V30 7 2 7 8
M  V30 8 1 8 9
M  V30 9 2 9 10
M  V30 10 1 10 11
M  V30 11 1 11 12
M  V30 12 2 12 13
M  V30 13 1 13 14
M  V30 14 2 14 15
M  V30 15 1 5 16
M  V30 16 2 16 17
M  V30 17 1 17 18
M  V30 18 1 18 19
M  V30 19 1 19 20
M  V30 20 1 20 21
M  V30 21 1 21 22
M  V30 22 1 22 23
M  V30 23 2 23 24
M  V30 24 1 24 25
M  V30 25 2 25 26
M  V30 26 1 26 27
M  V30 27 2 27 28
M  V30 28 1 17 2
M  V30 29 1 28 19
M  V30 30 1 15 7
M  V30 31 1 28 23
M  V30 32 1 14 10
M  V30 33 1 3 29
M  V30 34 1 6 30
M  V30 35 1 8 31
M  V30 36 1 9 32
M  V30 37 1 11 33
M  V30 38 1 12 34
M  V30 39 1 15 35
M  V30 40 1 18 36
M  V30 41 1 19 37
M  V30 42 1 20 38
M  V30 43 1 20 39
M  V30 44 1 21 40
M  V30 45 1 21 41
M  V30 46 1 22 42
M  V30 47 1 22 43
M  V30 48 1 24 44
M  V30 49 1 25 45
M  V30 50 1 26 46
M  V30 51 1 27 47
M  V30 END BOND
M  V30 END CTAB
M  END
>  <Dataset>  (876) 
ChEMBL_Kinases

>  <Ligand_Instance>  (876) 
nan

>  <PDB_ID>  (876) 
nan

>  <Standardized_SMILES>  (876) 
Brc1cnc(Nc2ccc3[nH]cnc3c2)nc1NC1CCCc2ccccc21

>  <Name>  (876) 
nan

>  <Pocket>  (876) 
nan

>  <ATP_Site>  (876) 
nan

>  <Peripheral>  (876) 
nan

>  <Num_H_Atoms_ProtBoundConf>  (876) 
nan

>  <Num_Resolved_Atoms>  (876) 
nan

>  <Num_Not_Resolved_Atoms>  (876) 
nan

$$$$
CHEMBL363054
     RDKit          3D

  0  0  0  0  0  0  0  0  0  0999 V3000
M  V30 BEGIN CTAB
M  V30 COUNTS 36 39 0 0 0
M  V30 BEGIN ATOM
M  V30 1 N 0.449990 -2.781246 3.102368 0
M  V30 2 C 1.751602 -2.345531 3.113899 0
M  V30 3 N 2.583150 -2.901435 4.012697 0
M  V30 4 O 3.726972 -2.318254 3.836472 0
M  V30 5 N 3.598083 -1.464674 2.892549 0
M  V30 6 C 2.364558 -1.398865 2.353756 0
M  V30 7 C 2.032812 -0.516368 1.268118 0
M  V30 8 N 2.979353 0.314981 0.795048 0
M  V30 9 C 2.528572 1.066665 -0.204048 0
M  V30 10 C 3.253103 2.011012 -0.888562 0
M  V30 11 N 2.615900 2.681984 -1.876382 0
M  V30 12 C 1.327429 2.414711 -2.154005 0
M  V30 13 C 0.667303 1.460195 -1.430792 0
M  V30 14 C 1.213407 0.719516 -0.409652 0
M  V30 15 N 0.983833 -0.231966 0.503173 0
M  V30 16 C -0.294725 -0.824720 0.530454 0
M  V30 17 C -1.422685 0.071828 1.006454 0
M  V30 18 C -2.601785 -0.893097 1.212941 0
M  V30 19 N -3.067085 -1.261894 -0.079793 0
M  V30 20 C -2.124254 -1.059466 -1.157930 0
M  V30 21 C -0.726974 -1.396669 -0.815137 0
M  V30 22 H -0.241550 -2.152654 3.607309 0
M  V30 23 H -0.311517 -3.450469 2.849438 0
M  V30 24 H 4.284888 2.212618 -0.652770 0
M  V30 25 H 0.787631 2.933415 -2.937925 0
M  V30 26 H -0.349485 1.235110 -1.624437 0
M  V30 27 H -0.312640 -1.687342 1.199057 0
M  V30 28 H -1.692392 0.806725 0.249317 0
M  V30 29 H -1.218994 0.518894 1.981803 0
M  V30 30 H -2.174153 -1.806052 1.717773 0
M  V30 31 H -3.345456 -0.457541 1.885098 0
M  V30 32 H -3.567308 -2.168007 -0.137469 0
M  V30 33 H -2.449139 -1.788539 -1.959558 0
M  V30 34 H -2.326871 -0.077329 -1.578909 0
M  V30 35 H -0.665133 -2.530332 -0.808880 0
M  V30 36 H -0.042775 -1.062074 -1.606492 0
M  V30 END ATOM
M  V30 BEGIN BOND
M  V30 1 1 1 2
M  V30 2 2 2 3
M  V30 3 1 3 4
M  V30 4 1 4 5
M  V30 5 2 5 6
M  V30 6 1 6 7
M  V30 7 2 7 8
M  V30 8 1 8 9
M  V30 9 2 9 10
M  V30 10 1 10 11
M  V30 11 2 11 12
M  V30 12 1 12 13
M  V30 13 2 13 14
M  V30 14 1 14 15
M  V30 15 1 15 16
M  V30 16 1 16 17
M  V30 17 1 17 18
M  V30 18 1 18 19
M  V30 19 1 19 20
M  V30 20 1 20 21
M  V30 21 1 6 2
M  V30 22 1 15 7
M  V30 23 1 21 16
M  V30 24 1 14 9
M  V30 25 1 1 22
M  V30 26 1 1 23
M  V30 27 1 10 24
M  V30 28 1 12 25
M  V30 29 1 13 26
M  V30 30 1 16 27
M  V30 31 1 17 28
M  V30 32 1 17 29
M  V30 33 1 18 30
M  V30 34 1 18 31
M  V30 35 1 19 32
M  V30 36 1 20 33
M  V30 37 1 20 34
M  V30 38 1 21 35
M  V30 39 1 21 36
M  V30 END BOND
M  V30 END CTAB
M  END
>  <Dataset>  (877) 
ChEMBL_Kinases

>  <Ligand_Instance>  (877) 
nan

>  <PDB_ID>  (877) 
nan

>  <Standardized_SMILES>  (877) 
Nc1nonc1-c1nc2cnccc2n1C1CCNCC1

>  <Name>  (877) 
nan

>  <Pocket>  (877) 
nan

>  <ATP_Site>  (877) 
nan

>  <Peripheral>  (877) 
nan

>  <Num_H_Atoms_ProtBoundConf>  (877) 
nan

>  <Num_Resolved_Atoms>  (877) 
nan

>  <Num_Not_Resolved_Atoms>  (877) 
nan

$$$$
CHEMBL363138
     RDKit          3D

  0  0  0  0  0  0  0  0  0  0999 V3000
M  V30 BEGIN CTAB
M  V30 COUNTS 43 46 0 0 0
M  V30 BEGIN ATOM
M  V30 1 F 5.236421 -4.731723 0.918609 0
M  V30 2 C 4.827956 -4.487603 -0.398123 0
M  V30 3 F 3.785468 -5.377702 -0.657072 0
M  V30 4 F 5.876722 -4.726054 -1.239649 0
M  V30 5 C 4.339148 -3.070820 -0.477421 0
M  V30 6 C 4.873335 -2.137542 -1.332453 0
M  V30 7 C 4.385433 -0.865073 -1.357482 0
M  V30 8 C 3.345237 -0.433031 -0.545775 0
M  V30 9 N 2.885019 0.905468 -0.623019 0
M  V30 10 C 1.847752 1.523217 0.125791 0
M  V30 11 N 1.547368 2.814809 -0.094406 0
M  V30 12 C 0.582428 3.460100 0.575139 0
M  V30 13 C -0.157808 2.812452 1.537882 0
M  V30 14 C -1.246946 3.405455 2.351566 0
M  V30 15 F -2.445876 2.783802 2.192419 0
M  V30 16 F -0.820737 3.373841 3.686023 0
M  V30 17 F -1.434613 4.744519 2.044481 0
M  V30 18 C 0.129005 1.489794 1.783171 0
M  V30 19 N -0.501126 0.622488 2.720524 0
M  V30 20 C -1.604376 -0.221489 2.399167 0
M  V30 21 C -2.227967 -1.056931 3.303079 0
M  V30 22 C -3.291367 -1.864847 2.958270 0
M  V30 23 C -3.758886 -1.838723 1.640766 0
M  V30 24 N -4.763515 -2.516005 1.050047 0
M  V30 25 C -4.764308 -2.092640 -0.247554 0
M  V30 26 N -3.782246 -1.192599 -0.398447 0
M  V30 27 C -3.126764 -0.999701 0.748781 0
M  V30 28 C -2.062654 -0.187731 1.082869 0
M  V30 29 N 1.111096 0.931562 1.063114 0
M  V30 30 C 2.857181 -1.416331 0.284866 0
M  V30 31 C 3.301691 -2.710391 0.358752 0
M  V30 32 H 5.683907 -2.434452 -1.980044 0
M  V30 33 H 4.861468 -0.182469 -2.062895 0
M  V30 34 H 3.376731 1.509390 -1.322695 0
M  V30 35 H 0.346950 4.498592 0.392382 0
M  V30 36 H -0.089950 0.647256 3.683543 0
M  V30 37 H -1.850236 -1.065792 4.329902 0
M  V30 38 H -3.751718 -2.505387 3.697581 0
M  V30 39 H -5.426168 -3.218810 1.444044 0
M  V30 40 H -5.421108 -2.397785 -1.055964 0
M  V30 41 H -1.619055 0.445626 0.319727 0
M  V30 42 H 2.051879 -1.182819 0.951416 0
M  V30 43 H 2.870195 -3.433303 1.037878 0
M  V30 END ATOM
M  V30 BEGIN BOND
M  V30 1 1 1 2
M  V30 2 1 2 3
M  V30 3 1 2 4
M  V30 4 1 2 5
M  V30 5 2 5 6
M  V30 6 1 6 7
M  V30 7 2 7 8
M  V30 8 1 8 9
M  V30 9 1 9 10
M  V30 10 2 10 11
M  V30 11 1 11 12
M  V30 12 2 12 13
M  V30 13 1 13 14
M  V30 14 1 14 15
M  V30 15 1 14 16
M  V30 16 1 14 17
M  V30 17 1 13 18
M  V30 18 1 18 19
M  V30 19 1 19 20
M  V30 20 2 20 21
M  V30 21 1 21 22
M  V30 22 2 22 23
M  V30 23 1 23 24
M  V30 24 1 24 25
M  V30 25 2 25 26
M  V30 26 1 26 27
M  V30 27 2 27 28
M  V30 28 2 18 29
M  V30 29 1 8 30
M  V30 30 2 30 31
M  V30 31 1 31 5
M  V30 32 1 29 10
M  V30 33 1 28 20
M  V30 34 1 27 23
M  V30 35 1 6 32
M  V30 36 1 7 33
M  V30 37 1 9 34
M  V30 38 1 12 35
M  V30 39 1 19 36
M  V30 40 1 21 37
M  V30 41 1 22 38
M  V30 42 1 24 39
M  V30 43 1 25 40
M  V30 44 1 28 41
M  V30 45 1 30 42
M  V30 46 1 31 43
M  V30 END BOND
M  V30 END CTAB
M  END
>  <Dataset>  (878) 
ChEMBL_Kinases

>  <Ligand_Instance>  (878) 
nan

>  <PDB_ID>  (878) 
nan

>  <Standardized_SMILES>  (878) 
FC(F)(F)c1ccc(Nc2ncc(C(F)(F)F)c(Nc3ccc4[nH]cnc4c3)n2)cc1

>  <Name>  (878) 
nan

>  <Pocket>  (878) 
nan

>  <ATP_Site>  (878) 
nan

>  <Peripheral>  (878) 
nan

>  <Num_H_Atoms_ProtBoundConf>  (878) 
nan

>  <Num_Resolved_Atoms>  (878) 
nan

>  <Num_Not_Resolved_Atoms>  (878) 
nan

$$$$
CHEMBL363155
     RDKit          3D

  0  0  0  0  0  0  0  0  0  0999 V3000
M  V30 BEGIN CTAB
M  V30 COUNTS 29 31 0 0 0
M  V30 BEGIN ATOM
M  V30 1 N 1.778846 -4.081542 3.718965 0
M  V30 2 C 1.126231 -3.281115 3.215717 0
M  V30 3 C 0.290414 -2.284654 2.562859 0
M  V30 4 C 0.819884 -1.528773 1.641487 0
M  V30 5 N 0.218414 -0.498794 0.869593 0
M  V30 6 C 1.031045 0.128365 -0.069592 0
M  V30 7 C 0.715756 1.137182 -0.966493 0
M  V30 8 C 1.674644 1.598274 -1.827556 0
M  V30 9 C 1.381828 2.675983 -2.827134 0
M  V30 10 F 2.511404 3.229569 -3.358615 0
M  V30 11 F 0.564694 2.134990 -3.827505 0
M  V30 12 F 0.674900 3.697054 -2.227926 0
M  V30 13 C 2.972680 1.128011 -1.877035 0
M  V30 14 C 3.301102 0.132550 -0.999210 0
M  V30 15 C 2.336504 -0.324752 -0.141847 0
M  V30 16 S 2.527174 -1.623323 1.103229 0
M  V30 17 C -1.090302 -2.177473 2.994885 0
M  V30 18 C -1.705125 -3.435626 3.131402 0
M  V30 19 C -3.000213 -3.609596 3.552023 0
M  V30 20 N -3.716347 -2.505787 3.850177 0
M  V30 21 C -3.138454 -1.281817 3.723872 0
M  V30 22 Cl -4.027584 0.199356 4.110099 0
M  V30 23 N -1.860486 -1.095053 3.308321 0
M  V30 24 H -0.805398 -0.267254 1.043926 0
M  V30 25 H -0.275837 1.611965 -1.045781 0
M  V30 26 H 3.724435 1.499579 -2.557699 0
M  V30 27 H 4.307693 -0.266495 -0.998865 0
M  V30 28 H -1.180123 -4.375166 2.904357 0
M  V30 29 H -3.434882 -4.588055 3.643040 0
M  V30 END ATOM
M  V30 BEGIN BOND
M  V30 1 3 1 2
M  V30 2 1 2 3
M  V30 3 2 3 4
M  V30 4 1 4 5
M  V30 5 1 5 6
M  V30 6 2 6 7
M  V30 7 1 7 8
M  V30 8 1 8 9
M  V30 9 1 9 10
M  V30 10 1 9 11
M  V30 11 1 9 12
M  V30 12 2 8 13
M  V30 13 1 13 14
M  V30 14 2 14 15
M  V30 15 1 15 16
M  V30 16 1 3 17
M  V30 17 2 17 18
M  V30 18 1 18 19
M  V30 19 2 19 20
M  V30 20 1 20 21
M  V30 21 1 21 22
M  V30 22 2 21 23
M  V30 23 1 16 4
M  V30 24 1 23 17
M  V30 25 1 15 6
M  V30 26 1 5 24
M  V30 27 1 7 25
M  V30 28 1 13 26
M  V30 29 1 14 27
M  V30 30 1 18 28
M  V30 31 1 19 29
M  V30 END BOND
M  V30 END CTAB
M  END
>  <Dataset>  (879) 
ChEMBL_Kinases

>  <Ligand_Instance>  (879) 
nan

>  <PDB_ID>  (879) 
nan

>  <Standardized_SMILES>  (879) 
N#C/C(=C1/Nc2cc(C(F)(F)F)ccc2S1)c1ccnc(Cl)n1

>  <Name>  (879) 
nan

>  <Pocket>  (879) 
nan

>  <ATP_Site>  (879) 
nan

>  <Peripheral>  (879) 
nan

>  <Num_H_Atoms_ProtBoundConf>  (879) 
nan

>  <Num_Resolved_Atoms>  (879) 
nan

>  <Num_Not_Resolved_Atoms>  (879) 
nan

$$$$
CHEMBL3629325
     RDKit          3D

  0  0  0  0  0  0  0  0  0  0999 V3000
M  V30 BEGIN CTAB
M  V30 COUNTS 43 45 0 0 0
M  V30 BEGIN ATOM
M  V30 1 C 1.940287 -5.509044 -0.423444 0
M  V30 2 C 0.737043 -4.712941 -0.045477 0
M  V30 3 C 0.648994 -3.352573 -0.654569 0
M  V30 4 C 1.778131 -2.483143 -0.279327 0
M  V30 5 C 2.881533 -2.671219 0.524646 0
M  V30 6 N 3.779488 -1.719173 0.718861 0
M  V30 7 C 3.668188 -0.513195 0.143900 0
M  V30 8 N 4.662991 0.462902 0.391769 0
M  V30 9 C 2.573887 -0.295950 -0.665954 0
M  V30 10 C 2.472769 1.063424 -1.298164 0
M  V30 11 N 2.026771 1.961327 -0.231196 0
M  V30 12 C 0.786725 1.705266 0.401501 0
M  V30 13 O 0.036273 0.744578 0.101227 0
M  V30 14 N 0.262508 2.523197 1.454448 0
M  V30 15 C -1.016488 2.073779 1.949562 0
M  V30 16 C -0.883033 1.174001 2.995952 0
M  V30 17 C -2.014533 0.625702 3.609130 0
M  V30 18 C -3.271167 1.008560 3.139807 0
M  V30 19 N -4.558564 0.708046 3.462315 0
M  V30 20 C -5.385563 1.403572 2.638925 0
M  V30 21 O -6.641236 1.300712 2.733087 0
M  V30 22 O -4.628805 2.124148 1.818348 0
M  V30 23 C -3.363170 1.907882 2.094840 0
M  V30 24 C -2.255546 2.456245 1.480954 0
M  V30 25 N 1.634509 -1.263763 -0.881024 0
M  V30 26 H 1.660851 -6.406622 -1.056778 0
M  V30 27 H 2.689189 -4.955664 -1.038349 0
M  V30 28 H 2.389135 -5.939385 0.493544 0
M  V30 29 H 0.653678 -4.655032 1.072193 0
M  V30 30 H -0.171606 -5.317588 -0.336503 0
M  V30 31 H 0.609422 -3.487789 -1.759375 0
M  V30 32 H -0.331644 -2.908727 -0.352410 0
M  V30 33 H 2.893324 -3.652017 0.945289 0
M  V30 34 H 4.812043 1.012264 1.271424 0
M  V30 35 H 5.313347 0.643240 -0.402730 0
M  V30 36 H 1.669390 1.073278 -2.072341 0
M  V30 37 H 3.433391 1.397509 -1.718760 0
M  V30 38 H 2.543887 2.801916 0.127494 0
M  V30 39 H 0.833202 3.360877 1.774152 0
M  V30 40 H 0.049345 0.824518 3.420594 0
M  V30 41 H -1.959152 -0.077491 4.425250 0
M  V30 42 H -4.732237 0.033661 4.240788 0
M  V30 43 H -2.252588 3.151333 0.675191 0
M  V30 END ATOM
M  V30 BEGIN BOND
M  V30 1 1 1 2
M  V30 2 1 2 3
M  V30 3 1 3 4
M  V30 4 2 4 5
M  V30 5 1 5 6
M  V30 6 2 6 7
M  V30 7 1 7 8
M  V30 8 1 7 9
M  V30 9 1 9 10
M  V30 10 1 10 11
M  V30 11 1 11 12
M  V30 12 2 12 13
M  V30 13 1 12 14
M  V30 14 1 14 15
M  V30 15 2 15 16
M  V30 16 1 16 17
M  V30 17 2 17 18
M  V30 18 1 18 19
M  V30 19 1 19 20
M  V30 20 2 20 21
M  V30 21 1 20 22
M  V30 22 1 22 23
M  V30 23 2 23 24
M  V30 24 2 9 25
M  V30 25 1 25 4
M  V30 26 1 24 15
M  V30 27 1 23 18
M  V30 28 1 1 26
M  V30 29 1 1 27
M  V30 30 1 1 28
M  V30 31 1 2 29
M  V30 32 1 2 30
M  V30 33 1 3 31
M  V30 34 1 3 32
M  V30 35 1 5 33
M  V30 36 1 8 34
M  V30 37 1 8 35
M  V30 38 1 10 36
M  V30 39 1 10 37
M  V30 40 1 11 38
M  V30 41 1 14 39
M  V30 42 1 16 40
M  V30 43 1 17 41
M  V30 44 1 19 42
M  V30 45 1 24 43
M  V30 END BOND
M  V30 END CTAB
M  END
>  <Dataset>  (880) 
ChEMBL_Kinases

>  <Ligand_Instance>  (880) 
nan

>  <PDB_ID>  (880) 
nan

>  <Standardized_SMILES>  (880) 
CCCc1cnc(N)c(CNC(=O)Nc2ccc3[nH]c(=O)oc3c2)n1

>  <Name>  (880) 
nan

>  <Pocket>  (880) 
nan

>  <ATP_Site>  (880) 
nan

>  <Peripheral>  (880) 
nan

>  <Num_H_Atoms_ProtBoundConf>  (880) 
nan

>  <Num_Resolved_Atoms>  (880) 
nan

>  <Num_Not_Resolved_Atoms>  (880) 
nan

$$$$
CHEMBL3639673
     RDKit          3D

  0  0  0  0  0  0  0  0  0  0999 V3000
M  V30 BEGIN CTAB
M  V30 COUNTS 62 66 0 0 0
M  V30 BEGIN ATOM
M  V30 1 C 3.989356 -1.827970 4.474211 0
M  V30 2 O 3.671893 -0.733928 3.669654 0
M  V30 3 C 3.619557 0.536869 4.221952 0
M  V30 4 C 3.876998 0.757340 5.564182 0
M  V30 5 C 3.829650 2.020385 6.132014 0
M  V30 6 C 3.511922 3.081927 5.308850 0
M  V30 7 F 3.458179 4.338639 5.845682 0
M  V30 8 C 3.249359 2.911549 3.973800 0
M  V30 9 C 3.304134 1.636112 3.432713 0
M  V30 10 C 3.037393 1.399961 2.020318 0
M  V30 11 C 4.102834 1.465475 1.152116 0
M  V30 12 C 3.769635 1.231037 -0.176643 0
M  V30 13 N 2.526734 0.961575 -0.606080 0
M  V30 14 C 1.498778 0.899686 0.243036 0
M  V30 15 N 0.178213 0.656369 0.113119 0
M  V30 16 C -0.480479 0.701679 1.299397 0
M  V30 17 C -1.903520 0.488808 1.566853 0
M  V30 18 C -2.834908 1.296817 0.701111 0
M  V30 19 C -3.926471 0.393052 0.109437 0
M  V30 20 N -3.322479 -0.612811 -0.770372 0
M  V30 21 C -4.432143 -1.391091 -1.285157 0
M  V30 22 C -4.049357 -2.415158 -2.264830 0
M  V30 23 O -5.128535 -3.022733 -2.605867 0
M  V30 24 N -2.872734 -2.886899 -2.901511 0
M  V30 25 C -2.874837 -3.946005 -3.840725 0
M  V30 26 C -2.208754 -3.690570 -5.166865 0
M  V30 27 C -1.063673 -4.623703 -4.777346 0
M  V30 28 O 0.103752 -3.974625 -4.407466 0
M  V30 29 C -1.928902 -5.088288 -3.604965 0
M  V30 30 C -2.416916 -1.434781 0.011167 0
M  V30 31 C -2.299746 -0.968549 1.446722 0
M  V30 32 C 0.528701 0.993430 2.189311 0
M  V30 33 C 1.761272 1.124673 1.590016 0
M  V30 34 H 3.194561 -1.913922 5.258703 0
M  V30 35 H 3.892396 -2.743960 3.825701 0
M  V30 36 H 5.009061 -1.827016 4.885513 0
M  V30 37 H 4.124769 -0.112779 6.182214 0
M  V30 38 H 4.040951 2.134767 7.191797 0
M  V30 39 H 2.994951 3.735302 3.302986 0
M  V30 40 H 5.112252 1.681465 1.472841 0
M  V30 41 H 4.577055 1.271551 -0.903669 0
M  V30 42 H -0.219639 0.465563 -0.831036 0
M  V30 43 H -2.080566 0.733057 2.656958 0
M  V30 44 H -3.400356 2.031493 1.329185 0
M  V30 45 H -2.354427 1.849580 -0.104045 0
M  V30 46 H -4.503896 -0.107046 0.908894 0
M  V30 47 H -4.578723 1.029087 -0.517417 0
M  V30 48 H -4.911814 -1.878279 -0.388242 0
M  V30 49 H -5.234614 -0.740227 -1.693654 0
M  V30 50 H -2.070815 -2.319794 -2.553893 0
M  V30 51 H -3.906357 -4.322304 -4.000549 0
M  V30 52 H -2.732736 -4.098826 -6.054386 0
M  V30 53 H -1.902967 -2.649033 -5.360614 0
M  V30 54 H -0.834625 -5.420048 -5.521588 0
M  V30 55 H -0.017943 -3.003924 -4.374184 0
M  V30 56 H -2.342787 -6.100720 -3.838195 0
M  V30 57 H -1.397333 -5.132524 -2.649327 0
M  V30 58 H -1.415309 -1.545972 -0.446740 0
M  V30 59 H -2.841398 -2.457876 0.057202 0
M  V30 60 H -3.193247 -1.199829 2.038955 0
M  V30 61 H -1.466597 -1.569812 1.893950 0
M  V30 62 H 0.384065 1.111517 3.258516 0
M  V30 END ATOM
M  V30 BEGIN BOND
M  V30 1 1 1 2
M  V30 2 1 2 3
M  V30 3 2 3 4
M  V30 4 1 4 5
M  V30 5 2 5 6
M  V30 6 1 6 7
M  V30 7 1 6 8
M  V30 8 2 8 9
M  V30 9 1 9 10
M  V30 10 2 10 11
M  V30 11 1 11 12
M  V30 12 2 12 13
M  V30 13 1 13 14
M  V30 14 1 14 15
M  V30 15 1 15 16
M  V30 16 1 16 17
M  V30 17 1 17 18
M  V30 18 1 18 19
M  V30 19 1 19 20
M  V30 20 1 20 21
M  V30 21 1 21 22
M  V30 22 2 22 23
M  V30 23 1 22 24
M  V30 24 1 24 25
M  V30 25 1 25 26
M  V30 26 1 26 27
M  V30 27 1 27 28
M  V30 28 1 27 29
M  V30 29 1 20 30
M  V30 30 1 30 31
M  V30 31 2 16 32
M  V30 32 1 32 33
M  V30 33 1 9 3
M  V30 34 1 33 10
M  V30 35 2 33 14
M  V30 36 1 31 17
M  V30 37 1 29 25
M  V30 38 1 1 34
M  V30 39 1 1 35
M  V30 40 1 1 36
M  V30 41 1 4 37
M  V30 42 1 5 38
M  V30 43 1 8 39
M  V30 44 1 11 40
M  V30 45 1 12 41
M  V30 46 1 15 42
M  V30 47 1 17 43
M  V30 48 1 18 44
M  V30 49 1 18 45
M  V30 50 1 19 46
M  V30 51 1 19 47
M  V30 52 1 21 48
M  V30 53 1 21 49
M  V30 54 1 24 50
M  V30 55 1 25 51
M  V30 56 1 26 52
M  V30 57 1 26 53
M  V30 58 1 27 54
M  V30 59 1 28 55
M  V30 60 1 29 56
M  V30 61 1 29 57
M  V30 62 1 30 58
M  V30 63 1 30 59
M  V30 64 1 31 60
M  V30 65 1 31 61
M  V30 66 1 32 62
M  V30 END BOND
M  V30 END CTAB
M  END
>  <Dataset>  (881) 
ChEMBL_Kinases

>  <Ligand_Instance>  (881) 
nan

>  <PDB_ID>  (881) 
nan

>  <Standardized_SMILES>  (881) 
COc1ccc(F)cc1-c1ccnc2[nH]c(C3CCN(CC(=O)NC4CC(O)C4)CC3)cc12

>  <Name>  (881) 
nan

>  <Pocket>  (881) 
nan

>  <ATP_Site>  (881) 
nan

>  <Peripheral>  (881) 
nan

>  <Num_H_Atoms_ProtBoundConf>  (881) 
nan

>  <Num_Resolved_Atoms>  (881) 
nan

>  <Num_Not_Resolved_Atoms>  (881) 
nan

$$$$
CHEMBL3639672
     RDKit          3D

  0  0  0  0  0  0  0  0  0  0999 V3000
M  V30 BEGIN CTAB
M  V30 COUNTS 50 53 0 0 0
M  V30 BEGIN ATOM
M  V30 1 C 4.886146 -2.552564 1.101844 0
M  V30 2 O 4.218231 -1.388778 0.732384 0
M  V30 3 C 4.243936 -0.761836 -0.491971 0
M  V30 4 C 5.040204 -1.390052 -1.450276 0
M  V30 5 C 5.155054 -0.865053 -2.723124 0
M  V30 6 C 4.469944 0.296685 -3.043734 0
M  V30 7 F 4.535376 0.874932 -4.283546 0
M  V30 8 C 3.676574 0.935779 -2.113328 0
M  V30 9 C 3.562236 0.410510 -0.841136 0
M  V30 10 C 2.782680 0.924773 0.282609 0
M  V30 11 C 3.364032 1.817858 1.160424 0
M  V30 12 C 2.562588 2.255983 2.193877 0
M  V30 13 N 1.275832 1.878808 2.400709 0
M  V30 14 C 0.720475 1.011879 1.543645 0
M  V30 15 N -0.497885 0.447075 1.459916 0
M  V30 16 C -0.625663 -0.385096 0.412152 0
M  V30 17 C -1.776603 -1.190140 -0.031022 0
M  V30 18 C -2.006660 -2.288006 0.983617 0
M  V30 19 C -3.072158 -1.930745 1.968013 0
M  V30 20 N -4.324093 -1.594430 1.351145 0
M  V30 21 S -5.223528 -0.445454 2.264208 0
M  V30 22 C -5.602716 -1.122674 3.841575 0
M  V30 23 O -6.504403 -0.160987 1.538766 0
M  V30 24 O -4.481896 0.840627 2.448628 0
M  V30 25 C -4.224997 -1.225079 -0.042377 0
M  V30 26 C -3.002981 -0.374729 -0.317372 0
M  V30 27 C 0.639143 -0.305659 -0.182391 0
M  V30 28 C 1.473010 0.544836 0.498501 0
M  V30 29 H 5.961450 -2.429710 0.777167 0
M  V30 30 H 4.931338 -2.590584 2.222094 0
M  V30 31 H 4.500774 -3.477745 0.657353 0
M  V30 32 H 5.602582 -2.298367 -1.270979 0
M  V30 33 H 5.771255 -1.344587 -3.476927 0
M  V30 34 H 3.100806 1.844561 -2.258614 0
M  V30 35 H 4.363831 2.170708 1.080183 0
M  V30 36 H 2.913677 2.959605 2.944782 0
M  V30 37 H -1.238640 0.663439 2.160253 0
M  V30 38 H -1.466031 -1.736120 -0.971782 0
M  V30 39 H -1.056440 -2.450484 1.555404 0
M  V30 40 H -2.286436 -3.247133 0.479536 0
M  V30 41 H -2.711875 -1.153310 2.670160 0
M  V30 42 H -3.215794 -2.844703 2.616282 0
M  V30 43 H -4.696610 -1.602458 4.281178 0
M  V30 44 H -6.459542 -1.800546 3.757935 0
M  V30 45 H -5.851096 -0.249604 4.510387 0
M  V30 46 H -5.163859 -0.693052 -0.287648 0
M  V30 47 H -4.117145 -2.159495 -0.638988 0
M  V30 48 H -3.046565 -0.157830 -1.417198 0
M  V30 49 H -3.075517 0.577789 0.205181 0
M  V30 50 H 0.879481 -0.880274 -1.088227 0
M  V30 END ATOM
M  V30 BEGIN BOND
M  V30 1 1 1 2
M  V30 2 1 2 3
M  V30 3 2 3 4
M  V30 4 1 4 5
M  V30 5 2 5 6
M  V30 6 1 6 7
M  V30 7 1 6 8
M  V30 8 2 8 9
M  V30 9 1 9 10
M  V30 10 2 10 11
M  V30 11 1 11 12
M  V30 12 2 12 13
M  V30 13 1 13 14
M  V30 14 1 14 15
M  V30 15 1 15 16
M  V30 16 1 16 17
M  V30 17 1 17 18
M  V30 18 1 18 19
M  V30 19 1 19 20
M  V30 20 1 20 21
M  V30 21 1 21 22
M  V30 22 2 21 23
M  V30 23 2 21 24
M  V30 24 1 20 25
M  V30 25 1 25 26
M  V30 26 2 16 27
M  V30 27 1 27 28
M  V30 28 1 9 3
M  V30 29 1 28 10
M  V30 30 2 28 14
M  V30 31 1 26 17
M  V30 32 1 1 29
M  V30 33 1 1 30
M  V30 34 1 1 31
M  V30 35 1 4 32
M  V30 36 1 5 33
M  V30 37 1 8 34
M  V30 38 1 11 35
M  V30 39 1 12 36
M  V30 40 1 15 37
M  V30 41 1 17 38
M  V30 42 1 18 39
M  V30 43 1 18 40
M  V30 44 1 19 41
M  V30 45 1 19 42
M  V30 46 1 22 43
M  V30 47 1 22 44
M  V30 48 1 22 45
M  V30 49 1 25 46
M  V30 50 1 25 47
M  V30 51 1 26 48
M  V30 52 1 26 49
M  V30 53 1 27 50
M  V30 END BOND
M  V30 END CTAB
M  END
>  <Dataset>  (882) 
ChEMBL_Kinases

>  <Ligand_Instance>  (882) 
nan

>  <PDB_ID>  (882) 
nan

>  <Standardized_SMILES>  (882) 
COc1ccc(F)cc1-c1ccnc2[nH]c(C3CCN(S(C)(=O)=O)CC3)cc12

>  <Name>  (882) 
nan

>  <Pocket>  (882) 
nan

>  <ATP_Site>  (882) 
nan

>  <Peripheral>  (882) 
nan

>  <Num_H_Atoms_ProtBoundConf>  (882) 
nan

>  <Num_Resolved_Atoms>  (882) 
nan

>  <Num_Not_Resolved_Atoms>  (882) 
nan

$$$$
CHEMBL3639626
     RDKit          3D

  0  0  0  0  0  0  0  0  0  0999 V3000
M  V30 BEGIN CTAB
M  V30 COUNTS 44 47 0 0 0
M  V30 BEGIN ATOM
M  V30 1 C -0.437427 -3.135236 -0.593286 0
M  V30 2 O 0.466942 -2.966887 -1.668512 0
M  V30 3 C 1.769342 -2.477632 -1.455219 0
M  V30 4 C 2.688617 -3.502438 -1.205054 0
M  V30 5 Cl 2.266781 -5.191744 -1.162836 0
M  V30 6 C 3.993933 -3.160048 -0.980525 0
M  V30 7 C 4.377486 -1.834994 -1.003575 0
M  V30 8 C 3.471672 -0.825278 -1.250074 0
M  V30 9 C 2.149310 -1.147351 -1.479334 0
M  V30 10 C 1.016572 -0.269971 -1.759565 0
M  V30 11 C 0.740178 0.035214 -3.095345 0
M  V30 12 C -0.331181 0.864971 -3.359299 0
M  V30 13 N -1.101286 1.377629 -2.383454 0
M  V30 14 C -0.846934 1.091327 -1.078312 0
M  V30 15 N -1.451939 1.465612 0.084458 0
M  V30 16 C -0.778319 0.883227 1.094615 0
M  V30 17 C -1.085328 1.010351 2.558488 0
M  V30 18 C -1.326574 -0.369568 3.133744 0
M  V30 19 C -1.655255 -0.248147 4.583867 0
M  V30 20 N -1.466812 1.091693 5.105587 0
M  V30 21 C -0.200410 1.654542 4.753718 0
M  V30 22 C 0.119136 1.567052 3.289233 0
M  V30 23 C 0.278366 0.116901 0.630538 0
M  V30 24 C 0.216473 0.262406 -0.742243 0
M  V30 25 H 0.104074 -2.974906 0.369734 0
M  V30 26 H -1.245403 -2.377553 -0.621624 0
M  V30 27 H -0.940428 -4.119265 -0.620114 0
M  V30 28 H 4.758285 -3.889618 -0.781427 0
M  V30 29 H 5.387922 -1.504348 -0.834542 0
M  V30 30 H 3.656095 0.236034 -1.292000 0
M  V30 31 H 1.367254 -0.382591 -3.884938 0
M  V30 32 H -0.481758 1.054998 -4.417626 0
M  V30 33 H -2.281345 2.089226 0.141003 0
M  V30 34 H -1.950344 1.652068 2.734560 0
M  V30 35 H -0.392907 -0.940415 2.940529 0
M  V30 36 H -2.171241 -0.793694 2.542265 0
M  V30 37 H -1.048849 -0.948448 5.209739 0
M  V30 38 H -2.717137 -0.541117 4.715091 0
M  V30 39 H -2.282606 1.706555 5.031054 0
M  V30 40 H 0.587520 1.148275 5.366371 0
M  V30 41 H -0.219839 2.716072 5.111315 0
M  V30 42 H 0.449033 2.531576 2.862096 0
M  V30 43 H 0.947342 0.840590 3.135865 0
M  V30 44 H 0.998874 -0.465890 1.152625 0
M  V30 END ATOM
M  V30 BEGIN BOND
M  V30 1 1 1 2
M  V30 2 1 2 3
M  V30 3 2 3 4
M  V30 4 1 4 5
M  V30 5 1 4 6
M  V30 6 2 6 7
M  V30 7 1 7 8
M  V30 8 2 8 9
M  V30 9 1 9 10
M  V30 10 2 10 11
M  V30 11 1 11 12
M  V30 12 2 12 13
M  V30 13 1 13 14
M  V30 14 1 14 15
M  V30 15 1 15 16
M  V30 16 1 16 17
M  V30 17 1 17 18
M  V30 18 1 18 19
M  V30 19 1 19 20
M  V30 20 1 20 21
M  V30 21 1 21 22
M  V30 22 2 16 23
M  V30 23 1 23 24
M  V30 24 1 9 3
M  V30 25 1 24 10
M  V30 26 2 24 14
M  V30 27 1 22 17
M  V30 28 1 1 25
M  V30 29 1 1 26
M  V30 30 1 1 27
M  V30 31 1 6 28
M  V30 32 1 7 29
M  V30 33 1 8 30
M  V30 34 1 11 31
M  V30 35 1 12 32
M  V30 36 1 15 33
M  V30 37 1 17 34
M  V30 38 1 18 35
M  V30 39 1 18 36
M  V30 40 1 19 37
M  V30 41 1 19 38
M  V30 42 1 20 39
M  V30 43 1 21 40
M  V30 44 1 21 41
M  V30 45 1 22 42
M  V30 46 1 22 43
M  V30 47 1 23 44
M  V30 END BOND
M  V30 END CTAB
M  END
>  <Dataset>  (883) 
ChEMBL_Kinases

>  <Ligand_Instance>  (883) 
nan

>  <PDB_ID>  (883) 
nan

>  <Standardized_SMILES>  (883) 
COc1c(Cl)cccc1-c1ccnc2[nH]c(C3CCNCC3)cc12

>  <Name>  (883) 
nan

>  <Pocket>  (883) 
nan

>  <ATP_Site>  (883) 
nan

>  <Peripheral>  (883) 
nan

>  <Num_H_Atoms_ProtBoundConf>  (883) 
nan

>  <Num_Resolved_Atoms>  (883) 
nan

>  <Num_Not_Resolved_Atoms>  (883) 
nan

$$$$
CHEMBL3639619
     RDKit          3D

  0  0  0  0  0  0  0  0  0  0999 V3000
M  V30 BEGIN CTAB
M  V30 COUNTS 46 49 0 0 0
M  V30 BEGIN ATOM
M  V30 1 C 3.832897 -4.158422 -4.687366 0
M  V30 2 O 3.155460 -3.904833 -3.524283 0
M  V30 3 C 1.789986 -3.990605 -3.583342 0
M  V30 4 C 1.152893 -3.024249 -4.570362 0
M  V30 5 N 1.455369 -1.653623 -4.235295 0
M  V30 6 C 1.074310 -1.088211 -2.988205 0
M  V30 7 O 0.446852 -1.760054 -2.102063 0
M  V30 8 N 1.372314 0.274215 -2.649213 0
M  V30 9 C 0.970574 0.796774 -1.388040 0
M  V30 10 C 1.215856 2.092455 -0.981989 0
M  V30 11 C 0.801985 2.545989 0.255473 0
M  V30 12 N 0.877407 3.703855 0.933408 0
M  V30 13 N 0.299577 3.587002 2.114797 0
M  V30 14 C -0.197132 2.334033 2.290982 0
M  V30 15 C -0.906304 1.776771 3.439396 0
M  V30 16 C -1.924318 2.463663 4.082105 0
M  V30 17 C -2.600151 1.924872 5.181838 0
M  V30 18 C -2.257709 0.671607 5.657236 0
M  V30 19 C -2.736188 -0.085896 6.690252 0
M  V30 20 N -2.020210 -1.224012 6.681394 0
M  V30 21 C -2.064476 -2.388721 7.517569 0
M  V30 22 N -1.141382 -1.195778 5.706262 0
M  V30 23 C -1.250508 -0.039783 5.042863 0
M  V30 24 C -0.613720 0.533086 3.962553 0
M  V30 25 C 0.123396 1.685322 1.116002 0
M  V30 26 C -0.105470 0.409884 0.688714 0
M  V30 27 N 0.311667 0.014559 -0.513516 0
M  V30 28 H 4.932424 -4.046970 -4.441110 0
M  V30 29 H 3.571504 -3.437761 -5.515873 0
M  V30 30 H 3.738751 -5.193652 -5.055474 0
M  V30 31 H 1.549156 -5.040034 -3.888340 0
M  V30 32 H 1.330561 -3.870202 -2.581341 0
M  V30 33 H 0.057576 -3.212812 -4.603473 0
M  V30 34 H 1.560802 -3.250113 -5.573722 0
M  V30 35 H 1.973306 -1.010609 -4.902412 0
M  V30 36 H 1.882764 0.888455 -3.320805 0
M  V30 37 H 1.742474 2.762619 -1.648167 0
M  V30 38 H 1.344133 4.543484 0.521924 0
M  V30 39 H -2.189540 3.456516 3.698893 0
M  V30 40 H -3.400095 2.485823 5.672523 0
M  V30 41 H -3.518138 0.125409 7.397934 0
M  V30 42 H -2.750945 -2.224431 8.372828 0
M  V30 43 H -2.480288 -3.238345 6.908185 0
M  V30 44 H -1.070853 -2.682327 7.916572 0
M  V30 45 H 0.167211 -0.073454 3.523445 0
M  V30 46 H -0.615483 -0.327968 1.269147 0
M  V30 END ATOM
M  V30 BEGIN BOND
M  V30 1 1 1 2
M  V30 2 1 2 3
M  V30 3 1 3 4
M  V30 4 1 4 5
M  V30 5 1 5 6
M  V30 6 2 6 7
M  V30 7 1 6 8
M  V30 8 1 8 9
M  V30 9 2 9 10
M  V30 10 1 10 11
M  V30 11 1 11 12
M  V30 12 1 12 13
M  V30 13 2 13 14
M  V30 14 1 14 15
M  V30 15 1 15 16
M  V30 16 2 16 17
M  V30 17 1 17 18
M  V30 18 2 18 19
M  V30 19 1 19 20
M  V30 20 1 20 21
M  V30 21 1 20 22
M  V30 22 2 22 23
M  V30 23 1 23 24
M  V30 24 1 14 25
M  V30 25 1 25 26
M  V30 26 2 26 27
M  V30 27 1 27 9
M  V30 28 2 25 11
M  V30 29 2 24 15
M  V30 30 1 23 18
M  V30 31 1 1 28
M  V30 32 1 1 29
M  V30 33 1 1 30
M  V30 34 1 3 31
M  V30 35 1 3 32
M  V30 36 1 4 33
M  V30 37 1 4 34
M  V30 38 1 5 35
M  V30 39 1 8 36
M  V30 40 1 10 37
M  V30 41 1 12 38
M  V30 42 1 16 39
M  V30 43 1 17 40
M  V30 44 1 19 41
M  V30 45 1 21 42
M  V30 46 1 21 43
M  V30 47 1 21 44
M  V30 48 1 24 45
M  V30 49 1 26 46
M  V30 END BOND
M  V30 END CTAB
M  END
>  <Dataset>  (884) 
ChEMBL_Kinases

>  <Ligand_Instance>  (884) 
nan

>  <PDB_ID>  (884) 
nan

>  <Standardized_SMILES>  (884) 
COCCNC(=O)Nc1cc2[nH]nc(-c3ccc4cn(C)nc4c3)c2cn1

>  <Name>  (884) 
nan

>  <Pocket>  (884) 
nan

>  <ATP_Site>  (884) 
nan

>  <Peripheral>  (884) 
nan

>  <Num_H_Atoms_ProtBoundConf>  (884) 
nan

>  <Num_Resolved_Atoms>  (884) 
nan

>  <Num_Not_Resolved_Atoms>  (884) 
nan

$$$$
CHEMBL3639618
     RDKit          3D

  0  0  0  0  0  0  0  0  0  0999 V3000
M  V30 BEGIN CTAB
M  V30 COUNTS 45 48 0 0 0
M  V30 BEGIN ATOM
M  V30 1 C -3.939239 -5.883744 0.090315 0
M  V30 2 C -2.643739 -5.853419 0.830764 0
M  V30 3 C -1.618554 -5.072390 0.307303 0
M  V30 4 C -0.418268 -5.014328 0.948545 0
M  V30 5 C 0.771371 -4.259702 0.566730 0
M  V30 6 N 2.036630 -4.730282 0.560352 0
M  V30 7 N 2.866600 -3.756972 0.155379 0
M  V30 8 C 2.109385 -2.660584 -0.095706 0
M  V30 9 C 2.498527 -1.405387 -0.534147 0
M  V30 10 C 1.465610 -0.502948 -0.689486 0
M  V30 11 N 1.663846 0.842629 -1.132418 0
M  V30 12 C 1.912748 1.820604 -0.162162 0
M  V30 13 O 1.949266 1.461355 1.037864 0
M  V30 14 N 2.130149 3.177394 -0.375293 0
M  V30 15 C 2.398119 4.400859 0.338481 0
M  V30 16 C 1.322204 4.787202 1.279339 0
M  V30 17 C 1.038259 4.387402 2.560838 0
M  V30 18 F 1.920210 3.526593 3.110508 0
M  V30 19 C -0.043623 4.831824 3.288229 0
M  V30 20 C -0.912230 5.734695 2.721347 0
M  V30 21 F -1.957225 6.126635 3.502921 0
M  V30 22 C -0.683924 6.172188 1.448743 0
M  V30 23 C 0.408228 5.707364 0.747591 0
M  V30 24 F 0.503850 6.235959 -0.510926 0
M  V30 25 N 0.180809 -0.810923 -0.437140 0
M  V30 26 C -0.214675 -2.032102 -0.008677 0
M  V30 27 C 0.784123 -2.943451 0.153637 0
M  V30 28 C -0.243850 -5.745024 2.123990 0
M  V30 29 C -1.265001 -6.515512 2.634432 0
M  V30 30 N -2.445227 -6.550833 1.972140 0
M  V30 31 H -4.595920 -6.664430 0.504002 0
M  V30 32 H -3.791833 -5.971442 -0.998573 0
M  V30 33 H -4.459463 -4.911749 0.266412 0
M  V30 34 H -1.677736 -4.482589 -0.592776 0
M  V30 35 H 3.902383 -3.830436 0.052614 0
M  V30 36 H 3.498869 -1.102579 -0.750166 0
M  V30 37 H 1.632333 1.140528 -2.146081 0
M  V30 38 H 2.075197 3.361414 -1.434399 0
M  V30 39 H 3.341659 4.174490 0.926978 0
M  V30 40 H 2.612241 5.222474 -0.337868 0
M  V30 41 H -0.139291 4.421178 4.299993 0
M  V30 42 H -1.396824 6.880961 1.054209 0
M  V30 43 H -1.259997 -2.218618 0.176607 0
M  V30 44 H 0.668054 -5.772083 2.715572 0
M  V30 45 H -1.155220 -7.095226 3.550128 0
M  V30 END ATOM
M  V30 BEGIN BOND
M  V30 1 1 1 2
M  V30 2 2 2 3
M  V30 3 1 3 4
M  V30 4 1 4 5
M  V30 5 2 5 6
M  V30 6 1 6 7
M  V30 7 1 7 8
M  V30 8 2 8 9
M  V30 9 1 9 10
M  V30 10 1 10 11
M  V30 11 1 11 12
M  V30 12 2 12 13
M  V30 13 1 12 14
M  V30 14 1 14 15
M  V30 15 1 15 16
M  V30 16 2 16 17
M  V30 17 1 17 18
M  V30 18 1 17 19
M  V30 19 2 19 20
M  V30 20 1 20 21
M  V30 21 1 20 22
M  V30 22 2 22 23
M  V30 23 1 23 24
M  V30 24 2 10 25
M  V30 25 1 25 26
M  V30 26 2 26 27
M  V30 27 2 4 28
M  V30 28 1 28 29
M  V30 29 2 29 30
M  V30 30 1 30 2
M  V30 31 1 27 5
M  V30 32 1 27 8
M  V30 33 1 23 16
M  V30 34 1 1 31
M  V30 35 1 1 32
M  V30 36 1 1 33
M  V30 37 1 3 34
M  V30 38 1 7 35
M  V30 39 1 9 36
M  V30 40 1 11 37
M  V30 41 1 14 38
M  V30 42 1 15 39
M  V30 43 1 15 40
M  V30 44 1 19 41
M  V30 45 1 22 42
M  V30 46 1 26 43
M  V30 47 1 28 44
M  V30 48 1 29 45
M  V30 END BOND
M  V30 END CTAB
M  END
>  <Dataset>  (885) 
ChEMBL_Kinases

>  <Ligand_Instance>  (885) 
nan

>  <PDB_ID>  (885) 
nan

>  <Standardized_SMILES>  (885) 
Cc1cc(-c2n[nH]c3cc(NC(=O)NCc4c(F)cc(F)cc4F)ncc23)ccn1

>  <Name>  (885) 
nan

>  <Pocket>  (885) 
nan

>  <ATP_Site>  (885) 
nan

>  <Peripheral>  (885) 
nan

>  <Num_H_Atoms_ProtBoundConf>  (885) 
nan

>  <Num_Resolved_Atoms>  (885) 
nan

>  <Num_Not_Resolved_Atoms>  (885) 
nan

$$$$
CHEMBL3639617
     RDKit          3D

  0  0  0  0  0  0  0  0  0  0999 V3000
M  V30 BEGIN CTAB
M  V30 COUNTS 59 62 0 0 0
M  V30 BEGIN ATOM
M  V30 1 C 3.206915 3.078751 4.332549 0
M  V30 2 C 3.268118 1.713114 4.916357 0
M  V30 3 O 3.356450 1.256144 6.146533 0
M  V30 4 C 3.376908 -0.067585 6.119704 0
M  V30 5 N 3.298709 -0.437151 4.831446 0
M  V30 6 C 3.227335 0.664649 4.025411 0
M  V30 7 C 3.140952 0.375109 2.616864 0
M  V30 8 O 3.118826 -0.761324 2.028502 0
M  V30 9 N 3.061397 1.337955 1.578151 0
M  V30 10 C 2.978487 0.997476 0.198743 0
M  V30 11 N 4.031619 0.824154 -0.630691 0
M  V30 12 N 3.625259 0.516712 -1.841288 0
M  V30 13 C 2.265706 0.488652 -1.799675 0
M  V30 14 C 1.825643 0.786558 -0.530863 0
M  V30 15 C 0.363426 0.736605 -0.568962 0
M  V30 16 N 0.114908 -0.329009 -1.553480 0
M  V30 17 C -0.632201 -1.545449 -1.694057 0
M  V30 18 O -0.530892 -2.174638 -2.802533 0
M  V30 19 N -1.504605 -2.167205 -0.724765 0
M  V30 20 C -1.727420 -1.585129 0.576790 0
M  V30 21 C -2.767470 -2.412886 1.297752 0 CFG=1
M  V30 22 C -3.147734 -1.729298 2.595614 0
M  V30 23 N -3.914935 -2.508507 0.413912 0
M  V30 24 C -5.136557 -2.857944 1.066297 0
M  V30 25 C -3.613567 -3.432610 -0.657578 0
M  V30 26 C -2.168521 -3.390589 -1.061098 0 CFG=2
M  V30 27 C -1.373933 -4.556371 -0.528236 0
M  V30 28 C 0.975041 0.269302 -2.548231 0
M  V30 29 C 0.528601 1.611473 -3.031006 0
M  V30 30 C 1.211322 -0.684787 -3.702582 0
M  V30 31 H 2.282168 3.310124 3.804404 0
M  V30 32 H 4.080347 3.283662 3.707790 0
M  V30 33 H 3.247238 3.813191 5.189280 0
M  V30 34 H 3.444409 -0.705020 6.989697 0
M  V30 35 H 3.060797 2.357314 1.790077 0
M  V30 36 H 4.163348 0.320903 -2.703195 0
M  V30 37 H -0.107244 0.553453 0.397016 0
M  V30 38 H -0.094773 1.670138 -1.013981 0
M  V30 39 H -2.193123 -0.567354 0.477817 0
M  V30 40 H -0.788236 -1.573108 1.174423 0
M  V30 41 H -2.340445 -3.400602 1.561914 0
M  V30 42 H -3.664598 -2.484838 3.201096 0
M  V30 43 H -3.766008 -0.833381 2.369984 0
M  V30 44 H -2.223490 -1.412177 3.095282 0
M  V30 45 H -5.960813 -2.567348 0.367280 0
M  V30 46 H -5.247072 -3.933035 1.280542 0
M  V30 47 H -5.244821 -2.196588 1.945722 0
M  V30 48 H -3.835364 -4.451335 -0.277074 0
M  V30 49 H -4.298580 -3.214422 -1.502057 0
M  V30 50 H -2.148149 -3.489247 -2.184542 0
M  V30 51 H -2.028746 -5.246063 0.070740 0
M  V30 52 H -0.859241 -5.124880 -1.335011 0
M  V30 53 H -0.572427 -4.221065 0.175570 0
M  V30 54 H 1.064976 2.397941 -2.501685 0
M  V30 55 H -0.582333 1.677405 -2.982620 0
M  V30 56 H 0.745110 1.640842 -4.142020 0
M  V30 57 H 0.376677 -0.785496 -4.389908 0
M  V30 58 H 2.060158 -0.217605 -4.298451 0
M  V30 59 H 1.641314 -1.632513 -3.328123 0
M  V30 END ATOM
M  V30 BEGIN BOND
M  V30 1 1 1 2
M  V30 2 1 2 3
M  V30 3 1 3 4
M  V30 4 2 4 5
M  V30 5 1 5 6
M  V30 6 1 6 7
M  V30 7 2 7 8
M  V30 8 1 7 9
M  V30 9 1 9 10
M  V30 10 2 10 11
M  V30 11 1 11 12
M  V30 12 1 12 13
M  V30 13 2 13 14
M  V30 14 1 14 15
M  V30 15 1 15 16
M  V30 16 1 16 17
M  V30 17 2 17 18
M  V30 18 1 17 19
M  V30 19 1 19 20
M  V30 20 1 20 21
M  V30 21 1 21 22
M  V30 22 1 21 23
M  V30 23 1 23 24
M  V30 24 1 23 25
M  V30 25 1 25 26
M  V30 26 1 26 27
M  V30 27 1 16 28
M  V30 28 1 28 29
M  V30 29 1 28 30
M  V30 30 2 6 2
M  V30 31 1 14 10
M  V30 32 1 26 19
M  V30 33 1 28 13
M  V30 34 1 1 31
M  V30 35 1 1 32
M  V30 36 1 1 33
M  V30 37 1 4 34
M  V30 38 1 9 35
M  V30 39 1 12 36
M  V30 40 1 15 37
M  V30 41 1 15 38
M  V30 42 1 20 39
M  V30 43 1 20 40
M  V30 44 1 21 41 CFG=1
M  V30 45 1 22 42
M  V30 46 1 22 43
M  V30 47 1 22 44
M  V30 48 1 24 45
M  V30 49 1 24 46
M  V30 50 1 24 47
M  V30 51 1 25 48
M  V30 52 1 25 49
M  V30 53 1 26 50 CFG=3
M  V30 54 1 27 51
M  V30 55 1 27 52
M  V30 56 1 27 53
M  V30 57 1 29 54
M  V30 58 1 29 55
M  V30 59 1 29 56
M  V30 60 1 30 57
M  V30 61 1 30 58
M  V30 62 1 30 59
M  V30 END BOND
M  V30 END CTAB
M  END
>  <Dataset>  (886) 
ChEMBL_Kinases

>  <Ligand_Instance>  (886) 
nan

>  <PDB_ID>  (886) 
nan

>  <Standardized_SMILES>  (886) 
Cc1ocnc1C(=O)Nc1n[nH]c2c1CN(C(=O)N1C[C@@H](C)N(C)C[C@@H]1C)C2(C)C

>  <Name>  (886) 
nan

>  <Pocket>  (886) 
nan

>  <ATP_Site>  (886) 
nan

>  <Peripheral>  (886) 
nan

>  <Num_H_Atoms_ProtBoundConf>  (886) 
nan

>  <Num_Resolved_Atoms>  (886) 
nan

>  <Num_Not_Resolved_Atoms>  (886) 
nan

$$$$
CHEMBL3639616
     RDKit          3D

  0  0  0  0  0  0  0  0  0  0999 V3000
M  V30 BEGIN CTAB
M  V30 COUNTS 66 71 0 0 0
M  V30 BEGIN ATOM
M  V30 1 C 4.120772 1.847821 -1.093976 0
M  V30 2 C 3.802317 0.843071 -0.039870 0 CFG=1
M  V30 3 C 4.571771 1.079249 1.245326 0
M  V30 4 N 3.773350 0.580689 2.314120 0
M  V30 5 C 4.410868 0.435543 3.579350 0
M  V30 6 C 3.251069 -0.127405 4.413133 0
M  V30 7 C 2.471961 -0.951936 3.386931 0
M  V30 8 C 3.173488 -0.694909 2.063187 0 CFG=1
M  V30 9 C 2.236750 -0.638053 0.891587 0
M  V30 10 N 2.400429 0.678204 0.271200 0
M  V30 11 C 1.360206 1.605667 0.033619 0
M  V30 12 O 1.869002 2.646498 -0.507179 0
M  V30 13 N -0.053117 1.704968 0.221069 0
M  V30 14 C -1.153231 0.900197 0.760797 0
M  V30 15 C -2.105593 0.938547 -0.363220 0
M  V30 16 C -3.086722 0.232370 -1.053975 0
M  V30 17 N -3.485403 -1.088352 -0.690887 0
M  V30 18 C -2.723257 -2.098903 -1.341513 0
M  V30 19 O -1.817005 -1.736228 -2.134377 0
M  V30 20 C -2.940449 -3.503084 -1.135410 0
M  V30 21 C -2.127225 -4.384799 -1.832385 0
M  V30 22 C -2.239775 -5.774640 -1.716453 0
M  V30 23 C -3.220833 -6.229071 -0.856047 0
M  V30 24 C -4.056381 -5.373928 -0.139307 0
M  V30 25 C -3.902633 -4.014140 -0.290757 0
M  V30 26 C -4.999945 -6.173772 0.692561 0
M  V30 27 C -4.227414 -7.489841 0.793622 0
M  V30 28 O -3.611604 -7.520544 -0.498962 0
M  V30 29 N -3.497649 1.055051 -2.039373 0
M  V30 30 N -2.834935 2.200488 -1.988800 0
M  V30 31 C -1.959291 2.167842 -0.959896 0
M  V30 32 C -0.888025 2.832744 -0.143789 0
M  V30 33 C -0.177966 3.865403 -0.996679 0
M  V30 34 C -1.599798 3.472357 1.018243 0
M  V30 35 H 3.402834 1.733573 -1.927900 0
M  V30 36 H 4.111276 2.890450 -0.759409 0
M  V30 37 H 5.120964 1.554926 -1.508147 0
M  V30 38 H 4.184801 -0.155747 -0.419083 0
M  V30 39 H 5.551751 0.551745 1.227535 0
M  V30 40 H 4.734803 2.173559 1.416857 0
M  V30 41 H 5.275524 -0.257394 3.606044 0
M  V30 42 H 4.716169 1.399604 4.024408 0
M  V30 43 H 3.583714 -0.705935 5.274120 0
M  V30 44 H 2.608639 0.718386 4.751146 0
M  V30 45 H 1.409123 -0.651864 3.320686 0
M  V30 46 H 2.506967 -2.006343 3.684886 0
M  V30 47 H 3.914971 -1.536958 1.974330 0
M  V30 48 H 1.230246 -0.945017 1.091419 0
M  V30 49 H 2.635510 -1.377814 0.131113 0
M  V30 50 H -1.538534 1.465552 1.649010 0
M  V30 51 H -0.883190 -0.098252 1.078768 0
M  V30 52 H -4.244341 -1.341365 -0.027779 0
M  V30 53 H -1.347196 -4.059925 -2.516044 0
M  V30 54 H -1.592157 -6.442536 -2.271869 0
M  V30 55 H -4.541517 -3.341705 0.256876 0
M  V30 56 H -5.189857 -5.738534 1.676288 0
M  V30 57 H -5.919913 -6.382567 0.119041 0
M  V30 58 H -4.897165 -8.342597 0.942435 0
M  V30 59 H -3.503324 -7.445134 1.609470 0
M  V30 60 H -2.916498 3.037915 -2.604051 0
M  V30 61 H -1.012275 4.527913 -1.389945 0
M  V30 62 H 0.520488 4.494946 -0.457036 0
M  V30 63 H 0.200455 3.360418 -1.904826 0
M  V30 64 H -1.702785 4.586051 0.865577 0
M  V30 65 H -2.608982 3.100390 1.211665 0
M  V30 66 H -0.987451 3.372855 1.929761 0
M  V30 END ATOM
M  V30 BEGIN BOND
M  V30 1 1 1 2
M  V30 2 1 2 3
M  V30 3 1 3 4
M  V30 4 1 4 5
M  V30 5 1 5 6
M  V30 6 1 6 7
M  V30 7 1 7 8
M  V30 8 1 8 9
M  V30 9 1 9 10
M  V30 10 1 10 11
M  V30 11 2 11 12
M  V30 12 1 11 13
M  V30 13 1 13 14
M  V30 14 1 14 15
M  V30 15 1 15 16
M  V30 16 1 16 17
M  V30 17 1 17 18
M  V30 18 2 18 19
M  V30 19 1 18 20
M  V30 20 2 20 21
M  V30 21 1 21 22
M  V30 22 2 22 23
M  V30 23 1 23 24
M  V30 24 2 24 25
M  V30 25 1 24 26
M  V30 26 1 26 27
M  V30 27 1 27 28
M  V30 28 2 16 29
M  V30 29 1 29 30
M  V30 30 1 30 31
M  V30 31 1 31 32
M  V30 32 1 32 33
M  V30 33 1 32 34
M  V30 34 1 10 2
M  V30 35 1 32 13
M  V30 36 1 8 4
M  V30 37 2 31 15
M  V30 38 1 25 20
M  V30 39 1 28 23
M  V30 40 1 1 35
M  V30 41 1 1 36
M  V30 42 1 1 37
M  V30 43 1 2 38 CFG=3
M  V30 44 1 3 39
M  V30 45 1 3 40
M  V30 46 1 5 41
M  V30 47 1 5 42
M  V30 48 1 6 43
M  V30 49 1 6 44
M  V30 50 1 7 45
M  V30 51 1 7 46
M  V30 52 1 8 47 CFG=3
M  V30 53 1 9 48
M  V30 54 1 9 49
M  V30 55 1 14 50
M  V30 56 1 14 51
M  V30 57 1 17 52
M  V30 58 1 21 53
M  V30 59 1 22 54
M  V30 60 1 25 55
M  V30 61 1 26 56
M  V30 62 1 26 57
M  V30 63 1 27 58
M  V30 64 1 27 59
M  V30 65 1 30 60
M  V30 66 1 33 61
M  V30 67 1 33 62
M  V30 68 1 33 63
M  V30 69 1 34 64
M  V30 70 1 34 65
M  V30 71 1 34 66
M  V30 END BOND
M  V30 END CTAB
M  END
>  <Dataset>  (887) 
ChEMBL_Kinases

>  <Ligand_Instance>  (887) 
nan

>  <PDB_ID>  (887) 
nan

>  <Standardized_SMILES>  (887) 
C[C@H]1CN2CCC[C@H]2CN1C(=O)N1Cc2c(NC(=O)c3ccc4c(c3)CCO4)n[nH]c2C1(C)C

>  <Name>  (887) 
nan

>  <Pocket>  (887) 
nan

>  <ATP_Site>  (887) 
nan

>  <Peripheral>  (887) 
nan

>  <Num_H_Atoms_ProtBoundConf>  (887) 
nan

>  <Num_Resolved_Atoms>  (887) 
nan

>  <Num_Not_Resolved_Atoms>  (887) 
nan

$$$$
CHEMBL3639601
     RDKit          3D

  0  0  0  0  0  0  0  0  0  0999 V3000
M  V30 BEGIN CTAB
M  V30 COUNTS 46 50 0 0 0
M  V30 BEGIN ATOM
M  V30 1 N 2.836238 -5.653244 -4.349566 0
M  V30 2 C 2.799837 -4.945414 -3.111306 0
M  V30 3 O 3.522164 -5.647779 -2.358406 0
M  V30 4 C 2.038607 -3.710762 -2.966210 0
M  V30 5 C 1.343845 -3.235226 -4.059777 0
M  V30 6 C 0.652732 -2.065854 -3.838343 0
M  V30 7 C 0.642069 -1.408141 -2.632164 0
M  V30 8 C 1.346039 -1.908544 -1.558657 0
M  V30 9 C 1.270410 -1.141360 -0.320763 0
M  V30 10 C 2.355926 -1.127551 0.562526 0
M  V30 11 C 2.256817 -0.387218 1.737119 0
M  V30 12 C 1.124672 0.330058 2.054671 0
M  V30 13 N 0.974275 1.059565 3.156822 0
M  V30 14 C -0.093015 1.772163 3.505449 0
M  V30 15 C -1.120009 1.690014 2.556035 0
M  V30 16 C -1.101935 0.953509 1.337306 0
M  V30 17 N -2.302329 1.135851 0.656142 0
M  V30 18 C -3.084349 1.534250 -0.418361 0
M  V30 19 C -3.777469 2.712401 -0.028354 0
M  V30 20 C -4.679676 3.450898 -0.813040 0
M  V30 21 C -4.840377 2.898154 -2.061414 0
M  V30 22 C -4.222148 1.770902 -2.525499 0
M  V30 23 N -4.241035 1.047890 -3.655294 0
M  V30 24 N -3.446233 0.005551 -3.538329 0
M  V30 25 C -2.894702 0.034867 -2.324697 0
M  V30 26 C -3.365610 1.132913 -1.677876 0
M  V30 27 C 0.081473 0.299913 1.178414 0
M  V30 28 C 0.162640 -0.416210 0.029877 0
M  V30 29 C 2.054105 -3.079473 -1.734751 0
M  V30 30 H 1.872185 -6.038171 -4.492761 0
M  V30 31 H 1.929045 -6.103109 -4.635259 0
M  V30 32 H 1.355258 -3.754098 -5.003029 0
M  V30 33 H 0.087839 -1.649729 -4.672203 0
M  V30 34 H 0.078525 -0.500704 -2.547026 0
M  V30 35 H 3.260190 -1.681401 0.341117 0
M  V30 36 H 3.084494 -0.355466 2.445811 0
M  V30 37 H -0.178323 2.352314 4.408787 0
M  V30 38 H -1.990716 2.294453 2.879902 0
M  V30 39 H -3.051880 0.684530 1.289724 0
M  V30 40 H -3.691585 3.207505 0.965450 0
M  V30 41 H -5.190945 4.340854 -0.493362 0
M  V30 42 H -5.509508 3.381439 -2.756717 0
M  V30 43 H -4.793907 1.260346 -4.509017 0
M  V30 44 H -2.228974 -0.710191 -1.970182 0
M  V30 45 H -0.633264 -0.433322 -0.638826 0
M  V30 46 H 2.600225 -3.455324 -0.878517 0
M  V30 END ATOM
M  V30 BEGIN BOND
M  V30 1 1 1 2
M  V30 2 2 2 3
M  V30 3 1 2 4
M  V30 4 2 4 5
M  V30 5 1 5 6
M  V30 6 2 6 7
M  V30 7 1 7 8
M  V30 8 1 8 9
M  V30 9 2 9 10
M  V30 10 1 10 11
M  V30 11 2 11 12
M  V30 12 1 12 13
M  V30 13 2 13 14
M  V30 14 1 14 15
M  V30 15 2 15 16
M  V30 16 1 16 17
M  V30 17 1 17 18
M  V30 18 2 18 19
M  V30 19 1 19 20
M  V30 20 2 20 21
M  V30 21 1 21 22
M  V30 22 1 22 23
M  V30 23 1 23 24
M  V30 24 2 24 25
M  V30 25 1 25 26
M  V30 26 1 16 27
M  V30 27 2 27 28
M  V30 28 2 8 29
M  V30 29 1 29 4
M  V30 30 1 28 9
M  V30 31 1 27 12
M  V30 32 1 26 18
M  V30 33 2 26 22
M  V30 34 1 1 30
M  V30 35 1 1 31
M  V30 36 1 5 32
M  V30 37 1 6 33
M  V30 38 1 7 34
M  V30 39 1 10 35
M  V30 40 1 11 36
M  V30 41 1 14 37
M  V30 42 1 15 38
M  V30 43 1 17 39
M  V30 44 1 19 40
M  V30 45 1 20 41
M  V30 46 1 21 42
M  V30 47 1 23 43
M  V30 48 1 25 44
M  V30 49 1 28 45
M  V30 50 1 29 46
M  V30 END BOND
M  V30 END CTAB
M  END
>  <Dataset>  (888) 
ChEMBL_Kinases

>  <Ligand_Instance>  (888) 
nan

>  <PDB_ID>  (888) 
nan

>  <Standardized_SMILES>  (888) 
NC(=O)c1cccc(-c2ccc3nccc(Nc4cccc5[nH]ncc45)c3c2)c1

>  <Name>  (888) 
nan

>  <Pocket>  (888) 
nan

>  <ATP_Site>  (888) 
nan

>  <Peripheral>  (888) 
nan

>  <Num_H_Atoms_ProtBoundConf>  (888) 
nan

>  <Num_Resolved_Atoms>  (888) 
nan

>  <Num_Not_Resolved_Atoms>  (888) 
nan

$$$$
CHEMBL3639590
     RDKit          3D

  0  0  0  0  0  0  0  0  0  0999 V3000
M  V30 BEGIN CTAB
M  V30 COUNTS 55 59 0 0 0
M  V30 BEGIN ATOM
M  V30 1 C 1.197098 4.436779 3.855181 0
M  V30 2 C 2.324912 3.688277 4.443583 0
M  V30 3 N 2.797512 3.423797 5.698063 0
M  V30 4 N 3.874662 2.676576 5.600481 0
M  V30 5 C 4.158579 2.418013 4.310729 0
M  V30 6 C 5.336028 1.583575 3.883257 0
M  V30 7 C 3.179574 3.054811 3.532072 0
M  V30 8 C 3.271508 2.921600 2.092830 0
M  V30 9 C 2.690138 1.905347 1.387853 0
M  V30 10 C 2.747295 1.727756 0.033728 0
M  V30 11 C 2.132522 0.680560 -0.760928 0
M  V30 12 O 2.679642 0.423113 -1.892263 0
M  V30 13 C 0.966319 -0.125262 -0.445422 0
M  V30 14 N 0.599055 -1.161362 -1.210773 0
M  V30 15 C -0.520187 -1.731468 -0.713658 0
M  V30 16 N -1.275630 -2.777416 -1.101710 0
M  V30 17 C -2.370850 -3.151259 -0.415119 0
M  V30 18 N -3.075085 -4.271841 -0.929314 0
M  V30 19 C -2.442000 -4.932658 -2.054830 0
M  V30 20 C -2.901440 -4.236630 -3.320973 0
M  V30 21 C -4.393552 -4.443797 -3.532494 0
M  V30 22 N -4.789086 -5.556574 -2.691218 0
M  V30 23 C -5.336038 -5.140338 -1.436296 0
M  V30 24 C -4.319251 -4.741271 -0.402908 0
M  V30 25 C -2.749491 -2.462691 0.715786 0
M  V30 26 C -1.999748 -1.387594 1.141268 0
M  V30 27 C -0.883205 -1.026703 0.419590 0
M  V30 28 N 0.060358 -0.075446 0.514876 0
M  V30 29 C 3.482530 2.704906 -0.650973 0
M  V30 30 C 4.087665 3.754831 0.041421 0
M  V30 31 N 3.979417 3.852363 1.379588 0
M  V30 32 H 1.507432 5.316546 3.250082 0
M  V30 33 H 0.474477 3.775629 3.327592 0
M  V30 34 H 0.586643 4.866936 4.684179 0
M  V30 35 H 4.377362 2.371405 6.443846 0
M  V30 36 H 5.115710 1.086290 2.910004 0
M  V30 37 H 5.507832 0.783689 4.618520 0
M  V30 38 H 6.227018 2.210679 3.785509 0
M  V30 39 H 2.160864 1.197150 1.965310 0
M  V30 40 H -1.349704 -4.746365 -1.962216 0
M  V30 41 H -2.606321 -6.016188 -2.088646 0
M  V30 42 H -2.364708 -4.708343 -4.154696 0
M  V30 43 H -2.627275 -3.170017 -3.309519 0
M  V30 44 H -4.557204 -4.657723 -4.605741 0
M  V30 45 H -4.980352 -3.526098 -3.322520 0
M  V30 46 H -5.553961 -6.057943 -3.200072 0
M  V30 47 H -5.898885 -6.021585 -1.016315 0
M  V30 48 H -6.121686 -4.345411 -1.554651 0
M  V30 49 H -4.794769 -3.957079 0.225654 0
M  V30 50 H -4.089154 -5.627318 0.260779 0
M  V30 51 H -3.604943 -2.732983 1.277664 0
M  V30 52 H -2.259217 -0.822347 2.018667 0
M  V30 53 H 0.015995 0.606993 1.293109 0
M  V30 54 H 3.618219 2.701693 -1.717326 0
M  V30 55 H 4.652457 4.501464 -0.513392 0
M  V30 END ATOM
M  V30 BEGIN BOND
M  V30 1 1 1 2
M  V30 2 2 2 3
M  V30 3 1 3 4
M  V30 4 1 4 5
M  V30 5 1 5 6
M  V30 6 2 5 7
M  V30 7 1 7 8
M  V30 8 2 8 9
M  V30 9 1 9 10
M  V30 10 1 10 11
M  V30 11 2 11 12
M  V30 12 1 11 13
M  V30 13 2 13 14
M  V30 14 1 14 15
M  V30 15 2 15 16
M  V30 16 1 16 17
M  V30 17 1 17 18
M  V30 18 1 18 19
M  V30 19 1 19 20
M  V30 20 1 20 21
M  V30 21 1 21 22
M  V30 22 1 22 23
M  V30 23 1 23 24
M  V30 24 2 17 25
M  V30 25 1 25 26
M  V30 26 2 26 27
M  V30 27 1 27 28
M  V30 28 2 10 29
M  V30 29 1 29 30
M  V30 30 2 30 31
M  V30 31 1 7 2
M  V30 32 1 31 8
M  V30 33 1 28 13
M  V30 34 1 27 15
M  V30 35 1 24 18
M  V30 36 1 1 32
M  V30 37 1 1 33
M  V30 38 1 1 34
M  V30 39 1 4 35
M  V30 40 1 6 36
M  V30 41 1 6 37
M  V30 42 1 6 38
M  V30 43 1 9 39
M  V30 44 1 19 40
M  V30 45 1 19 41
M  V30 46 1 20 42
M  V30 47 1 20 43
M  V30 48 1 21 44
M  V30 49 1 21 45
M  V30 50 1 22 46
M  V30 51 1 23 47
M  V30 52 1 23 48
M  V30 53 1 24 49
M  V30 54 1 24 50
M  V30 55 1 25 51
M  V30 56 1 26 52
M  V30 57 1 28 53
M  V30 58 1 29 54
M  V30 59 1 30 55
M  V30 END BOND
M  V30 END CTAB
M  END
>  <Dataset>  (889) 
ChEMBL_Kinases

>  <Ligand_Instance>  (889) 
nan

>  <PDB_ID>  (889) 
nan

>  <Standardized_SMILES>  (889) 
Cc1n[nH]c(C)c1-c1cc(C(=O)c2nc3nc(N4CCCNCC4)ccc3[nH]2)ccn1

>  <Name>  (889) 
nan

>  <Pocket>  (889) 
nan

>  <ATP_Site>  (889) 
nan

>  <Peripheral>  (889) 
nan

>  <Num_H_Atoms_ProtBoundConf>  (889) 
nan

>  <Num_Resolved_Atoms>  (889) 
nan

>  <Num_Not_Resolved_Atoms>  (889) 
nan

$$$$
CHEMBL3639576
     RDKit          3D

  0  0  0  0  0  0  0  0  0  0999 V3000
M  V30 BEGIN CTAB
M  V30 COUNTS 41 43 0 0 0
M  V30 BEGIN ATOM
M  V30 1 C -1.419150 -6.761977 0.794847 0
M  V30 2 C -0.174032 -6.261277 0.115166 0
M  V30 3 C -0.109738 -4.942318 -0.324479 0
M  V30 4 C 0.981278 -4.385570 -0.956963 0
M  V30 5 C 1.031443 -3.020778 -1.405024 0
M  V30 6 N 1.472301 -2.532484 -2.579023 0
M  V30 7 N 1.362543 -1.215017 -2.632405 0
M  V30 8 C 0.833161 -0.835680 -1.454627 0
M  V30 9 C 0.537586 0.451131 -1.055258 0
M  V30 10 C -0.004743 0.619073 0.204323 0
M  V30 11 N -0.400440 1.818673 0.864638 0
M  V30 12 C 0.512638 2.550118 1.671847 0
M  V30 13 O 1.684082 2.184642 1.839004 0
M  V30 14 N -0.072502 3.713336 2.241529 0
M  V30 15 C 0.580068 4.674054 3.110167 0 CFG=1
M  V30 16 C 0.629796 6.062130 2.535664 0
M  V30 17 C -0.046853 4.680951 4.473696 0
M  V30 18 O 0.456939 5.494640 5.314187 0
M  V30 19 O -0.833098 4.438218 5.589622 0
M  V30 20 N -0.235240 -0.452303 1.014159 0
M  V30 21 C 0.063839 -1.718980 0.601555 0
M  V30 22 C 0.606890 -1.932660 -0.648772 0
M  V30 23 C 2.054944 -5.242283 -1.139958 0
M  V30 24 C 1.985215 -6.563540 -0.697311 0
M  V30 25 N 0.899464 -7.072534 -0.081978 0
M  V30 26 H -2.342513 -6.389135 0.308583 0
M  V30 27 H -1.381614 -7.870790 0.703045 0
M  V30 28 H -1.368179 -6.515168 1.864717 0
M  V30 29 H -0.987441 -4.345820 -0.142395 0
M  V30 30 H 1.643908 -0.628137 -3.447791 0
M  V30 31 H 0.665803 1.363961 -1.581859 0
M  V30 32 H -1.413061 2.084906 0.687048 0
M  V30 33 H -1.059169 4.025556 2.103650 0
M  V30 34 H 1.638238 4.336480 3.256226 0
M  V30 35 H 1.529705 6.205565 1.900852 0
M  V30 36 H -0.251494 6.287142 1.869802 0
M  V30 37 H 0.680571 6.821342 3.340104 0
M  V30 38 H -1.857739 4.507119 5.528481 0
M  V30 39 H -0.110726 -2.580493 1.226909 0
M  V30 40 H 2.973996 -4.905958 -1.631244 0
M  V30 41 H 2.796158 -7.242187 -0.825653 0
M  V30 END ATOM
M  V30 BEGIN BOND
M  V30 1 1 1 2
M  V30 2 2 2 3
M  V30 3 1 3 4
M  V30 4 1 4 5
M  V30 5 2 5 6
M  V30 6 1 6 7
M  V30 7 1 7 8
M  V30 8 2 8 9
M  V30 9 1 9 10
M  V30 10 1 10 11
M  V30 11 1 11 12
M  V30 12 2 12 13
M  V30 13 1 12 14
M  V30 14 1 14 15
M  V30 15 1 15 16
M  V30 16 1 15 17
M  V30 17 2 17 18
M  V30 18 1 17 19
M  V30 19 2 10 20
M  V30 20 1 20 21
M  V30 21 2 21 22
M  V30 22 2 4 23
M  V30 23 1 23 24
M  V30 24 2 24 25
M  V30 25 1 25 2
M  V30 26 1 22 5
M  V30 27 1 22 8
M  V30 28 1 1 26
M  V30 29 1 1 27
M  V30 30 1 1 28
M  V30 31 1 3 29
M  V30 32 1 7 30
M  V30 33 1 9 31
M  V30 34 1 11 32
M  V30 35 1 14 33
M  V30 36 1 15 34 CFG=1
M  V30 37 1 16 35
M  V30 38 1 16 36
M  V30 39 1 16 37
M  V30 40 1 19 38
M  V30 41 1 21 39
M  V30 42 1 23 40
M  V30 43 1 24 41
M  V30 END BOND
M  V30 END CTAB
M  END
>  <Dataset>  (890) 
ChEMBL_Kinases

>  <Ligand_Instance>  (890) 
nan

>  <PDB_ID>  (890) 
nan

>  <Standardized_SMILES>  (890) 
Cc1cc(-c2n[nH]c3cc(NC(=O)N[C@@H](C)C(=O)O)ncc23)ccn1

>  <Name>  (890) 
nan

>  <Pocket>  (890) 
nan

>  <ATP_Site>  (890) 
nan

>  <Peripheral>  (890) 
nan

>  <Num_H_Atoms_ProtBoundConf>  (890) 
nan

>  <Num_Resolved_Atoms>  (890) 
nan

>  <Num_Not_Resolved_Atoms>  (890) 
nan

$$$$
CHEMBL3639575
     RDKit          3D

  0  0  0  0  0  0  0  0  0  0999 V3000
M  V30 BEGIN CTAB
M  V30 COUNTS 58 61 0 0 0
M  V30 BEGIN ATOM
M  V30 1 C 6.822465 -5.855014 2.143583 0
M  V30 2 C 7.038513 -4.605963 1.333225 0
M  V30 3 C 6.264732 -3.492291 1.560053 0
M  V30 4 C 6.382266 -2.293870 0.870501 0
M  V30 5 C 5.538682 -1.134361 1.144441 0
M  V30 6 N 5.971933 0.149507 1.262505 0
M  V30 7 N 4.926396 0.940994 1.513489 0
M  V30 8 C 3.812491 0.150352 1.555839 0
M  V30 9 C 2.498214 0.517685 1.785305 0
M  V30 10 C 1.543509 -0.482199 1.777438 0
M  V30 11 N 0.145630 -0.306563 1.991726 0
M  V30 12 C -0.732327 -0.051044 0.917601 0
M  V30 13 O -0.243524 0.016867 -0.233193 0
M  V30 14 N -2.121203 0.124692 1.122249 0
M  V30 15 C -2.952603 0.383094 -0.025601 0
M  V30 16 C -4.109424 -0.553249 -0.178213 0
M  V30 17 C -4.867113 -0.140541 -1.421429 0
M  V30 18 N -5.999296 -0.928289 -1.723586 0
M  V30 19 C -7.115474 -0.861471 -0.855169 0
M  V30 20 C -5.797047 -2.141425 -2.430031 0
M  V30 21 C -3.537640 1.737503 0.184636 0
M  V30 22 C -3.601281 2.710844 -0.795823 0
M  V30 23 C -4.144741 3.955979 -0.581258 0
M  V30 24 C -4.642683 4.223968 0.675969 0
M  V30 25 C -4.589307 3.266557 1.669476 0
M  V30 26 N -4.045490 2.079418 1.383406 0
M  V30 27 N 1.893696 -1.781389 1.550930 0
M  V30 28 C 3.194096 -2.132881 1.325533 0
M  V30 29 C 4.171342 -1.163867 1.326002 0
M  V30 30 C 7.381062 -2.295960 -0.109783 0
M  V30 31 C 8.165927 -3.414896 -0.345049 0
M  V30 32 N 7.987274 -4.540318 0.369636 0
M  V30 33 H 7.757141 -6.359765 2.405264 0
M  V30 34 H 6.372823 -5.516375 3.117494 0
M  V30 35 H 6.149537 -6.536433 1.609226 0
M  V30 36 H 5.513841 -3.586337 2.343239 0
M  V30 37 H 4.913083 1.978100 1.658117 0
M  V30 38 H 2.142095 1.518189 1.971754 0
M  V30 39 H -0.192663 -0.378724 2.996551 0
M  V30 40 H -2.511009 0.064271 2.089705 0
M  V30 41 H -2.328606 0.401971 -0.921939 0
M  V30 42 H -4.807541 -0.491458 0.684657 0
M  V30 43 H -3.862802 -1.620764 -0.281056 0
M  V30 44 H -4.177367 -0.114973 -2.272739 0
M  V30 45 H -5.208322 0.899471 -1.243459 0
M  V30 46 H -6.831731 -0.867664 0.215307 0
M  V30 47 H -7.793659 -0.040053 -1.138063 0
M  V30 48 H -7.717840 -1.801493 -1.029095 0
M  V30 49 H -6.825479 -2.516333 -2.712500 0
M  V30 50 H -5.231794 -2.013096 -3.384658 0
M  V30 51 H -5.364260 -2.929128 -1.781726 0
M  V30 52 H -3.186955 2.419999 -1.760996 0
M  V30 53 H -4.160760 4.655824 -1.378602 0
M  V30 54 H -5.079876 5.180076 0.903954 0
M  V30 55 H -4.955444 3.395132 2.676723 0
M  V30 56 H 3.480658 -3.159513 1.144795 0
M  V30 57 H 7.491612 -1.355606 -0.668772 0
M  V30 58 H 8.920851 -3.345038 -1.120320 0
M  V30 END ATOM
M  V30 BEGIN BOND
M  V30 1 1 1 2
M  V30 2 2 2 3
M  V30 3 1 3 4
M  V30 4 1 4 5
M  V30 5 2 5 6
M  V30 6 1 6 7
M  V30 7 1 7 8
M  V30 8 2 8 9
M  V30 9 1 9 10
M  V30 10 1 10 11
M  V30 11 1 11 12
M  V30 12 2 12 13
M  V30 13 1 12 14
M  V30 14 1 14 15
M  V30 15 1 15 16
M  V30 16 1 16 17
M  V30 17 1 17 18
M  V30 18 1 18 19
M  V30 19 1 18 20
M  V30 20 1 15 21
M  V30 21 2 21 22
M  V30 22 1 22 23
M  V30 23 2 23 24
M  V30 24 1 24 25
M  V30 25 2 25 26
M  V30 26 2 10 27
M  V30 27 1 27 28
M  V30 28 2 28 29
M  V30 29 2 4 30
M  V30 30 1 30 31
M  V30 31 2 31 32
M  V30 32 1 32 2
M  V30 33 1 29 5
M  V30 34 1 29 8
M  V30 35 1 26 21
M  V30 36 1 1 33
M  V30 37 1 1 34
M  V30 38 1 1 35
M  V30 39 1 3 36
M  V30 40 1 7 37
M  V30 41 1 9 38
M  V30 42 1 11 39
M  V30 43 1 14 40
M  V30 44 1 15 41
M  V30 45 1 16 42
M  V30 46 1 16 43
M  V30 47 1 17 44
M  V30 48 1 17 45
M  V30 49 1 19 46
M  V30 50 1 19 47
M  V30 51 1 19 48
M  V30 52 1 20 49
M  V30 53 1 20 50
M  V30 54 1 20 51
M  V30 55 1 22 52
M  V30 56 1 23 53
M  V30 57 1 24 54
M  V30 58 1 25 55
M  V30 59 1 28 56
M  V30 60 1 30 57
M  V30 61 1 31 58
M  V30 END BOND
M  V30 END CTAB
M  END
>  <Dataset>  (891) 
ChEMBL_Kinases

>  <Ligand_Instance>  (891) 
nan

>  <PDB_ID>  (891) 
nan

>  <Standardized_SMILES>  (891) 
Cc1cc(-c2n[nH]c3cc(NC(=O)NC(CCN(C)C)c4ccccn4)ncc23)ccn1

>  <Name>  (891) 
nan

>  <Pocket>  (891) 
nan

>  <ATP_Site>  (891) 
nan

>  <Peripheral>  (891) 
nan

>  <Num_H_Atoms_ProtBoundConf>  (891) 
nan

>  <Num_Resolved_Atoms>  (891) 
nan

>  <Num_Not_Resolved_Atoms>  (891) 
nan

$$$$
CHEMBL3639572
     RDKit          3D

  0  0  0  0  0  0  0  0  0  0999 V3000
M  V30 BEGIN CTAB
M  V30 COUNTS 94 99 0 0 0
M  V30 BEGIN ATOM
M  V30 1 C -0.287430 -1.686120 -1.025595 0
M  V30 2 O 0.706716 -1.287093 -0.132817 0
M  V30 3 C 1.841411 -1.999126 0.178787 0
M  V30 4 C 2.156574 -3.228624 -0.356402 0
M  V30 5 C 3.296311 -3.925961 -0.030966 0
M  V30 6 C 4.141988 -3.334011 0.879713 0
M  V30 7 C 3.821420 -2.116305 1.403780 0
M  V30 8 F 4.753355 -1.644651 2.299370 0
M  V30 9 C 2.664992 -1.378019 1.091992 0
M  V30 10 C 2.553807 -0.109084 1.782778 0
M  V30 11 N 2.834319 1.105125 1.169960 0
M  V30 12 C 2.689177 2.157280 2.165992 0
M  V30 13 C 1.515678 3.048076 2.006472 0 CFG=2
M  V30 14 N 0.300499 2.459396 2.515997 0
M  V30 15 C -0.475400 2.955492 3.615534 0
M  V30 16 O -0.102761 4.002200 4.210494 0
M  V30 17 C -1.689127 2.315218 4.099353 0
M  V30 18 C -2.438721 2.966671 5.053685 0
M  V30 19 C -3.590495 2.377009 5.550531 0
M  V30 20 C -4.051727 1.142997 5.141937 0
M  V30 21 N -5.082757 0.321824 5.411920 0
M  V30 22 N -4.977495 -0.782726 4.663721 0
M  V30 23 C -3.880724 -0.711847 3.889868 0
M  V30 24 C -3.495525 -1.768543 2.968260 0
M  V30 25 C -2.143154 -2.120827 3.006849 0
M  V30 26 C -1.634841 -3.122078 2.172269 0
M  V30 27 N -2.497276 -3.742537 1.322298 0
M  V30 28 C -3.795755 -3.402012 1.287412 0
M  V30 29 C -4.671042 -4.121656 0.337309 0
M  V30 30 C -4.332680 -2.422465 2.092343 0
M  V30 31 C -3.298709 0.494132 4.186655 0
M  V30 32 C -2.158108 1.086910 3.699163 0
M  V30 33 C 1.396655 3.581072 0.621235 0
M  V30 34 C 2.541341 3.009327 -0.178076 0
M  V30 35 C 2.384054 1.462555 -0.104930 0 CFG=1
M  V30 36 C 3.109989 0.868175 -1.272449 0
M  V30 37 O 3.748640 0.678394 -0.220798 0
M  V30 38 N 2.608059 0.937760 -2.592619 0
M  V30 39 C 3.393047 0.323735 -3.648133 0
M  V30 40 C 2.627070 -0.855840 -4.148690 0
M  V30 41 N 1.228347 -0.493167 -4.228111 0
M  V30 42 C 0.421492 -1.625063 -4.429280 0
M  V30 43 O -0.405916 -2.548578 -4.606821 0
M  V30 44 O -0.475790 -2.637714 -4.621593 0
M  V30 45 C -1.842303 -2.400008 -4.955328 0
M  V30 46 C -2.562765 -1.584969 -3.917069 0
M  V30 47 C -1.992681 -1.717562 -6.290231 0
M  V30 48 C -2.535321 -3.726573 -5.045966 0
M  V30 49 C 0.805191 0.865349 -4.110738 0
M  V30 50 C 1.365601 1.581913 -2.905459 0
M  V30 51 H -1.216070 -2.018503 -0.474436 0
M  V30 52 H -0.037761 -2.551591 -1.668176 0
M  V30 53 H -0.530315 -0.861240 -1.731582 0
M  V30 54 H 1.497225 -3.700728 -1.070730 0
M  V30 55 H 3.500794 -4.873830 -0.468149 0
M  V30 56 H 5.036490 -3.881358 1.136630 0
M  V30 57 H 3.128262 -0.124249 2.767589 0
M  V30 58 H 1.482459 -0.064538 2.166022 0
M  V30 59 H 3.658634 2.732731 2.236831 0
M  V30 60 H 2.607397 1.667225 3.157658 0
M  V30 61 H 1.727695 3.947758 2.669107 0
M  V30 62 H -0.121884 1.616148 2.104877 0
M  V30 63 H -2.150290 3.924558 5.421972 0
M  V30 64 H -4.194961 2.882492 6.306719 0
M  V30 65 H -5.821437 0.540881 6.094944 0
M  V30 66 H -1.352240 -1.723528 3.622736 0
M  V30 67 H -0.610883 -3.452162 2.139542 0
M  V30 68 H -5.443156 -4.753848 0.855641 0
M  V30 69 H -5.241802 -3.438875 -0.335627 0
M  V30 70 H -4.092952 -4.797466 -0.333572 0
M  V30 71 H -5.371927 -2.124758 2.090369 0
M  V30 72 H -1.596267 0.548796 2.950548 0
M  V30 73 H 0.453409 3.267140 0.085848 0
M  V30 74 H 1.514118 4.689103 0.556697 0
M  V30 75 H 2.486175 3.390894 -1.185644 0
M  V30 76 H 3.528579 3.284966 0.236043 0
M  V30 77 H 1.293382 1.328844 -0.197025 0
M  V30 78 H 3.502454 1.043250 -4.499969 0
M  V30 79 H 4.421811 0.091777 -3.330633 0
M  V30 80 H 2.729039 -1.662508 -3.417836 0
M  V30 81 H 2.987072 -1.143621 -5.163607 0
M  V30 82 H -3.652398 -1.644281 -4.164090 0
M  V30 83 H -2.234126 -0.519297 -3.893741 0
M  V30 84 H -2.450541 -2.044718 -2.913381 0
M  V30 85 H -1.789764 -0.631290 -6.242406 0
M  V30 86 H -1.401755 -2.268125 -7.023764 0
M  V30 87 H -3.072897 -1.826000 -6.562865 0
M  V30 88 H -3.143952 -3.919131 -4.118909 0
M  V30 89 H -3.287918 -3.749973 -5.883457 0
M  V30 90 H -1.858332 -4.569436 -5.190265 0
M  V30 91 H -0.287123 0.995572 -4.244055 0
M  V30 92 H 1.242757 1.391015 -5.013901 0
M  V30 93 H 1.569121 2.626915 -3.216772 0
M  V30 94 H 0.624904 1.618604 -2.097777 0
M  V30 END ATOM
M  V30 BEGIN BOND
M  V30 1 1 1 2
M  V30 2 1 2 3
M  V30 3 2 3 4
M  V30 4 1 4 5
M  V30 5 2 5 6
M  V30 6 1 6 7
M  V30 7 1 7 8
M  V30 8 2 7 9
M  V30 9 1 9 10
M  V30 10 1 10 11
M  V30 11 1 11 12
M  V30 12 1 12 13
M  V30 13 1 13 14
M  V30 14 1 14 15
M  V30 15 2 15 16
M  V30 16 1 15 17
M  V30 17 2 17 18
M  V30 18 1 18 19
M  V30 19 2 19 20
M  V30 20 1 20 21
M  V30 21 1 21 22
M  V30 22 2 22 23
M  V30 23 1 23 24
M  V30 24 2 24 25
M  V30 25 1 25 26
M  V30 26 2 26 27
M  V30 27 1 27 28
M  V30 28 1 28 29
M  V30 29 2 28 30
M  V30 30 1 23 31
M  V30 31 2 31 32
M  V30 32 1 13 33
M  V30 33 1 33 34
M  V30 34 1 34 35
M  V30 35 1 35 36
M  V30 36 2 36 37
M  V30 37 1 36 38
M  V30 38 1 38 39
M  V30 39 1 39 40
M  V30 40 1 40 41
M  V30 41 1 41 42
M  V30 42 2 42 43
M  V30 43 1 42 44
M  V30 44 1 44 45
M  V30 45 1 45 46
M  V30 46 1 45 47
M  V30 47 1 45 48
M  V30 48 1 41 49
M  V30 49 1 49 50
M  V30 50 1 9 3
M  V30 51 1 35 11
M  V30 52 1 50 38
M  V30 53 1 32 17
M  V30 54 1 31 20
M  V30 55 1 30 24
M  V30 56 1 1 51
M  V30 57 1 1 52
M  V30 58 1 1 53
M  V30 59 1 4 54
M  V30 60 1 5 55
M  V30 61 1 6 56
M  V30 62 1 10 57
M  V30 63 1 10 58
M  V30 64 1 12 59
M  V30 65 1 12 60
M  V30 66 1 13 61 CFG=1
M  V30 67 1 14 62
M  V30 68 1 18 63
M  V30 69 1 19 64
M  V30 70 1 21 65
M  V30 71 1 25 66
M  V30 72 1 26 67
M  V30 73 1 29 68
M  V30 74 1 29 69
M  V30 75 1 29 70
M  V30 76 1 30 71
M  V30 77 1 32 72
M  V30 78 1 33 73
M  V30 79 1 33 74
M  V30 80 1 34 75
M  V30 81 1 34 76
M  V30 82 1 35 77 CFG=1
M  V30 83 1 39 78
M  V30 84 1 39 79
M  V30 85 1 40 80
M  V30 86 1 40 81
M  V30 87 1 46 82
M  V30 88 1 46 83
M  V30 89 1 46 84
M  V30 90 1 47 85
M  V30 91 1 47 86
M  V30 92 1 47 87
M  V30 93 1 48 88
M  V30 94 1 48 89
M  V30 95 1 48 90
M  V30 96 1 49 91
M  V30 97 1 49 92
M  V30 98 1 50 93
M  V30 99 1 50 94
M  V30 END BOND
M  V30 END CTAB
M  END
>  <Dataset>  (892) 
ChEMBL_Kinases

>  <Ligand_Instance>  (892) 
nan

>  <PDB_ID>  (892) 
nan

>  <Standardized_SMILES>  (892) 
COc1cccc(F)c1CN1C[C@H](NC(=O)c2ccc3[nH]nc(-c4ccnc(C)c4)c3c2)CC[C@H]1C(=O)N1CCN(C(=O)OC(C)(C)C)CC1

>  <Name>  (892) 
nan

>  <Pocket>  (892) 
nan

>  <ATP_Site>  (892) 
nan

>  <Peripheral>  (892) 
nan

>  <Num_H_Atoms_ProtBoundConf>  (892) 
nan

>  <Num_Resolved_Atoms>  (892) 
nan

>  <Num_Not_Resolved_Atoms>  (892) 
nan

$$$$
CHEMBL3639544
     RDKit          3D

  0  0  0  0  0  0  0  0  0  0999 V3000
M  V30 BEGIN CTAB
M  V30 COUNTS 55 59 0 0 0
M  V30 BEGIN ATOM
M  V30 1 C 6.729068 -4.786007 -0.710615 0
M  V30 2 N 5.776343 -3.780890 -0.255946 0
M  V30 3 C 5.948477 -3.152532 0.993085 0
M  V30 4 O 6.951642 -3.510236 1.665840 0
M  V30 5 C 5.060465 -2.136800 1.546542 0
M  V30 6 C 5.380154 -1.626327 2.787037 0
M  V30 7 C 4.551448 -0.664202 3.326883 0
M  V30 8 C 3.434591 -0.225761 2.644154 0
M  V30 9 C 3.092653 -0.719925 1.402502 0
M  V30 10 C 1.934397 -0.313818 0.614465 0
M  V30 11 C 1.028540 0.635427 1.035804 0
M  V30 12 C -0.085469 1.029972 0.284173 0
M  V30 13 C -0.939638 2.058208 0.864074 0
M  V30 14 N -0.339626 3.180523 1.356592 0
M  V30 15 N -1.242777 4.012850 1.852303 0
M  V30 16 C -2.471149 3.487985 1.714157 0
M  V30 17 C -3.788666 3.808066 2.003126 0
M  V30 18 C -4.812689 2.929792 1.676680 0
M  V30 19 N -4.548392 1.736760 1.066998 0
M  V30 20 C -3.283493 1.387293 0.768767 0
M  V30 21 O -3.063796 0.174399 0.155799 0
M  V30 22 C -4.058570 -0.739564 -0.188810 0
M  V30 23 C -3.853972 -2.064852 0.498201 0
M  V30 24 C -4.695019 -3.159002 -0.102938 0
M  V30 25 O -4.513532 -3.274735 -1.471796 0
M  V30 26 C -4.907202 -2.116982 -2.119868 0
M  V30 27 C -4.107916 -0.916977 -1.671644 0
M  V30 28 C -2.280972 2.268681 1.098065 0
M  V30 29 C -0.213020 0.397981 -0.915652 0
M  V30 30 C 0.672341 -0.552619 -1.364415 0
M  V30 31 N 1.719353 -0.880507 -0.586887 0
M  V30 32 C 3.953325 -1.678007 0.909455 0
M  V30 33 H 7.765149 -4.570300 -0.360712 0
M  V30 34 H 6.414820 -5.800004 -0.457086 0
M  V30 35 H 6.743207 -4.693890 -1.835633 0
M  V30 36 H 4.969549 -3.518651 -0.838818 0
M  V30 37 H 6.229351 -1.911043 3.386092 0
M  V30 38 H 4.728951 -0.201655 4.310002 0
M  V30 39 H 2.798757 0.526778 3.081947 0
M  V30 40 H 1.187834 1.099212 1.998043 0
M  V30 41 H -1.106333 4.942805 2.295018 0
M  V30 42 H -3.950499 4.764728 2.487132 0
M  V30 43 H -5.800950 3.279247 1.946735 0
M  V30 44 H -5.031373 -0.273272 0.136435 0
M  V30 45 H -4.153406 -1.996177 1.579969 0
M  V30 46 H -2.794415 -2.347091 0.396505 0
M  V30 47 H -5.760646 -3.076842 0.206793 0
M  V30 48 H -4.332590 -4.123974 0.336331 0
M  V30 49 H -4.641540 -2.261580 -3.207978 0
M  V30 50 H -5.993551 -1.963318 -2.107895 0
M  V30 51 H -3.051161 -1.139998 -1.998842 0
M  V30 52 H -4.503066 -0.042710 -2.202539 0
M  V30 53 H -1.033882 0.666131 -1.532378 0
M  V30 54 H 0.505460 -1.008876 -2.323799 0
M  V30 55 H 3.728516 -2.098648 -0.064206 0
M  V30 END ATOM
M  V30 BEGIN BOND
M  V30 1 1 1 2
M  V30 2 1 2 3
M  V30 3 2 3 4
M  V30 4 1 3 5
M  V30 5 2 5 6
M  V30 6 1 6 7
M  V30 7 2 7 8
M  V30 8 1 8 9
M  V30 9 1 9 10
M  V30 10 2 10 11
M  V30 11 1 11 12
M  V30 12 1 12 13
M  V30 13 2 13 14
M  V30 14 1 14 15
M  V30 15 1 15 16
M  V30 16 2 16 17
M  V30 17 1 17 18
M  V30 18 2 18 19
M  V30 19 1 19 20
M  V30 20 1 20 21
M  V30 21 1 21 22
M  V30 22 1 22 23
M  V30 23 1 23 24
M  V30 24 1 24 25
M  V30 25 1 25 26
M  V30 26 1 26 27
M  V30 27 2 20 28
M  V30 28 2 12 29
M  V30 29 1 29 30
M  V30 30 2 30 31
M  V30 31 2 9 32
M  V30 32 1 32 5
M  V30 33 1 31 10
M  V30 34 1 28 13
M  V30 35 1 28 16
M  V30 36 1 27 22
M  V30 37 1 1 33
M  V30 38 1 1 34
M  V30 39 1 1 35
M  V30 40 1 2 36
M  V30 41 1 6 37
M  V30 42 1 7 38
M  V30 43 1 8 39
M  V30 44 1 11 40
M  V30 45 1 15 41
M  V30 46 1 17 42
M  V30 47 1 18 43
M  V30 48 1 22 44
M  V30 49 1 23 45
M  V30 50 1 23 46
M  V30 51 1 24 47
M  V30 52 1 24 48
M  V30 53 1 26 49
M  V30 54 1 26 50
M  V30 55 1 27 51
M  V30 56 1 27 52
M  V30 57 1 29 53
M  V30 58 1 30 54
M  V30 59 1 32 55
M  V30 END BOND
M  V30 END CTAB
M  END
>  <Dataset>  (893) 
ChEMBL_Kinases

>  <Ligand_Instance>  (893) 
nan

>  <PDB_ID>  (893) 
nan

>  <Standardized_SMILES>  (893) 
CNC(=O)c1cccc(-c2cc(-c3n[nH]c4ccnc(OC5CCOCC5)c34)ccn2)c1

>  <Name>  (893) 
nan

>  <Pocket>  (893) 
nan

>  <ATP_Site>  (893) 
nan

>  <Peripheral>  (893) 
nan

>  <Num_H_Atoms_ProtBoundConf>  (893) 
nan

>  <Num_Resolved_Atoms>  (893) 
nan

>  <Num_Not_Resolved_Atoms>  (893) 
nan

$$$$
CHEMBL3639537
     RDKit          3D

  0  0  0  0  0  0  0  0  0  0999 V3000
M  V30 BEGIN CTAB
M  V30 COUNTS 51 54 0 0 0
M  V30 BEGIN ATOM
M  V30 1 C 1.665092 2.354140 8.456259 0
M  V30 2 O 2.031976 2.316192 7.076588 0
M  V30 3 C 2.308403 1.117348 6.434952 0
M  V30 4 C 2.220594 -0.052432 7.165420 0
M  V30 5 C 2.502630 -1.216505 6.491052 0
M  V30 6 N 2.845178 -1.207309 5.188583 0
M  V30 7 C 2.930249 -0.047969 4.472033 0
M  V30 8 C 3.309211 -0.065985 3.042804 0 CFG=2
M  V30 9 C 4.764060 0.195241 2.833294 0
M  V30 10 N 2.457704 0.794814 2.221233 0
M  V30 11 C 1.599377 0.302597 1.201702 0
M  V30 12 O 1.619325 -0.944711 1.048799 0
M  V30 13 N 0.789509 1.173310 0.427022 0
M  V30 14 C -0.001614 0.529120 -0.539205 0
M  V30 15 C -1.251964 0.147959 -0.102075 0
M  V30 16 C -2.155852 -0.496886 -0.924048 0
M  V30 17 N -3.421354 -0.982271 -0.788509 0
M  V30 18 N -3.830533 -1.522942 -1.927146 0
M  V30 19 C -2.843668 -1.410464 -2.852613 0
M  V30 20 C -2.922793 -1.889971 -4.227484 0
M  V30 21 C -2.528735 -1.202747 -5.364937 0
M  V30 22 C -2.672346 -1.807142 -6.609472 0
M  V30 23 N -3.190970 -3.053538 -6.715165 0
M  V30 24 C -3.590130 -3.767525 -5.646689 0
M  V30 25 C -4.158648 -5.139532 -5.787561 0
M  V30 26 C -3.445373 -3.160518 -4.402633 0
M  V30 27 C -1.812996 -0.776803 -2.228544 0
M  V30 28 C -0.563792 -0.385430 -2.632754 0
M  V30 29 N 0.336643 0.250664 -1.833260 0
M  V30 30 C 2.655141 1.170923 5.101453 0
M  V30 31 H 0.821604 1.615636 8.558420 0
M  V30 32 H 1.267638 3.346448 8.721686 0
M  V30 33 H 2.491505 2.034919 9.106350 0
M  V30 34 H 1.943951 -0.065689 8.219090 0
M  V30 35 H 2.458801 -2.184394 6.986010 0
M  V30 36 H 3.112722 -1.112916 2.673326 0
M  V30 37 H 5.162439 0.687516 3.754887 0
M  V30 38 H 4.991933 0.763827 1.913636 0
M  V30 39 H 5.336673 -0.752947 2.754953 0
M  V30 40 H 2.494251 1.840059 2.408689 0
M  V30 41 H 0.877955 2.199404 0.668901 0
M  V30 42 H -1.609290 0.319377 0.886819 0
M  V30 43 H -3.964014 -0.915865 0.115559 0
M  V30 44 H -2.130042 -0.226289 -5.198190 0
M  V30 45 H -2.353266 -1.239523 -7.478337 0
M  V30 46 H -3.371364 -5.910233 -5.915910 0
M  V30 47 H -4.679070 -5.354554 -4.811474 0
M  V30 48 H -4.936989 -5.165547 -6.556916 0
M  V30 49 H -3.771951 -3.752446 -3.564574 0
M  V30 50 H -0.251949 -0.589423 -3.663173 0
M  V30 51 H 2.711840 2.114309 4.565812 0
M  V30 END ATOM
M  V30 BEGIN BOND
M  V30 1 1 1 2
M  V30 2 1 2 3
M  V30 3 2 3 4
M  V30 4 1 4 5
M  V30 5 2 5 6
M  V30 6 1 6 7
M  V30 7 1 7 8
M  V30 8 1 8 9
M  V30 9 1 8 10
M  V30 10 1 10 11
M  V30 11 2 11 12
M  V30 12 1 11 13
M  V30 13 1 13 14
M  V30 14 2 14 15
M  V30 15 1 15 16
M  V30 16 1 16 17
M  V30 17 1 17 18
M  V30 18 2 18 19
M  V30 19 1 19 20
M  V30 20 2 20 21
M  V30 21 1 21 22
M  V30 22 2 22 23
M  V30 23 1 23 24
M  V30 24 1 24 25
M  V30 25 2 24 26
M  V30 26 1 19 27
M  V30 27 1 27 28
M  V30 28 2 28 29
M  V30 29 2 7 30
M  V30 30 1 30 3
M  V30 31 1 29 14
M  V30 32 2 27 16
M  V30 33 1 26 20
M  V30 34 1 1 31
M  V30 35 1 1 32
M  V30 36 1 1 33
M  V30 37 1 4 34
M  V30 38 1 5 35
M  V30 39 1 8 36 CFG=3
M  V30 40 1 9 37
M  V30 41 1 9 38
M  V30 42 1 9 39
M  V30 43 1 10 40
M  V30 44 1 13 41
M  V30 45 1 15 42
M  V30 46 1 17 43
M  V30 47 1 21 44
M  V30 48 1 22 45
M  V30 49 1 25 46
M  V30 50 1 25 47
M  V30 51 1 25 48
M  V30 52 1 26 49
M  V30 53 1 28 50
M  V30 54 1 30 51
M  V30 END BOND
M  V30 END CTAB
M  END
>  <Dataset>  (894) 
ChEMBL_Kinases

>  <Ligand_Instance>  (894) 
nan

>  <PDB_ID>  (894) 
nan

>  <Standardized_SMILES>  (894) 
COc1ccnc([C@H](C)NC(=O)Nc2cc3[nH]nc(-c4ccnc(C)c4)c3cn2)c1

>  <Name>  (894) 
nan

>  <Pocket>  (894) 
nan

>  <ATP_Site>  (894) 
nan

>  <Peripheral>  (894) 
nan

>  <Num_H_Atoms_ProtBoundConf>  (894) 
nan

>  <Num_Resolved_Atoms>  (894) 
nan

>  <Num_Not_Resolved_Atoms>  (894) 
nan

$$$$
CHEMBL3639536
     RDKit          3D

  0  0  0  0  0  0  0  0  0  0999 V3000
M  V30 BEGIN CTAB
M  V30 COUNTS 68 73 0 0 0
M  V30 BEGIN ATOM
M  V30 1 C 7.214096 -0.980095 4.177657 0
M  V30 2 C 5.708456 -1.105899 4.135245 0 CFG=1
M  V30 3 N 5.268484 -1.789733 2.941340 0
M  V30 4 C 4.404651 -1.249578 1.956464 0
M  V30 5 O 4.013746 -0.079540 2.190486 0
M  V30 6 N 4.018236 -1.991725 0.793308 0
M  V30 7 C 3.141834 -1.287054 -0.080895 0
M  V30 8 C 3.677020 -0.480179 -1.094326 0
M  V30 9 C 2.847753 0.209341 -1.955926 0
M  V30 10 N 2.936427 1.048054 -3.003394 0
M  V30 11 N 1.736786 1.411397 -3.453387 0
M  V30 12 C 0.779259 0.820527 -2.713362 0
M  V30 13 C -0.567639 1.125362 -3.089754 0
M  V30 14 O -0.807036 1.950607 -4.013599 0
M  V30 15 N -1.810219 0.677381 -2.628683 0
M  V30 16 C -3.086075 1.110819 -3.143952 0
M  V30 17 C -4.229777 0.426709 -2.426995 0
M  V30 18 C -5.514468 0.946299 -3.037852 0
M  V30 19 C -6.712698 0.272598 -2.364169 0
M  V30 20 C -6.662028 -1.216727 -2.549723 0
M  V30 21 C -5.342403 -1.713119 -1.962971 0
M  V30 22 C -4.204303 -1.060937 -2.686955 0
M  V30 23 C -5.250615 -1.384827 -0.505799 0
M  V30 24 O -3.980335 -1.780612 -0.061244 0
M  V30 25 C -5.415478 0.100544 -0.289219 0
M  V30 26 C -6.730916 0.535738 -0.871022 0
M  V30 27 C -4.248139 0.782338 -0.968808 0
M  V30 28 C 1.484581 0.084228 -1.795555 0
M  V30 29 C 0.951312 -0.698168 -0.812751 0
M  V30 30 N 1.798166 -1.349388 0.001363 0
M  V30 31 C 5.270152 -1.757206 5.392878 0
M  V30 32 C 4.753765 -0.973515 6.428461 0
M  V30 33 C 4.331277 -1.531340 7.624009 0
M  V30 34 C 4.432559 -2.910835 7.777324 0
M  V30 35 C 4.940349 -3.660842 6.752499 0
M  V30 36 C 5.376343 -3.146636 5.536383 0
M  V30 37 H 7.707695 -1.676008 3.462526 0
M  V30 38 H 7.582586 0.051266 3.995573 0
M  V30 39 H 7.641326 -1.265165 5.178014 0
M  V30 40 H 5.276025 -0.102888 4.097133 0
M  V30 41 H 5.629042 -2.768490 2.809411 0
M  V30 42 H 4.426729 -2.953589 0.737988 0
M  V30 43 H 4.740817 -0.361176 -1.246330 0
M  V30 44 H 3.855413 1.360725 -3.395443 0
M  V30 45 H -1.803574 -0.019320 -1.862213 0
M  V30 46 H -3.131572 0.986107 -4.228254 0
M  V30 47 H -3.193879 2.204427 -2.935692 0
M  V30 48 H -5.576540 2.035948 -2.809067 0
M  V30 49 H -5.607245 0.766791 -4.108736 0
M  V30 50 H -7.620498 0.726973 -2.790457 0
M  V30 51 H -6.732683 -1.546083 -3.609718 0
M  V30 52 H -7.504423 -1.629535 -1.920187 0
M  V30 53 H -5.343728 -2.806332 -2.095013 0
M  V30 54 H -3.246558 -1.544800 -2.507153 0
M  V30 55 H -4.428996 -1.161916 -3.787400 0
M  V30 56 H -6.035708 -1.895046 0.087017 0
M  V30 57 H -3.749439 -2.672881 -0.450279 0
M  V30 58 H -5.389792 0.338455 0.784409 0
M  V30 59 H -6.995269 1.575318 -0.619960 0
M  V30 60 H -7.520120 -0.144817 -0.464444 0
M  V30 61 H -4.396901 1.880735 -0.897910 0
M  V30 62 H -3.345111 0.536142 -0.412345 0
M  V30 63 H -0.102607 -0.805424 -0.670722 0
M  V30 64 H 4.692727 0.103148 6.266067 0
M  V30 65 H 3.931808 -0.927142 8.424767 0
M  V30 66 H 4.100089 -3.331376 8.715713 0
M  V30 67 H 5.025809 -4.736033 6.855834 0
M  V30 68 H 5.774232 -3.752867 4.734561 0
M  V30 END ATOM
M  V30 BEGIN BOND
M  V30 1 1 1 2
M  V30 2 1 2 3
M  V30 3 1 3 4
M  V30 4 2 4 5
M  V30 5 1 4 6
M  V30 6 1 6 7
M  V30 7 1 7 8
M  V30 8 2 8 9
M  V30 9 1 9 10
M  V30 10 1 10 11
M  V30 11 2 11 12
M  V30 12 1 12 13
M  V30 13 2 13 14
M  V30 14 1 13 15
M  V30 15 1 15 16
M  V30 16 1 16 17
M  V30 17 1 17 18
M  V30 18 1 18 19
M  V30 19 1 19 20
M  V30 20 1 20 21
M  V30 21 1 21 22
M  V30 22 1 21 23
M  V30 23 1 23 24
M  V30 24 1 23 25
M  V30 25 1 25 26
M  V30 26 1 25 27
M  V30 27 1 12 28
M  V30 28 2 28 29
M  V30 29 1 29 30
M  V30 30 1 2 31
M  V30 31 2 31 32
M  V30 32 1 32 33
M  V30 33 2 33 34
M  V30 34 1 34 35
M  V30 35 2 35 36
M  V30 36 2 30 7
M  V30 37 1 36 31
M  V30 38 1 28 9
M  V30 39 1 22 17
M  V30 40 1 27 17
M  V30 41 1 26 19
M  V30 42 1 1 37
M  V30 43 1 1 38
M  V30 44 1 1 39
M  V30 45 1 2 40 CFG=3
M  V30 46 1 3 41
M  V30 47 1 6 42
M  V30 48 1 8 43
M  V30 49 1 10 44
M  V30 50 1 15 45
M  V30 51 1 16 46
M  V30 52 1 16 47
M  V30 53 1 18 48
M  V30 54 1 18 49
M  V30 55 1 19 50
M  V30 56 1 20 51
M  V30 57 1 20 52
M  V30 58 1 21 53
M  V30 59 1 22 54
M  V30 60 1 22 55
M  V30 61 1 23 56
M  V30 62 1 24 57
M  V30 63 1 25 58
M  V30 64 1 26 59
M  V30 65 1 26 60
M  V30 66 1 27 61
M  V30 67 1 27 62
M  V30 68 1 29 63
M  V30 69 1 32 64
M  V30 70 1 33 65
M  V30 71 1 34 66
M  V30 72 1 35 67
M  V30 73 1 36 68
M  V30 END BOND
M  V30 END CTAB
M  END
>  <Dataset>  (895) 
ChEMBL_Kinases

>  <Ligand_Instance>  (895) 
nan

>  <PDB_ID>  (895) 
nan

>  <Standardized_SMILES>  (895) 
C[C@@H](NC(=O)Nc1cc2[nH]nc(C(=O)NCC34CC5CC(C3)C(O)C(C5)C4)c2cn1)c1ccccc1

>  <Name>  (895) 
nan

>  <Pocket>  (895) 
nan

>  <ATP_Site>  (895) 
nan

>  <Peripheral>  (895) 
nan

>  <Num_H_Atoms_ProtBoundConf>  (895) 
nan

>  <Num_Resolved_Atoms>  (895) 
nan

>  <Num_Not_Resolved_Atoms>  (895) 
nan

$$$$
CHEMBL363556
     RDKit          3D

  0  0  0  0  0  0  0  0  0  0999 V3000
M  V30 BEGIN CTAB
M  V30 COUNTS 36 38 0 0 0
M  V30 BEGIN ATOM
M  V30 1 N 3.615026 1.807670 3.050233 0
M  V30 2 C 2.766724 1.120920 2.643996 0
M  V30 3 C 1.712026 0.282511 2.162756 0
M  V30 4 C 1.973789 -0.716477 1.321787 0
M  V30 5 N 1.065548 -1.648559 0.742878 0
M  V30 6 C 1.644391 -2.570146 -0.135161 0
M  V30 7 C 0.958895 -3.562949 -0.812474 0
M  V30 8 C 1.639451 -4.412819 -1.657274 0
M  V30 9 C 2.995470 -4.284690 -1.835365 0
M  V30 10 C 3.697871 -3.310608 -1.176640 0
M  V30 11 C 3.012746 -2.457392 -0.327231 0
M  V30 12 S 3.609032 -1.106509 0.689328 0
M  V30 13 C 0.311750 0.547054 2.583060 0
M  V30 14 C -0.001477 0.860014 3.886331 0
M  V30 15 C -1.335510 1.114696 4.196639 0
M  V30 16 N -2.328781 1.069416 3.272221 0
M  V30 17 C -2.000494 0.763335 1.988636 0
M  V30 18 N -2.717347 0.629213 0.773005 0
M  V30 19 C -3.047956 1.365104 -0.414079 0
M  V30 20 C -1.804135 1.902287 -1.096813 0
M  V30 21 N -0.872383 0.876749 -1.457324 0
M  V30 22 N -0.711653 0.525202 1.745238 0
M  V30 23 H 0.059287 -1.576077 1.017029 0
M  V30 24 H -0.113371 -3.778100 -0.768430 0
M  V30 25 H 1.153731 -5.225114 -2.219255 0
M  V30 26 H 3.527850 -4.967928 -2.504046 0
M  V30 27 H 4.762208 -3.157415 -1.279264 0
M  V30 28 H 0.756141 0.905327 4.653386 0
M  V30 29 H -1.662243 1.363441 5.181195 0
M  V30 30 H -3.070594 -0.349468 0.927022 0
M  V30 31 H -3.488744 0.627729 -1.134894 0
M  V30 32 H -3.725781 2.194134 -0.142270 0
M  V30 33 H -2.122211 2.442113 -2.031096 0
M  V30 34 H -1.343640 2.695726 -0.481400 0
M  V30 35 H 0.078908 1.140511 -1.079127 0
M  V30 36 H -0.780857 0.764226 -2.487616 0
M  V30 END ATOM
M  V30 BEGIN BOND
M  V30 1 3 1 2
M  V30 2 1 2 3
M  V30 3 2 3 4
M  V30 4 1 4 5
M  V30 5 1 5 6
M  V30 6 2 6 7
M  V30 7 1 7 8
M  V30 8 2 8 9
M  V30 9 1 9 10
M  V30 10 2 10 11
M  V30 11 1 11 12
M  V30 12 1 3 13
M  V30 13 2 13 14
M  V30 14 1 14 15
M  V30 15 2 15 16
M  V30 16 1 16 17
M  V30 17 1 17 18
M  V30 18 1 18 19
M  V30 19 1 19 20
M  V30 20 1 20 21
M  V30 21 2 17 22
M  V30 22 1 12 4
M  V30 23 1 22 13
M  V30 24 1 11 6
M  V30 25 1 5 23
M  V30 26 1 7 24
M  V30 27 1 8 25
M  V30 28 1 9 26
M  V30 29 1 10 27
M  V30 30 1 14 28
M  V30 31 1 15 29
M  V30 32 1 18 30
M  V30 33 1 19 31
M  V30 34 1 19 32
M  V30 35 1 20 33
M  V30 36 1 20 34
M  V30 37 1 21 35
M  V30 38 1 21 36
M  V30 END BOND
M  V30 END CTAB
M  END
>  <Dataset>  (896) 
ChEMBL_Kinases

>  <Ligand_Instance>  (896) 
nan

>  <PDB_ID>  (896) 
nan

>  <Standardized_SMILES>  (896) 
N#C/C(=C1/Nc2ccccc2S1)c1ccnc(NCCN)n1

>  <Name>  (896) 
nan

>  <Pocket>  (896) 
nan

>  <ATP_Site>  (896) 
nan

>  <Peripheral>  (896) 
nan

>  <Num_H_Atoms_ProtBoundConf>  (896) 
nan

>  <Num_Resolved_Atoms>  (896) 
nan

>  <Num_Not_Resolved_Atoms>  (896) 
nan

$$$$
CHEMBL363706
     RDKit          3D

  0  0  0  0  0  0  0  0  0  0999 V3000
M  V30 BEGIN CTAB
M  V30 COUNTS 44 46 0 0 0
M  V30 BEGIN ATOM
M  V30 1 C 0.487739 -4.775582 -0.735740 0
M  V30 2 O 0.160968 -3.606258 -0.007792 0
M  V30 3 C 0.403726 -3.552516 1.358131 0
M  V30 4 C 0.953260 -4.545980 2.145141 0
M  V30 5 C 1.116626 -4.299816 3.498393 0
M  V30 6 C 0.753007 -3.106827 4.084800 0
M  V30 7 C 0.198587 -2.112775 3.273753 0
M  V30 8 O -0.147991 -0.934012 3.918878 0
M  V30 9 C 0.024707 -2.336923 1.911656 0
M  V30 10 C -0.564037 -1.229272 1.157980 0
M  V30 11 C 0.237777 -0.262596 0.585540 0
M  V30 12 C -0.247000 0.808412 -0.137748 0
M  V30 13 C 0.532978 1.868385 -0.770926 0
M  V30 14 C 0.796585 3.059394 0.132004 0
M  V30 15 C 1.685814 2.616372 1.274712 0
M  V30 16 C 2.991883 2.168969 0.683472 0
M  V30 17 N 2.986945 2.118483 -0.739742 0
M  V30 18 C 1.881205 1.408384 -1.285575 0
M  V30 19 C -1.643096 0.821771 -0.236890 0
M  V30 20 C -2.262732 1.908950 -0.979326 0
M  V30 21 N -2.765471 2.761305 -1.578644 0
M  V30 22 C -2.468881 -0.129008 0.323740 0
M  V30 23 N -3.867864 -0.100403 0.214555 0
M  V30 24 N -1.911115 -1.144191 1.015672 0
M  V30 25 H 0.286980 -5.711302 -0.160876 0
M  V30 26 H -0.158202 -4.861452 -1.653125 0
M  V30 27 H 1.562724 -4.828244 -1.012162 0
M  V30 28 H 1.215830 -5.448625 1.636569 0
M  V30 29 H 1.561154 -5.151801 4.035118 0
M  V30 30 H 0.913195 -2.991631 5.150877 0
M  V30 31 H -0.387963 -0.149418 3.331536 0
M  V30 32 H 1.311643 -0.325994 0.696775 0
M  V30 33 H -0.085292 2.291909 -1.616638 0
M  V30 34 H -0.107838 3.570866 0.455820 0
M  V30 35 H 1.390627 3.780347 -0.471404 0
M  V30 36 H 1.151568 1.817215 1.828864 0
M  V30 37 H 1.877648 3.453052 1.966545 0
M  V30 38 H 3.850036 2.760667 1.056149 0
M  V30 39 H 3.186557 1.125037 1.063698 0
M  V30 40 H 3.353876 2.913808 -1.254592 0
M  V30 41 H 2.086707 0.330378 -1.066616 0
M  V30 42 H 1.905218 1.584476 -2.400799 0
M  V30 43 H -4.633151 0.181258 0.892782 0
M  V30 44 H -4.217049 -0.415633 -0.706977 0
M  V30 END ATOM
M  V30 BEGIN BOND
M  V30 1 1 1 2
M  V30 2 1 2 3
M  V30 3 2 3 4
M  V30 4 1 4 5
M  V30 5 2 5 6
M  V30 6 1 6 7
M  V30 7 1 7 8
M  V30 8 2 7 9
M  V30 9 1 9 10
M  V30 10 2 10 11
M  V30 11 1 11 12
M  V30 12 1 12 13
M  V30 13 1 13 14
M  V30 14 1 14 15
M  V30 15 1 15 16
M  V30 16 1 16 17
M  V30 17 1 17 18
M  V30 18 2 12 19
M  V30 19 1 19 20
M  V30 20 3 20 21
M  V30 21 1 19 22
M  V30 22 1 22 23
M  V30 23 2 22 24
M  V30 24 1 9 3
M  V30 25 1 24 10
M  V30 26 1 18 13
M  V30 27 1 1 25
M  V30 28 1 1 26
M  V30 29 1 1 27
M  V30 30 1 4 28
M  V30 31 1 5 29
M  V30 32 1 6 30
M  V30 33 1 8 31
M  V30 34 1 11 32
M  V30 35 1 13 33
M  V30 36 1 14 34
M  V30 37 1 14 35
M  V30 38 1 15 36
M  V30 39 1 15 37
M  V30 40 1 16 38
M  V30 41 1 16 39
M  V30 42 1 17 40
M  V30 43 1 18 41
M  V30 44 1 18 42
M  V30 45 1 23 43
M  V30 46 1 23 44
M  V30 END BOND
M  V30 END CTAB
M  END
>  <Dataset>  (897) 
ChEMBL_Kinases

>  <Ligand_Instance>  (897) 
nan

>  <PDB_ID>  (897) 
nan

>  <Standardized_SMILES>  (897) 
COc1cccc(O)c1-c1cc(C2CCCNC2)c(C#N)c(N)n1

>  <Name>  (897) 
nan

>  <Pocket>  (897) 
nan

>  <ATP_Site>  (897) 
nan

>  <Peripheral>  (897) 
nan

>  <Num_H_Atoms_ProtBoundConf>  (897) 
nan

>  <Num_Resolved_Atoms>  (897) 
nan

>  <Num_Not_Resolved_Atoms>  (897) 
nan

$$$$
CHEMBL363775
     RDKit          3D

  0  0  0  0  0  0  0  0  0  0999 V3000
M  V30 BEGIN CTAB
M  V30 COUNTS 48 51 0 0 0
M  V30 BEGIN ATOM
M  V30 1 C 0.997891 -5.756814 4.100939 0
M  V30 2 C 1.383018 -4.582221 3.279313 0
M  V30 3 O 2.269860 -3.831804 3.751649 0
M  V30 4 N 0.817333 -4.268650 2.019330 0
M  V30 5 C 1.094683 -3.191491 1.146747 0
M  V30 6 C 0.396594 -3.111982 -0.034271 0
M  V30 7 C 0.611463 -2.092940 -0.934784 0
M  V30 8 C 1.536175 -1.098667 -0.702277 0
M  V30 9 C 1.788457 0.011464 -1.649043 0
M  V30 10 N 1.002949 1.198456 -1.392081 0
M  V30 11 C 1.301485 1.689663 -0.098913 0
M  V30 12 N 2.378538 2.484106 0.125556 0
M  V30 13 N 2.424280 2.791598 1.415761 0
M  V30 14 C 1.403165 2.228683 2.091663 0
M  V30 15 C 0.927848 2.169598 3.384695 0
M  V30 16 C -0.217304 1.428287 3.650348 0
M  V30 17 C -0.878666 0.750859 2.615309 0
M  V30 18 C -0.412404 0.797709 1.291881 0
M  V30 19 O -1.269326 0.049622 0.562211 0
M  V30 20 C -2.082551 0.424392 -0.466074 0
M  V30 21 C -3.197656 1.040785 0.138261 0
M  V30 22 C -4.256706 1.556022 -0.620928 0
M  V30 23 C -4.256534 1.483867 -1.989166 0
M  V30 24 C -3.174108 0.885406 -2.572816 0
M  V30 25 C -2.134051 0.378517 -1.840346 0
M  V30 26 C 0.718987 1.546787 1.115269 0
M  V30 27 C 2.256822 -1.147111 0.476058 0
M  V30 28 C 2.007740 -2.185607 1.346953 0
M  V30 29 H 0.783787 -5.361455 5.118850 0
M  V30 30 H 1.753114 -6.550625 4.101833 0
M  V30 31 H 0.031037 -6.170118 3.734475 0
M  V30 32 H 0.096414 -4.973096 1.750534 0
M  V30 33 H -0.355144 -3.877189 -0.275460 0
M  V30 34 H 0.028527 -2.097595 -1.838486 0
M  V30 35 H 2.888987 0.253585 -1.557588 0
M  V30 36 H 1.687527 -0.337374 -2.698354 0
M  V30 37 H 0.297560 1.881911 -1.734445 0
M  V30 38 H 3.068961 2.809242 -0.591419 0
M  V30 39 H 1.498998 2.720505 4.114069 0
M  V30 40 H -0.480140 1.464099 4.694030 0
M  V30 41 H -1.738551 0.246883 3.065607 0
M  V30 42 H -3.431282 1.218498 1.192778 0
M  V30 43 H -5.152455 2.046506 -0.223005 0
M  V30 44 H -4.986035 1.829952 -2.681891 0
M  V30 45 H -3.022824 0.749627 -3.643803 0
M  V30 46 H -1.254483 -0.112692 -2.190537 0
M  V30 47 H 2.998600 -0.382878 0.703542 0
M  V30 48 H 2.593443 -2.173531 2.242753 0
M  V30 END ATOM
M  V30 BEGIN BOND
M  V30 1 1 1 2
M  V30 2 2 2 3
M  V30 3 1 2 4
M  V30 4 1 4 5
M  V30 5 2 5 6
M  V30 6 1 6 7
M  V30 7 2 7 8
M  V30 8 1 8 9
M  V30 9 1 9 10
M  V30 10 1 10 11
M  V30 11 1 11 12
M  V30 12 1 12 13
M  V30 13 2 13 14
M  V30 14 1 14 15
M  V30 15 2 15 16
M  V30 16 1 16 17
M  V30 17 2 17 18
M  V30 18 1 18 19
M  V30 19 1 19 20
M  V30 20 2 20 21
M  V30 21 1 21 22
M  V30 22 2 22 23
M  V30 23 1 23 24
M  V30 24 2 24 25
M  V30 25 1 18 26
M  V30 26 1 8 27
M  V30 27 2 27 28
M  V30 28 1 28 5
M  V30 29 2 26 11
M  V30 30 1 26 14
M  V30 31 1 25 20
M  V30 32 1 1 29
M  V30 33 1 1 30
M  V30 34 1 1 31
M  V30 35 1 4 32
M  V30 36 1 6 33
M  V30 37 1 7 34
M  V30 38 1 9 35
M  V30 39 1 9 36
M  V30 40 1 10 37
M  V30 41 1 12 38
M  V30 42 1 15 39
M  V30 43 1 16 40
M  V30 44 1 17 41
M  V30 45 1 21 42
M  V30 46 1 22 43
M  V30 47 1 23 44
M  V30 48 1 24 45
M  V30 49 1 25 46
M  V30 50 1 27 47
M  V30 51 1 28 48
M  V30 END BOND
M  V30 END CTAB
M  END
>  <Dataset>  (898) 
ChEMBL_Kinases

>  <Ligand_Instance>  (898) 
nan

>  <PDB_ID>  (898) 
nan

>  <Standardized_SMILES>  (898) 
CC(=O)Nc1ccc(CNc2[nH]nc3cccc(Oc4ccccc4)c23)cc1

>  <Name>  (898) 
nan

>  <Pocket>  (898) 
nan

>  <ATP_Site>  (898) 
nan

>  <Peripheral>  (898) 
nan

>  <Num_H_Atoms_ProtBoundConf>  (898) 
nan

>  <Num_Resolved_Atoms>  (898) 
nan

>  <Num_Not_Resolved_Atoms>  (898) 
nan

$$$$
CHEMBL363852
     RDKit          3D

  0  0  0  0  0  0  0  0  0  0999 V3000
M  V30 BEGIN CTAB
M  V30 COUNTS 55 59 0 0 0
M  V30 BEGIN ATOM
M  V30 1 C 4.467066 -2.678528 1.217637 0
M  V30 2 N 5.080766 -1.393417 1.361730 0
M  V30 3 C 6.070056 -1.135138 0.375155 0
M  V30 4 S 4.015926 -0.133435 1.740441 0
M  V30 5 O 2.868532 -0.648373 2.598357 0
M  V30 6 O 4.709367 0.901444 2.636202 0
M  V30 7 N 3.337800 0.689722 0.395531 0
M  V30 8 C 3.928712 1.405441 -0.574696 0
M  V30 9 N 5.303542 1.698778 -0.723109 0
M  V30 10 N 3.053671 1.887441 -1.475170 0
M  V30 11 C 1.803469 1.482822 -1.103049 0
M  V30 12 C 0.576246 1.706034 -1.678946 0
M  V30 13 C -0.538693 1.164526 -1.073814 0
M  V30 14 C -0.393002 0.422174 0.079755 0
M  V30 15 C -1.621111 -0.106744 0.646913 0
M  V30 16 N -2.252736 0.080636 1.819573 0
M  V30 17 C -3.383079 -0.639027 1.893526 0
M  V30 18 C -4.347053 -0.730655 2.958720 0
M  V30 19 C -4.254948 -0.048500 4.150795 0
M  V30 20 F -3.203519 0.771382 4.373650 0
M  V30 21 C -5.194842 -0.153755 5.158266 0
M  V30 22 C -6.293216 -0.973206 4.997711 0
M  V30 23 C -6.426667 -1.674890 3.821501 0
M  V30 24 C -5.460379 -1.535073 2.846424 0
M  V30 25 F -5.600328 -2.236196 1.679861 0
M  V30 26 N -3.454223 -1.296390 0.723559 0
M  V30 27 C -2.402184 -0.998794 -0.059596 0
M  V30 28 C -2.166629 -1.545734 -1.410787 0
M  V30 29 C -3.016400 -1.334152 -2.480436 0
M  V30 30 C -2.699921 -1.897180 -3.712242 0
M  V30 31 C -1.550900 -2.664719 -3.886869 0
M  V30 32 C -0.744149 -2.838332 -2.779536 0
M  V30 33 C -1.013828 -2.296507 -1.520616 0
M  V30 34 C 0.871263 0.240613 0.599584 0
M  V30 35 C 2.021394 0.755889 0.041217 0
M  V30 36 H 3.557628 -2.786007 1.826461 0
M  V30 37 H 5.189394 -3.473646 1.552738 0
M  V30 38 H 4.269567 -2.887224 0.132226 0
M  V30 39 H 6.805222 -1.997372 0.293177 0
M  V30 40 H 5.566591 -1.038635 -0.606222 0
M  V30 41 H 6.708071 -0.260946 0.603886 0
M  V30 42 H 6.010616 1.547825 -1.474642 0
M  V30 43 H 5.841497 2.183857 0.048081 0
M  V30 44 H 0.515711 2.291970 -2.579305 0
M  V30 45 H -1.495870 1.345110 -1.532822 0
M  V30 46 H -1.859044 0.713674 2.528137 0
M  V30 47 H -5.100806 0.392258 6.085735 0
M  V30 48 H -7.012242 -1.035754 5.802663 0
M  V30 49 H -7.284280 -2.334376 3.657807 0
M  V30 50 H -3.906493 -0.732361 -2.320936 0
M  V30 51 H -3.370426 -1.727251 -4.546065 0
M  V30 52 H -1.296920 -3.104878 -4.836259 0
M  V30 53 H 0.147081 -3.444503 -2.949726 0
M  V30 54 H -0.317530 -2.490307 -0.712225 0
M  V30 55 H 0.887309 -0.350526 1.497297 0
M  V30 END ATOM
M  V30 BEGIN BOND
M  V30 1 1 1 2
M  V30 2 1 2 3
M  V30 3 1 2 4
M  V30 4 2 4 5
M  V30 5 2 4 6
M  V30 6 1 4 7
M  V30 7 1 7 8
M  V30 8 1 8 9
M  V30 9 2 8 10
M  V30 10 1 10 11
M  V30 11 2 11 12
M  V30 12 1 12 13
M  V30 13 2 13 14
M  V30 14 1 14 15
M  V30 15 1 15 16
M  V30 16 1 16 17
M  V30 17 1 17 18
M  V30 18 2 18 19
M  V30 19 1 19 20
M  V30 20 1 19 21
M  V30 21 2 21 22
M  V30 22 1 22 23
M  V30 23 2 23 24
M  V30 24 1 24 25
M  V30 25 2 17 26
M  V30 26 1 26 27
M  V30 27 1 27 28
M  V30 28 2 28 29
M  V30 29 1 29 30
M  V30 30 2 30 31
M  V30 31 1 31 32
M  V30 32 2 32 33
M  V30 33 1 14 34
M  V30 34 2 34 35
M  V30 35 1 35 7
M  V30 36 1 35 11
M  V30 37 2 27 15
M  V30 38 1 33 28
M  V30 39 1 24 18
M  V30 40 1 1 36
M  V30 41 1 1 37
M  V30 42 1 1 38
M  V30 43 1 3 39
M  V30 44 1 3 40
M  V30 45 1 3 41
M  V30 46 1 9 42
M  V30 47 1 9 43
M  V30 48 1 12 44
M  V30 49 1 13 45
M  V30 50 1 16 46
M  V30 51 1 21 47
M  V30 52 1 22 48
M  V30 53 1 23 49
M  V30 54 1 29 50
M  V30 55 1 30 51
M  V30 56 1 31 52
M  V30 57 1 32 53
M  V30 58 1 33 54
M  V30 59 1 34 55
M  V30 END BOND
M  V30 END CTAB
M  END
>  <Dataset>  (899) 
ChEMBL_Kinases

>  <Ligand_Instance>  (899) 
nan

>  <PDB_ID>  (899) 
nan

>  <Standardized_SMILES>  (899) 
CN(C)S(=O)(=O)n1c(N)nc2ccc(-c3[nH]c(-c4c(F)cccc4F)nc3-c3ccccc3)cc21

>  <Name>  (899) 
nan

>  <Pocket>  (899) 
nan

>  <ATP_Site>  (899) 
nan

>  <Peripheral>  (899) 
nan

>  <Num_H_Atoms_ProtBoundConf>  (899) 
nan

>  <Num_Resolved_Atoms>  (899) 
nan

>  <Num_Not_Resolved_Atoms>  (899) 
nan

$$$$
CHEMBL363887
     RDKit          3D

  0  0  0  0  0  0  0  0  0  0999 V3000
M  V30 BEGIN CTAB
M  V30 COUNTS 21 22 0 0 0
M  V30 BEGIN ATOM
M  V30 1 O -0.296166 -2.596551 2.894670 0
M  V30 2 C 0.920632 -2.608134 2.572463 0
M  V30 3 C 1.667582 -3.835499 2.952438 0
M  V30 4 Cl 3.362810 -3.802397 2.480046 0
M  V30 5 N 1.657553 -1.623155 1.907643 0
M  V30 6 C 1.164783 -0.305374 1.416429 0
M  V30 7 N 0.717028 -0.155963 0.327860 0
M  V30 8 C 0.255146 0.957112 -0.207401 0
M  V30 9 C -0.280565 1.238693 -1.446757 0
M  V30 10 Cl -0.459207 0.003820 -2.674325 0
M  V30 11 C -0.696498 2.512588 -1.762325 0
M  V30 12 C -0.625744 3.595835 -0.912018 0
M  V30 13 C -0.103922 3.406600 0.347316 0
M  V30 14 C 0.307213 2.110386 0.636555 0
M  V30 15 S 1.070298 1.369801 2.193945 0
M  V30 16 H 1.177359 -4.709668 2.438772 0
M  V30 17 H 1.576863 -3.996545 4.050179 0
M  V30 18 H 2.651618 -1.696818 1.674788 0
M  V30 19 H -1.122472 2.716630 -2.759967 0
M  V30 20 H -0.936600 4.606373 -1.112056 0
M  V30 21 H 0.040129 4.097431 1.150299 0
M  V30 END ATOM
M  V30 BEGIN BOND
M  V30 1 2 1 2
M  V30 2 1 2 3
M  V30 3 1 3 4
M  V30 4 1 2 5
M  V30 5 1 5 6
M  V30 6 2 6 7
M  V30 7 1 7 8
M  V30 8 2 8 9
M  V30 9 1 9 10
M  V30 10 1 9 11
M  V30 11 2 11 12
M  V30 12 1 12 13
M  V30 13 2 13 14
M  V30 14 1 14 15
M  V30 15 1 15 6
M  V30 16 1 14 8
M  V30 17 1 3 16
M  V30 18 1 3 17
M  V30 19 1 5 18
M  V30 20 1 11 19
M  V30 21 1 12 20
M  V30 22 1 13 21
M  V30 END BOND
M  V30 END CTAB
M  END
>  <Dataset>  (900) 
ChEMBL_Kinases

>  <Ligand_Instance>  (900) 
nan

>  <PDB_ID>  (900) 
nan

>  <Standardized_SMILES>  (900) 
O=C(CCl)Nc1nc2c(Cl)cccc2s1

>  <Name>  (900) 
nan

>  <Pocket>  (900) 
nan

>  <ATP_Site>  (900) 
nan

>  <Peripheral>  (900) 
nan

>  <Num_H_Atoms_ProtBoundConf>  (900) 
nan

>  <Num_Resolved_Atoms>  (900) 
nan

>  <Num_Not_Resolved_Atoms>  (900) 
nan

$$$$
CHEMBL3639393
     RDKit          3D

  0  0  0  0  0  0  0  0  0  0999 V3000
M  V30 BEGIN CTAB
M  V30 COUNTS 57 61 0 0 0
M  V30 BEGIN ATOM
M  V30 1 O 1.097278 -4.521399 3.549052 0
M  V30 2 C 1.040394 -4.216087 2.308399 0
M  V30 3 N 1.294591 -2.835086 2.172435 0
M  V30 4 C 1.566364 -1.980423 3.312883 0
M  V30 5 C 1.795561 -0.580186 2.872141 0
M  V30 6 C 1.989509 0.554705 2.497685 0
M  V30 7 C 2.222894 1.894796 2.031812 0
M  V30 8 C 3.512417 2.303199 1.766305 0
M  V30 9 C 3.783646 3.588998 1.314639 0
M  V30 10 C 2.766336 4.505382 1.115737 0
M  V30 11 N 2.959729 5.769612 0.668865 0
M  V30 12 C 1.865337 6.569108 0.506807 0
M  V30 13 N 0.622721 6.133391 0.778000 0
M  V30 14 C 0.387549 4.866597 1.230568 0
M  V30 15 C -1.016884 4.602019 1.457211 0
M  V30 16 C -1.652409 4.069785 2.559042 0
M  V30 17 C -3.016720 3.872741 2.572447 0
M  V30 18 C -3.815965 4.191413 1.502257 0
M  V30 19 C -3.230540 4.719379 0.395535 0
M  V30 20 C -1.872397 4.909545 0.396163 0
M  V30 21 C 1.498934 4.067635 1.389322 0
M  V30 22 C 1.204836 2.804296 1.835207 0
M  V30 23 C 0.758715 -5.158616 1.243328 0
M  V30 24 C 0.547143 -6.469875 1.694083 0
M  V30 25 N 0.275099 -7.458344 0.828424 0
M  V30 26 C 0.189515 -7.260285 -0.498292 0
M  V30 27 N 0.391049 -6.005893 -0.938562 0
M  V30 28 C 0.318615 -5.697052 -2.352894 0
M  V30 29 C -1.037419 -5.315254 -2.803964 0
M  V30 30 C -1.872714 -6.351380 -3.235798 0
M  V30 31 C -3.142274 -6.128488 -3.674907 0
M  V30 32 C -3.612568 -4.855264 -3.693690 0
M  V30 33 F -4.868839 -4.556384 -4.118747 0
M  V30 34 C -2.838409 -3.776880 -3.279181 0
M  V30 35 F -3.304311 -2.492910 -3.295038 0
M  V30 36 C -1.564122 -4.047160 -2.844076 0
M  V30 37 C 0.662035 -4.999653 -0.121182 0
M  V30 38 O 0.852211 -3.835846 -0.496062 0
M  V30 39 H 1.288964 -2.404898 1.222800 0
M  V30 40 H 0.708383 -1.970831 4.015166 0
M  V30 41 H 2.460120 -2.293721 3.871471 0
M  V30 42 H 4.317295 1.613141 1.912324 0
M  V30 43 H 4.793896 3.913726 1.104902 0
M  V30 44 H 2.080014 7.566356 0.147593 0
M  V30 45 H -1.040006 3.835934 3.392245 0
M  V30 46 H -3.412732 3.444489 3.497371 0
M  V30 47 H -4.879207 4.012842 1.574669 0
M  V30 48 H -3.845282 4.974333 -0.451395 0
M  V30 49 H -1.474839 5.339386 -0.532315 0
M  V30 50 H 0.220879 2.446185 2.040697 0
M  V30 51 H 0.588082 -6.755297 2.723328 0
M  V30 52 H -0.023782 -7.996367 -1.257485 0
M  V30 53 H 1.075738 -4.920426 -2.577819 0
M  V30 54 H 0.641021 -6.628595 -2.898897 0
M  V30 55 H -1.507094 -7.373308 -3.225105 0
M  V30 56 H -3.765035 -6.946387 -4.002349 0
M  V30 57 H -0.921310 -3.250449 -2.512064 0
M  V30 END ATOM
M  V30 BEGIN BOND
M  V30 1 2 1 2
M  V30 2 1 2 3
M  V30 3 1 3 4
M  V30 4 1 4 5
M  V30 5 3 5 6
M  V30 6 1 6 7
M  V30 7 2 7 8
M  V30 8 1 8 9
M  V30 9 2 9 10
M  V30 10 1 10 11
M  V30 11 2 11 12
M  V30 12 1 12 13
M  V30 13 2 13 14
M  V30 14 1 14 15
M  V30 15 2 15 16
M  V30 16 1 16 17
M  V30 17 2 17 18
M  V30 18 1 18 19
M  V30 19 2 19 20
M  V30 20 1 14 21
M  V30 21 2 21 22
M  V30 22 1 2 23
M  V30 23 2 23 24
M  V30 24 1 24 25
M  V30 25 2 25 26
M  V30 26 1 26 27
M  V30 27 1 27 28
M  V30 28 1 28 29
M  V30 29 2 29 30
M  V30 30 1 30 31
M  V30 31 2 31 32
M  V30 32 1 32 33
M  V30 33 1 32 34
M  V30 34 1 34 35
M  V30 35 2 34 36
M  V30 36 1 27 37
M  V30 37 2 37 38
M  V30 38 1 22 7
M  V30 39 1 37 23
M  V30 40 1 21 10
M  V30 41 1 36 29
M  V30 42 1 20 15
M  V30 43 1 3 39
M  V30 44 1 4 40
M  V30 45 1 4 41
M  V30 46 1 8 42
M  V30 47 1 9 43
M  V30 48 1 12 44
M  V30 49 1 16 45
M  V30 50 1 17 46
M  V30 51 1 18 47
M  V30 52 1 19 48
M  V30 53 1 20 49
M  V30 54 1 22 50
M  V30 55 1 24 51
M  V30 56 1 26 52
M  V30 57 1 28 53
M  V30 58 1 28 54
M  V30 59 1 30 55
M  V30 60 1 31 56
M  V30 61 1 36 57
M  V30 END BOND
M  V30 END CTAB
M  END
>  <Dataset>  (901) 
ChEMBL_Kinases

>  <Ligand_Instance>  (901) 
nan

>  <PDB_ID>  (901) 
nan

>  <Standardized_SMILES>  (901) 
O=C(NCC#Cc1ccc2ncnc(-c3ccccc3)c2c1)c1cncn(Cc2ccc(F)c(F)c2)c1=O

>  <Name>  (901) 
nan

>  <Pocket>  (901) 
nan

>  <ATP_Site>  (901) 
nan

>  <Peripheral>  (901) 
nan

>  <Num_H_Atoms_ProtBoundConf>  (901) 
nan

>  <Num_Resolved_Atoms>  (901) 
nan

>  <Num_Not_Resolved_Atoms>  (901) 
nan

$$$$
CHEMBL3639406
     RDKit          3D

  0  0  0  0  0  0  0  0  0  0999 V3000
M  V30 BEGIN CTAB
M  V30 COUNTS 50 53 0 0 0
M  V30 BEGIN ATOM
M  V30 1 C 4.206538 -4.183029 1.318617 0
M  V30 2 N 4.047909 -4.864996 0.053029 0
M  V30 3 C 3.278733 -4.704420 -1.108030 0
M  V30 4 N 2.426944 -3.701061 -1.207690 0
M  V30 5 C 1.663695 -3.488212 -2.282211 0
M  V30 6 N 0.725831 -2.428874 -2.449199 0
M  V30 7 C 0.383752 -1.405664 -1.551227 0
M  V30 8 C 0.923342 -1.252203 -0.292154 0
M  V30 9 C 0.588384 -0.252003 0.590442 0
M  V30 10 C -0.349970 0.691012 0.240630 0
M  V30 11 C -0.844843 1.804184 1.006579 0
M  V30 12 O -1.065000 2.992055 0.607913 0
M  V30 13 N -1.212200 1.879244 2.375935 0
M  V30 14 C -1.695684 3.133092 2.917683 0
M  V30 15 C -1.166212 3.181029 4.345156 0
M  V30 16 C -0.476305 1.838201 4.537745 0
M  V30 17 C -1.256568 0.988939 3.528753 0
M  V30 18 C -2.683070 0.901090 3.984413 0
M  V30 19 O -3.572006 1.646136 3.216937 0
M  V30 20 C -3.209969 2.957295 3.025733 0
M  V30 21 C -0.914640 0.567685 -1.020847 0
M  V30 22 C -0.567648 -0.440159 -1.893074 0
M  V30 23 O -1.169390 -0.511664 -3.144517 0
M  V30 24 C -2.125717 0.437082 -3.523158 0
M  V30 25 N 1.810775 -4.365540 -3.275484 0
M  V30 26 C 2.648979 -5.401054 -3.246798 0
M  V30 27 C 3.423204 -5.599962 -2.132615 0
M  V30 28 Cl 4.526219 -6.953296 -2.079015 0
M  V30 29 H 5.254186 -3.852975 1.486765 0
M  V30 30 H 3.892674 -4.865962 2.158219 0
M  V30 31 H 3.564186 -3.268321 1.345369 0
M  V30 32 H 4.731439 -5.667556 0.135982 0
M  V30 33 H 0.213792 -2.395759 -3.362202 0
M  V30 34 H 1.663926 -1.930146 0.085214 0
M  V30 35 H 1.006786 -0.127908 1.573640 0
M  V30 36 H -1.405521 4.019647 2.342021 0
M  V30 37 H -1.973587 3.340739 5.089832 0
M  V30 38 H -0.440771 4.007622 4.416682 0
M  V30 39 H -0.643321 1.453089 5.562074 0
M  V30 40 H 0.570171 1.854404 4.225501 0
M  V30 41 H -0.762960 0.027346 3.348141 0
M  V30 42 H -2.978053 -0.154836 3.921468 0
M  V30 43 H -2.771067 1.269846 5.031965 0
M  V30 44 H -3.604027 3.271715 2.026779 0
M  V30 45 H -3.648065 3.640873 3.755918 0
M  V30 46 H -1.673507 1.274335 -1.389651 0
M  V30 47 H -2.948343 0.535172 -2.798742 0
M  V30 48 H -1.645134 1.431323 -3.735722 0
M  V30 49 H -2.550048 0.092219 -4.497343 0
M  V30 50 H 2.703683 -6.061213 -4.096192 0
M  V30 END ATOM
M  V30 BEGIN BOND
M  V30 1 1 1 2
M  V30 2 1 2 3
M  V30 3 2 3 4
M  V30 4 1 4 5
M  V30 5 1 5 6
M  V30 6 1 6 7
M  V30 7 2 7 8
M  V30 8 1 8 9
M  V30 9 2 9 10
M  V30 10 1 10 11
M  V30 11 2 11 12
M  V30 12 1 11 13
M  V30 13 1 13 14
M  V30 14 1 14 15
M  V30 15 1 15 16
M  V30 16 1 16 17
M  V30 17 1 17 18
M  V30 18 1 18 19
M  V30 19 1 19 20
M  V30 20 1 10 21
M  V30 21 2 21 22
M  V30 22 1 22 23
M  V30 23 1 23 24
M  V30 24 2 5 25
M  V30 25 1 25 26
M  V30 26 2 26 27
M  V30 27 1 27 28
M  V30 28 1 27 3
M  V30 29 1 22 7
M  V30 30 1 17 13
M  V30 31 1 20 14
M  V30 32 1 1 29
M  V30 33 1 1 30
M  V30 34 1 1 31
M  V30 35 1 2 32
M  V30 36 1 6 33
M  V30 37 1 8 34
M  V30 38 1 9 35
M  V30 39 1 14 36
M  V30 40 1 15 37
M  V30 41 1 15 38
M  V30 42 1 16 39
M  V30 43 1 16 40
M  V30 44 1 17 41
M  V30 45 1 18 42
M  V30 46 1 18 43
M  V30 47 1 20 44
M  V30 48 1 20 45
M  V30 49 1 21 46
M  V30 50 1 24 47
M  V30 51 1 24 48
M  V30 52 1 24 49
M  V30 53 1 26 50
M  V30 END BOND
M  V30 END CTAB
M  END
>  <Dataset>  (902) 
ChEMBL_Kinases

>  <Ligand_Instance>  (902) 
nan

>  <PDB_ID>  (902) 
nan

>  <Standardized_SMILES>  (902) 
CNc1nc(Nc2ccc(C(=O)N3C4CCC3COC4)cc2OC)ncc1Cl

>  <Name>  (902) 
nan

>  <Pocket>  (902) 
nan

>  <ATP_Site>  (902) 
nan

>  <Peripheral>  (902) 
nan

>  <Num_H_Atoms_ProtBoundConf>  (902) 
nan

>  <Num_Resolved_Atoms>  (902) 
nan

>  <Num_Not_Resolved_Atoms>  (902) 
nan

$$$$
CHEMBL3639535
     RDKit          3D

  0  0  0  0  0  0  0  0  0  0999 V3000
M  V30 BEGIN CTAB
M  V30 COUNTS 83 88 0 0 0
M  V30 BEGIN ATOM
M  V30 1 C 2.537509 -3.959043 3.739198 0
M  V30 2 C 3.700004 -3.026136 3.783451 0
M  V30 3 N 3.743947 -2.099863 2.639535 0
M  V30 4 C 4.484473 -2.654547 1.499543 0
M  V30 5 C 3.594475 -3.433805 0.566985 0
M  V30 6 C 3.227613 -0.801853 2.405249 0
M  V30 7 O 3.344409 -0.126619 1.337687 0
M  V30 8 C 2.455701 0.171988 3.175253 0 CFG=2
M  V30 9 C 1.243186 -0.329546 3.860940 0
M  V30 10 C -0.004780 -0.348824 3.032813 0
M  V30 11 C 0.228490 0.045065 1.598054 0 CFG=1
M  V30 12 N -1.067366 0.409538 1.059147 0
M  V30 13 C -1.712943 -0.300532 0.040396 0
M  V30 14 O -1.124394 -1.319434 -0.430472 0
M  V30 15 C -3.016775 0.120508 -0.457756 0
M  V30 16 C -3.683314 1.241312 -0.014774 0
M  V30 17 C -4.916124 1.630844 -0.493406 0
M  V30 18 C -5.544553 0.896067 -1.456249 0
M  V30 19 N -6.700676 0.922154 -2.165609 0
M  V30 20 N -6.769858 -0.112123 -3.004694 0
M  V30 21 C -5.656830 -0.862362 -2.879134 0
M  V30 22 C -5.393892 -2.080890 -3.634082 0
M  V30 23 C -6.507001 -2.916947 -3.687503 0
M  V30 24 C -6.476079 -4.148344 -4.358804 0
M  V30 25 C -5.302197 -4.552975 -4.991474 0
M  V30 26 N -4.929416 -5.635789 -5.701827 0
M  V30 27 N -3.668237 -5.516716 -6.083220 0
M  V30 28 C -2.866299 -6.463397 -6.872335 0
M  V30 29 C -3.188939 -4.328671 -5.617400 0
M  V30 30 C -4.195979 -3.695053 -4.923427 0
M  V30 31 C -4.248766 -2.491858 -4.260283 0
M  V30 32 C -4.901323 -0.227468 -1.915374 0
M  V30 33 C -3.663484 -0.605303 -1.425221 0
M  V30 34 C 1.140254 1.243832 1.463981 0
M  V30 35 N 2.151111 1.359718 2.406746 0
M  V30 36 C 2.463372 2.554885 3.070484 0
M  V30 37 C 2.852335 3.731459 2.312049 0
M  V30 38 C 2.081349 4.695595 1.705288 0
M  V30 39 F 0.747186 4.639043 1.856671 0
M  V30 40 C 2.526734 5.767145 0.966904 0
M  V30 41 C 3.882645 5.937828 0.787963 0
M  V30 42 C 4.715020 5.015199 1.365515 0
M  V30 43 C 4.231475 3.934567 2.110846 0
M  V30 44 O 5.126107 3.021496 2.679383 0
M  V30 45 C 6.501860 3.228250 2.471845 0
M  V30 46 H 2.122225 -4.176823 4.755124 0
M  V30 47 H 1.680802 -3.556795 3.144684 0
M  V30 48 H 2.826846 -4.953447 3.314056 0
M  V30 49 H 3.584461 -2.430639 4.737083 0
M  V30 50 H 4.670833 -3.538772 3.867203 0
M  V30 51 H 5.348271 -3.261196 1.869920 0
M  V30 52 H 4.939610 -1.835932 0.870036 0
M  V30 53 H 2.625926 -2.869407 0.523340 0
M  V30 54 H 3.965186 -3.413508 -0.477622 0
M  V30 55 H 3.476920 -4.466452 0.924595 0
M  V30 56 H 3.145158 0.544933 3.997272 0
M  V30 57 H 1.041185 0.306225 4.773726 0
M  V30 58 H 1.465113 -1.333433 4.296398 0
M  V30 59 H -0.806252 0.267221 3.484865 0
M  V30 60 H -0.391365 -1.400772 3.020616 0
M  V30 61 H 0.704622 -0.811152 1.096611 0
M  V30 62 H -1.459423 1.260467 1.519375 0
M  V30 63 H -3.238784 1.860878 0.746888 0
M  V30 64 H -5.427136 2.511828 -0.137970 0
M  V30 65 H -7.408215 1.679427 -2.029042 0
M  V30 66 H -7.464279 -2.687696 -3.226488 0
M  V30 67 H -7.340811 -4.793746 -4.398117 0
M  V30 68 H -2.670118 -6.010558 -7.876990 0
M  V30 69 H -1.882700 -6.531334 -6.351321 0
M  V30 70 H -3.357930 -7.441509 -6.936351 0
M  V30 71 H -2.172728 -3.934546 -5.765667 0
M  V30 72 H -3.424838 -1.799699 -4.182582 0
M  V30 73 H -3.154957 -1.504544 -1.797204 0
M  V30 74 H 1.635203 1.166298 0.441633 0
M  V30 75 H 0.525583 2.157229 1.373873 0
M  V30 76 H 1.607447 2.816765 3.767560 0
M  V30 77 H 3.301181 2.338167 3.806245 0
M  V30 78 H 1.850285 6.481516 0.520255 0
M  V30 79 H 4.229289 6.773186 0.213061 0
M  V30 80 H 5.772259 5.175064 1.208317 0
M  V30 81 H 6.747875 3.398588 1.383053 0
M  V30 82 H 7.078755 2.354246 2.856035 0
M  V30 83 H 6.890928 4.112859 3.014049 0
M  V30 END ATOM
M  V30 BEGIN BOND
M  V30 1 1 1 2
M  V30 2 1 2 3
M  V30 3 1 3 4
M  V30 4 1 4 5
M  V30 5 1 3 6
M  V30 6 2 6 7
M  V30 7 1 6 8
M  V30 8 1 8 9
M  V30 9 1 9 10
M  V30 10 1 10 11
M  V30 11 1 11 12
M  V30 12 1 12 13
M  V30 13 2 13 14
M  V30 14 1 13 15
M  V30 15 2 15 16
M  V30 16 1 16 17
M  V30 17 2 17 18
M  V30 18 1 18 19
M  V30 19 1 19 20
M  V30 20 2 20 21
M  V30 21 1 21 22
M  V30 22 1 22 23
M  V30 23 2 23 24
M  V30 24 1 24 25
M  V30 25 2 25 26
M  V30 26 1 26 27
M  V30 27 1 27 28
M  V30 28 1 27 29
M  V30 29 2 29 30
M  V30 30 1 30 31
M  V30 31 1 21 32
M  V30 32 2 32 33
M  V30 33 1 11 34
M  V30 34 1 34 35
M  V30 35 1 35 36
M  V30 36 1 36 37
M  V30 37 2 37 38
M  V30 38 1 38 39
M  V30 39 1 38 40
M  V30 40 2 40 41
M  V30 41 1 41 42
M  V30 42 2 42 43
M  V30 43 1 43 44
M  V30 44 1 44 45
M  V30 45 1 35 8
M  V30 46 1 43 37
M  V30 47 1 33 15
M  V30 48 1 32 18
M  V30 49 2 31 22
M  V30 50 1 30 25
M  V30 51 1 1 46
M  V30 52 1 1 47
M  V30 53 1 1 48
M  V30 54 1 2 49
M  V30 55 1 2 50
M  V30 56 1 4 51
M  V30 57 1 4 52
M  V30 58 1 5 53
M  V30 59 1 5 54
M  V30 60 1 5 55
M  V30 61 1 8 56 CFG=1
M  V30 62 1 9 57
M  V30 63 1 9 58
M  V30 64 1 10 59
M  V30 65 1 10 60
M  V30 66 1 11 61 CFG=3
M  V30 67 1 12 62
M  V30 68 1 16 63
M  V30 69 1 17 64
M  V30 70 1 19 65
M  V30 71 1 23 66
M  V30 72 1 24 67
M  V30 73 1 28 68
M  V30 74 1 28 69
M  V30 75 1 28 70
M  V30 76 1 29 71
M  V30 77 1 31 72
M  V30 78 1 33 73
M  V30 79 1 34 74
M  V30 80 1 34 75
M  V30 81 1 36 76
M  V30 82 1 36 77
M  V30 83 1 40 78
M  V30 84 1 41 79
M  V30 85 1 42 80
M  V30 86 1 45 81
M  V30 87 1 45 82
M  V30 88 1 45 83
M  V30 END BOND
M  V30 END CTAB
M  END
>  <Dataset>  (903) 
ChEMBL_Kinases

>  <Ligand_Instance>  (903) 
nan

>  <PDB_ID>  (903) 
nan

>  <Standardized_SMILES>  (903) 
CCN(CC)C(=O)[C@@H]1CC[C@@H](NC(=O)c2ccc3[nH]nc(-c4ccc5nn(C)cc5c4)c3c2)CN1Cc1c(F)cccc1OC

>  <Name>  (903) 
nan

>  <Pocket>  (903) 
nan

>  <ATP_Site>  (903) 
nan

>  <Peripheral>  (903) 
nan

>  <Num_H_Atoms_ProtBoundConf>  (903) 
nan

>  <Num_Resolved_Atoms>  (903) 
nan

>  <Num_Not_Resolved_Atoms>  (903) 
nan

$$$$
CHEMBL3639408
     RDKit          3D

  0  0  0  0  0  0  0  0  0  0999 V3000
M  V30 BEGIN CTAB
M  V30 COUNTS 57 62 0 0 0
M  V30 BEGIN ATOM
M  V30 1 C 0.119352 -4.159224 4.830055 0
M  V30 2 C 0.728479 -4.536198 3.503485 0 CFG=1
M  V30 3 C 2.147006 -3.973899 3.375041 0
M  V30 4 N 2.478070 -4.221453 1.987969 0
M  V30 5 C 2.493632 -3.196394 1.006147 0
M  V30 6 C 1.803027 -2.054744 1.401384 0
M  V30 7 C 1.744000 -0.978995 0.508015 0
M  V30 8 C 2.355818 -1.062263 -0.723129 0
M  V30 9 N 2.305195 -0.012788 -1.670842 0
M  V30 10 C 1.613680 1.214735 -1.432528 0
M  V30 11 N 2.115463 2.474404 -1.266771 0
M  V30 12 C 1.271312 3.504574 -1.045016 0
M  V30 13 C -0.082248 3.209894 -0.998682 0
M  V30 14 C -1.135542 4.088210 -0.788702 0
M  V30 15 C -1.297625 5.433241 -0.567685 0
M  V30 16 C -2.557884 5.971820 -0.397940 0
M  V30 17 N -3.613563 5.140553 -0.455902 0
M  V30 18 C -3.480615 3.816797 -0.671608 0
M  V30 19 C -2.233324 3.270915 -0.841702 0
M  V30 20 N -1.956566 1.980360 -1.064396 0
M  V30 21 C -2.693489 0.744374 -1.198303 0 CFG=2
M  V30 22 C -1.982658 -0.234748 -2.096603 0
M  V30 23 C -3.098347 -1.000383 -2.714936 0
M  V30 24 O -4.237654 -0.252073 -2.664698 0
M  V30 25 C -4.028455 0.866474 -1.867185 0
M  V30 26 C -0.579894 1.939872 -1.165635 0
M  V30 27 N 0.297953 0.923729 -1.388000 0
M  V30 28 N 3.006464 -2.199412 -1.035339 0
M  V30 29 N 3.073933 -3.230775 -0.201407 0
M  V30 30 C 2.739728 -5.659458 1.800991 0
M  V30 31 C 1.615090 -6.489309 2.330499 0
M  V30 32 N 0.810219 -5.958105 3.357000 0
M  V30 33 H -0.080821 -3.049195 4.800940 0
M  V30 34 H 0.768779 -4.338728 5.682864 0
M  V30 35 H -0.886365 -4.606334 4.927828 0
M  V30 36 H 0.092781 -4.119349 2.660955 0
M  V30 37 H 2.815534 -4.565733 4.014037 0
M  V30 38 H 2.213903 -2.906419 3.651923 0
M  V30 39 H 1.258893 -1.794429 2.298461 0
M  V30 40 H 1.246228 -0.034144 0.679317 0
M  V30 41 H 2.762530 -0.059401 -2.587749 0
M  V30 42 H 1.688447 4.483986 -0.917858 0
M  V30 43 H -0.411456 6.048510 -0.530528 0
M  V30 44 H -2.711333 7.035639 -0.221828 0
M  V30 45 H -4.382438 3.227547 -0.703533 0
M  V30 46 H -2.882424 0.273568 -0.203620 0
M  V30 47 H -1.485606 0.328540 -2.922816 0
M  V30 48 H -1.289940 -0.890501 -1.551264 0
M  V30 49 H -3.273314 -1.922273 -2.097377 0
M  V30 50 H -2.872756 -1.318504 -3.764175 0
M  V30 51 H -4.861976 0.987770 -1.130310 0
M  V30 52 H -4.011316 1.739746 -2.549885 0
M  V30 53 H 2.863594 -5.830262 0.699489 0
M  V30 54 H 3.672515 -5.959903 2.283184 0
M  V30 55 H 0.945693 -6.735198 1.452566 0
M  V30 56 H 2.050893 -7.502076 2.599771 0
M  V30 57 H 1.091416 -6.366340 4.277120 0
M  V30 END ATOM
M  V30 BEGIN BOND
M  V30 1 1 1 2
M  V30 2 1 2 3
M  V30 3 1 3 4
M  V30 4 1 4 5
M  V30 5 2 5 6
M  V30 6 1 6 7
M  V30 7 2 7 8
M  V30 8 1 8 9
M  V30 9 1 9 10
M  V30 10 2 10 11
M  V30 11 1 11 12
M  V30 12 2 12 13
M  V30 13 1 13 14
M  V30 14 2 14 15
M  V30 15 1 15 16
M  V30 16 2 16 17
M  V30 17 1 17 18
M  V30 18 2 18 19
M  V30 19 1 19 20
M  V30 20 1 20 21
M  V30 21 1 21 22
M  V30 22 1 22 23
M  V30 23 1 23 24
M  V30 24 1 24 25
M  V30 25 1 20 26
M  V30 26 2 26 27
M  V30 27 1 8 28
M  V30 28 2 28 29
M  V30 29 1 4 30
M  V30 30 1 30 31
M  V30 31 1 31 32
M  V30 32 1 32 2
M  V30 33 1 29 5
M  V30 34 1 27 10
M  V30 35 1 26 13
M  V30 36 1 19 14
M  V30 37 1 25 21
M  V30 38 1 1 33
M  V30 39 1 1 34
M  V30 40 1 1 35
M  V30 41 1 2 36 CFG=3
M  V30 42 1 3 37
M  V30 43 1 3 38
M  V30 44 1 6 39
M  V30 45 1 7 40
M  V30 46 1 9 41
M  V30 47 1 12 42
M  V30 48 1 15 43
M  V30 49 1 16 44
M  V30 50 1 18 45
M  V30 51 1 21 46 CFG=1
M  V30 52 1 22 47
M  V30 53 1 22 48
M  V30 54 1 23 49
M  V30 55 1 23 50
M  V30 56 1 25 51
M  V30 57 1 25 52
M  V30 58 1 30 53
M  V30 59 1 30 54
M  V30 60 1 31 55
M  V30 61 1 31 56
M  V30 62 1 32 57
M  V30 END BOND
M  V30 END CTAB
M  END
>  <Dataset>  (904) 
ChEMBL_Kinases

>  <Ligand_Instance>  (904) 
nan

>  <PDB_ID>  (904) 
nan

>  <Standardized_SMILES>  (904) 
C[C@H]1CN(c2ccc(Nc3ncc4c5ccncc5n([C@@H]5CCOC5)c4n3)nn2)CCN1

>  <Name>  (904) 
nan

>  <Pocket>  (904) 
nan

>  <ATP_Site>  (904) 
nan

>  <Peripheral>  (904) 
nan

>  <Num_H_Atoms_ProtBoundConf>  (904) 
nan

>  <Num_Resolved_Atoms>  (904) 
nan

>  <Num_Not_Resolved_Atoms>  (904) 
nan

$$$$
CHEMBL3639428
     RDKit          3D

  0  0  0  0  0  0  0  0  0  0999 V3000
M  V30 BEGIN CTAB
M  V30 COUNTS 55 57 0 0 0
M  V30 BEGIN ATOM
M  V30 1 C 1.586419 -1.562832 6.909080 0
M  V30 2 N 0.395281 -2.307711 6.487176 0
M  V30 3 C -0.037048 -2.923084 5.298028 0
M  V30 4 N 0.838835 -2.825156 4.248712 0
M  V30 5 C 0.477819 -3.392159 3.068059 0
M  V30 6 N 1.109434 -3.504086 1.804908 0
M  V30 7 C 1.130778 -2.410083 0.895969 0
M  V30 8 C 0.639285 -1.197720 1.325587 0
M  V30 9 C 0.666616 -0.107537 0.484662 0
M  V30 10 C 1.169733 -0.164052 -0.795562 0
M  V30 11 C 1.227614 0.910312 -1.769302 0
M  V30 12 O 2.105801 0.721782 -2.697122 0
M  V30 13 N 0.474478 2.139887 -1.873898 0
M  V30 14 C -0.562145 2.891822 -1.182315 0
M  V30 15 C -1.809025 3.072934 -2.024044 0
M  V30 16 C -1.638176 2.369002 -3.371664 0
M  V30 17 O -2.735277 2.689336 -4.154520 0
M  V30 18 C -3.495686 1.548732 -4.426012 0
M  V30 19 C -0.382668 2.884512 -4.048290 0
M  V30 20 C 0.769089 2.940303 -3.051952 0
M  V30 21 C 1.636900 -1.411016 -1.136976 0
M  V30 22 C 1.655827 -2.555854 -0.375632 0
M  V30 23 O 2.146101 -3.750283 -0.813032 0
M  V30 24 C 2.693193 -4.020970 -2.061278 0
M  V30 25 N -0.721777 -4.037799 2.942655 0
M  V30 26 C -1.581171 -4.124371 4.004479 0
M  V30 27 C -1.258109 -3.564693 5.217257 0
M  V30 28 C -2.133282 -3.595489 6.425129 0
M  V30 29 F -1.545479 -4.202438 7.483151 0
M  V30 30 F -3.297068 -4.326995 6.141599 0
M  V30 31 F -2.552563 -2.297599 6.658270 0
M  V30 32 H 2.307162 -1.419855 6.066582 0
M  V30 33 H 2.029373 -1.947657 7.830963 0
M  V30 34 H 1.226805 -0.519847 7.163361 0
M  V30 35 H -0.225010 -2.349526 7.320673 0
M  V30 36 H 1.554270 -4.420665 1.568146 0
M  V30 37 H 0.228489 -1.094681 2.323592 0
M  V30 38 H 0.280709 0.812394 0.876512 0
M  V30 39 H -0.883875 2.412903 -0.244282 0
M  V30 40 H -0.126400 3.865342 -0.888375 0
M  V30 41 H -2.005783 4.142689 -2.238550 0
M  V30 42 H -2.699368 2.623679 -1.545195 0
M  V30 43 H -1.609853 1.279938 -3.169581 0
M  V30 44 H -4.360756 1.839944 -5.032532 0
M  V30 45 H -3.902554 1.140227 -3.454187 0
M  V30 46 H -2.920093 0.750622 -4.934579 0
M  V30 47 H -0.608802 3.867576 -4.490821 0
M  V30 48 H -0.129278 2.178328 -4.858858 0
M  V30 49 H 1.714647 2.600835 -3.555171 0
M  V30 50 H 0.968152 3.977543 -2.759281 0
M  V30 51 H 2.063399 -1.560786 -2.139984 0
M  V30 52 H 2.324780 -3.397057 -2.900596 0
M  V30 53 H 3.794422 -3.912651 -2.018323 0
M  V30 54 H 2.499585 -5.079506 -2.415051 0
M  V30 55 H -2.548671 -4.617419 3.989662 0
M  V30 END ATOM
M  V30 BEGIN BOND
M  V30 1 1 1 2
M  V30 2 1 2 3
M  V30 3 2 3 4
M  V30 4 1 4 5
M  V30 5 1 5 6
M  V30 6 1 6 7
M  V30 7 2 7 8
M  V30 8 1 8 9
M  V30 9 2 9 10
M  V30 10 1 10 11
M  V30 11 2 11 12
M  V30 12 1 11 13
M  V30 13 1 13 14
M  V30 14 1 14 15
M  V30 15 1 15 16
M  V30 16 1 16 17
M  V30 17 1 17 18
M  V30 18 1 16 19
M  V30 19 1 19 20
M  V30 20 1 10 21
M  V30 21 2 21 22
M  V30 22 1 22 23
M  V30 23 1 23 24
M  V30 24 2 5 25
M  V30 25 1 25 26
M  V30 26 2 26 27
M  V30 27 1 27 28
M  V30 28 1 28 29
M  V30 29 1 28 30
M  V30 30 1 28 31
M  V30 31 1 27 3
M  V30 32 1 22 7
M  V30 33 1 20 13
M  V30 34 1 1 32
M  V30 35 1 1 33
M  V30 36 1 1 34
M  V30 37 1 2 35
M  V30 38 1 6 36
M  V30 39 1 8 37
M  V30 40 1 9 38
M  V30 41 1 14 39
M  V30 42 1 14 40
M  V30 43 1 15 41
M  V30 44 1 15 42
M  V30 45 1 16 43
M  V30 46 1 18 44
M  V30 47 1 18 45
M  V30 48 1 18 46
M  V30 49 1 19 47
M  V30 50 1 19 48
M  V30 51 1 20 49
M  V30 52 1 20 50
M  V30 53 1 21 51
M  V30 54 1 24 52
M  V30 55 1 24 53
M  V30 56 1 24 54
M  V30 57 1 26 55
M  V30 END BOND
M  V30 END CTAB
M  END
>  <Dataset>  (905) 
ChEMBL_Kinases

>  <Ligand_Instance>  (905) 
nan

>  <PDB_ID>  (905) 
nan

>  <Standardized_SMILES>  (905) 
CNc1nc(Nc2ccc(C(=O)N3CCC(OC)CC3)cc2OC)ncc1C(F)(F)F

>  <Name>  (905) 
nan

>  <Pocket>  (905) 
nan

>  <ATP_Site>  (905) 
nan

>  <Peripheral>  (905) 
nan

>  <Num_H_Atoms_ProtBoundConf>  (905) 
nan

>  <Num_Resolved_Atoms>  (905) 
nan

>  <Num_Not_Resolved_Atoms>  (905) 
nan

$$$$
CHEMBL3639436
     RDKit          3D

  0  0  0  0  0  0  0  0  0  0999 V3000
M  V30 BEGIN CTAB
M  V30 COUNTS 60 64 0 0 0
M  V30 BEGIN ATOM
M  V30 1 C 2.389585 -2.114253 3.020663 0
M  V30 2 C 1.994485 -0.666951 2.581178 0
M  V30 3 C 1.351100 -0.082117 3.823398 0
M  V30 4 N 3.238132 -0.018649 2.259693 0
M  V30 5 C 4.464447 -0.498734 2.613943 0
M  V30 6 N 5.498482 0.259943 2.212219 0
M  V30 7 C 4.926647 1.289354 1.562017 0
M  V30 8 C 5.603275 2.339470 0.964443 0
M  V30 9 N 4.784123 3.258968 0.367198 0
M  V30 10 C 3.468771 3.124390 0.378457 0
M  V30 11 C 2.744724 4.107296 -0.256273 0
M  V30 12 C 1.368813 3.962182 -0.246056 0
M  V30 13 C 0.690686 2.900072 0.358056 0
M  V30 14 C -0.742659 2.901231 0.265098 0
M  V30 15 C -1.943339 2.919632 0.198223 0
M  V30 16 C -3.403056 2.954954 0.134436 0
M  V30 17 N -3.849722 1.868941 -0.685027 0
M  V30 18 C -3.545553 0.615299 -0.259256 0
M  V30 19 O -2.899078 0.295061 0.801694 0
M  V30 20 C -3.527831 -0.792061 -0.319728 0
M  V30 21 C -4.254879 -0.706471 -1.644237 0
M  V30 22 N -4.706315 -1.662980 -2.532788 0
M  V30 23 C -4.476400 -2.966919 -2.198786 0
M  V30 24 N -3.835757 -3.164292 -1.039623 0
M  V30 25 C -3.458818 -4.408431 -0.425256 0
M  V30 26 C -2.127303 -4.908074 -0.796859 0
M  V30 27 C -0.968223 -4.652679 -0.081459 0
M  V30 28 C 0.263682 -5.155872 -0.494244 0
M  V30 29 C 0.396754 -5.927586 -1.625139 0
M  V30 30 F 1.600140 -6.407862 -2.008920 0
M  V30 31 C -0.725856 -6.211548 -2.373225 0
M  V30 32 F -0.672271 -6.965484 -3.503959 0
M  V30 33 C -1.934356 -5.688333 -1.923291 0
M  V30 34 C -3.512344 -2.083513 -0.376549 0
M  V30 35 O -2.884237 -2.073540 0.776210 0
M  V30 36 C 1.465474 1.931142 0.988115 0
M  V30 37 C 2.826526 2.066020 0.982663 0
M  V30 38 C 3.562253 1.093717 1.607794 0
M  V30 39 H 1.508667 -2.752254 3.007406 0
M  V30 40 H 2.899316 -2.072579 4.004344 0
M  V30 41 H 3.161014 -2.414392 2.279656 0
M  V30 42 H 1.322773 -0.874036 1.752296 0
M  V30 43 H 1.148478 0.984213 3.771219 0
M  V30 44 H 0.390207 -0.625369 3.960930 0
M  V30 45 H 1.980219 -0.354930 4.703136 0
M  V30 46 H 4.689849 -1.415212 3.179421 0
M  V30 47 H 6.680902 2.413151 0.976213 0
M  V30 48 H 3.200010 4.937385 -0.732308 0
M  V30 49 H 0.792409 4.740794 -0.747749 0
M  V30 50 H -3.745270 3.930613 -0.261292 0
M  V30 51 H -3.879527 2.852095 1.157080 0
M  V30 52 H -4.370752 1.727175 -1.563487 0
M  V30 53 H -4.692219 0.060996 -2.395270 0
M  V30 54 H -4.668280 -3.943509 -2.615568 0
M  V30 55 H -3.535911 -4.428272 0.674569 0
M  V30 56 H -4.181859 -5.178881 -0.838529 0
M  V30 57 H -1.016369 -4.053475 0.811721 0
M  V30 58 H 1.110957 -4.901150 0.127852 0
M  V30 59 H -2.841295 -5.899606 -2.499303 0
M  V30 60 H 0.833254 1.190953 1.407709 0
M  V30 END ATOM
M  V30 BEGIN BOND
M  V30 1 1 1 2
M  V30 2 1 2 3
M  V30 3 1 2 4
M  V30 4 1 4 5
M  V30 5 2 5 6
M  V30 6 1 6 7
M  V30 7 2 7 8
M  V30 8 1 8 9
M  V30 9 2 9 10
M  V30 10 1 10 11
M  V30 11 2 11 12
M  V30 12 1 12 13
M  V30 13 1 13 14
M  V30 14 3 14 15
M  V30 15 1 15 16
M  V30 16 1 16 17
M  V30 17 1 17 18
M  V30 18 2 18 19
M  V30 19 1 18 20
M  V30 20 2 20 21
M  V30 21 1 21 22
M  V30 22 2 22 23
M  V30 23 1 23 24
M  V30 24 1 24 25
M  V30 25 1 25 26
M  V30 26 2 26 27
M  V30 27 1 27 28
M  V30 28 2 28 29
M  V30 29 1 29 30
M  V30 30 1 29 31
M  V30 31 1 31 32
M  V30 32 2 31 33
M  V30 33 1 24 34
M  V30 34 2 34 35
M  V30 35 2 13 36
M  V30 36 1 36 37
M  V30 37 2 37 38
M  V30 38 1 38 4
M  V30 39 1 38 7
M  V30 40 1 37 10
M  V30 41 1 34 20
M  V30 42 1 33 26
M  V30 43 1 1 39
M  V30 44 1 1 40
M  V30 45 1 1 41
M  V30 46 1 2 42
M  V30 47 1 3 43
M  V30 48 1 3 44
M  V30 49 1 3 45
M  V30 50 1 5 46
M  V30 51 1 8 47
M  V30 52 1 11 48
M  V30 53 1 12 49
M  V30 54 1 16 50
M  V30 55 1 16 51
M  V30 56 1 17 52
M  V30 57 1 21 53
M  V30 58 1 23 54
M  V30 59 1 25 55
M  V30 60 1 25 56
M  V30 61 1 27 57
M  V30 62 1 28 58
M  V30 63 1 33 59
M  V30 64 1 36 60
M  V30 END BOND
M  V30 END CTAB
M  END
>  <Dataset>  (906) 
ChEMBL_Kinases

>  <Ligand_Instance>  (906) 
nan

>  <PDB_ID>  (906) 
nan

>  <Standardized_SMILES>  (906) 
CC(C)n1cnc2cnc3ccc(C#CCNC(=O)c4cncn(Cc5ccc(F)c(F)c5)c4=O)cc3c21

>  <Name>  (906) 
nan

>  <Pocket>  (906) 
nan

>  <ATP_Site>  (906) 
nan

>  <Peripheral>  (906) 
nan

>  <Num_H_Atoms_ProtBoundConf>  (906) 
nan

>  <Num_Resolved_Atoms>  (906) 
nan

>  <Num_Not_Resolved_Atoms>  (906) 
nan

$$$$
CHEMBL3639500
     RDKit          3D

  0  0  0  0  0  0  0  0  0  0999 V3000
M  V30 BEGIN CTAB
M  V30 COUNTS 77 82 0 0 0
M  V30 BEGIN ATOM
M  V30 1 C 0.108781 -3.049286 3.304629 0
M  V30 2 O 0.980934 -2.087069 2.802583 0
M  V30 3 C 1.121718 -0.863336 3.440384 0
M  V30 4 C 0.436423 -0.507813 4.585316 0
M  V30 5 C 0.590004 0.712695 5.214160 0
M  V30 6 C 1.481273 1.604240 4.647394 0
M  V30 7 C 2.156741 1.235813 3.505107 0
M  V30 8 F 3.001235 2.201692 3.048162 0
M  V30 9 C 2.017023 0.006139 2.850026 0
M  V30 10 C 2.820662 -0.139239 1.634876 0
M  V30 11 N 2.167872 0.174217 0.383860 0
M  V30 12 C 0.912709 -0.477154 0.246421 0
M  V30 13 C 0.228419 0.030565 -1.007656 0 CFG=2
M  V30 14 N -1.145984 -0.377232 -1.075852 0
M  V30 15 C -2.135002 0.524811 -1.543067 0
M  V30 16 O -1.792690 1.704728 -1.910050 0
M  V30 17 C -3.570723 0.222420 -1.652347 0
M  V30 18 C -4.372863 1.118238 -2.329200 0
M  V30 19 C -5.742598 0.855285 -2.441236 0
M  V30 20 C -6.314799 -0.289736 -1.885096 0
M  V30 21 N -7.579686 -0.791343 -1.842418 0
M  V30 22 N -7.514085 -1.927407 -1.167163 0
M  V30 23 C -6.283474 -2.206864 -0.762158 0
M  V30 24 C -5.822586 -3.373782 0.012840 0
M  V30 25 C -6.092445 -4.709354 -0.170872 0
M  V30 26 C -5.533385 -5.588688 0.730418 0
M  V30 27 N -4.758595 -5.239872 1.755025 0
M  V30 28 C -4.463053 -3.931906 1.977239 0
M  V30 29 C -3.596089 -3.438862 3.106705 0
M  V30 30 C -5.007425 -3.009527 1.091576 0
M  V30 31 C -5.483800 -1.169699 -1.210555 0
M  V30 32 C -4.133751 -0.907606 -1.102268 0
M  V30 33 C 0.994228 -0.674627 -2.141311 0
M  V30 34 C 2.378673 -0.030466 -2.050526 0
M  V30 35 C 3.027945 -0.178611 -0.728303 0 CFG=1
M  V30 36 C 4.195804 0.789359 -0.744984 0
M  V30 37 O 4.430286 1.804473 -0.004961 0
M  V30 38 N 5.244646 0.600142 -1.721024 0
M  V30 39 C 6.417496 1.433092 -1.858844 0
M  V30 40 C 7.334570 0.962376 -2.999190 0
M  V30 41 C 7.106105 2.046349 -0.702178 0
M  V30 42 C 6.353338 2.913205 -1.724057 0
M  V30 43 H 0.648314 -3.706801 4.044197 0
M  V30 44 H -0.803034 -2.683983 3.775276 0
M  V30 45 H -0.208023 -3.740687 2.489128 0
M  V30 46 H -0.257521 -1.197456 5.033922 0
M  V30 47 H 0.048588 0.974870 6.106199 0
M  V30 48 H 1.594697 2.547213 5.140681 0
M  V30 49 H 3.791008 0.425120 1.727823 0
M  V30 50 H 3.139187 -1.220122 1.595746 0
M  V30 51 H 0.192861 -0.234879 1.062040 0
M  V30 52 H 1.094781 -1.559843 0.145914 0
M  V30 53 H 0.373222 1.114781 -1.103738 0
M  V30 54 H -1.432570 -1.329425 -0.787613 0
M  V30 55 H -3.995035 2.012572 -2.776961 0
M  V30 56 H -6.424381 1.525166 -2.964008 0
M  V30 57 H -8.411855 -0.311407 -2.285458 0
M  V30 58 H -6.720256 -4.894149 -1.020116 0
M  V30 59 H -5.776500 -6.638709 0.539283 0
M  V30 60 H -4.305999 -3.087023 3.894792 0
M  V30 61 H -2.958346 -2.598828 2.770366 0
M  V30 62 H -3.025416 -4.296238 3.484463 0
M  V30 63 H -4.752978 -1.977065 1.308820 0
M  V30 64 H -3.454475 -1.557518 -0.603670 0
M  V30 65 H 0.587842 -0.471005 -3.127414 0
M  V30 66 H 1.089237 -1.711960 -1.830080 0
M  V30 67 H 2.253024 1.039785 -2.313034 0
M  V30 68 H 2.992240 -0.542512 -2.846512 0
M  V30 69 H 3.417560 -1.216632 -0.645448 0
M  V30 70 H 5.075209 -0.236309 -2.358569 0
M  V30 71 H 7.362071 -0.128746 -2.937566 0
M  V30 72 H 6.810759 1.239250 -3.933018 0
M  V30 73 H 8.338987 1.400929 -2.888960 0
M  V30 74 H 6.704869 2.125953 0.304229 0
M  V30 75 H 8.216417 2.053833 -0.723166 0
M  V30 76 H 7.047416 3.548683 -2.328289 0
M  V30 77 H 5.445988 3.449792 -1.404983 0
M  V30 END ATOM
M  V30 BEGIN BOND
M  V30 1 1 1 2
M  V30 2 1 2 3
M  V30 3 2 3 4
M  V30 4 1 4 5
M  V30 5 2 5 6
M  V30 6 1 6 7
M  V30 7 1 7 8
M  V30 8 2 7 9
M  V30 9 1 9 10
M  V30 10 1 10 11
M  V30 11 1 11 12
M  V30 12 1 12 13
M  V30 13 1 13 14
M  V30 14 1 14 15
M  V30 15 2 15 16
M  V30 16 1 15 17
M  V30 17 2 17 18
M  V30 18 1 18 19
M  V30 19 2 19 20
M  V30 20 1 20 21
M  V30 21 1 21 22
M  V30 22 2 22 23
M  V30 23 1 23 24
M  V30 24 2 24 25
M  V30 25 1 25 26
M  V30 26 2 26 27
M  V30 27 1 27 28
M  V30 28 1 28 29
M  V30 29 2 28 30
M  V30 30 1 23 31
M  V30 31 2 31 32
M  V30 32 1 13 33
M  V30 33 1 33 34
M  V30 34 1 34 35
M  V30 35 1 35 36
M  V30 36 2 36 37
M  V30 37 1 36 38
M  V30 38 1 38 39
M  V30 39 1 39 40
M  V30 40 1 39 41
M  V30 41 1 41 42
M  V30 42 1 9 3
M  V30 43 1 35 11
M  V30 44 1 42 39
M  V30 45 1 32 17
M  V30 46 1 31 20
M  V30 47 1 30 24
M  V30 48 1 1 43
M  V30 49 1 1 44
M  V30 50 1 1 45
M  V30 51 1 4 46
M  V30 52 1 5 47
M  V30 53 1 6 48
M  V30 54 1 10 49
M  V30 55 1 10 50
M  V30 56 1 12 51
M  V30 57 1 12 52
M  V30 58 1 13 53 CFG=3
M  V30 59 1 14 54
M  V30 60 1 18 55
M  V30 61 1 19 56
M  V30 62 1 21 57
M  V30 63 1 25 58
M  V30 64 1 26 59
M  V30 65 1 29 60
M  V30 66 1 29 61
M  V30 67 1 29 62
M  V30 68 1 30 63
M  V30 69 1 32 64
M  V30 70 1 33 65
M  V30 71 1 33 66
M  V30 72 1 34 67
M  V30 73 1 34 68
M  V30 74 1 35 69 CFG=1
M  V30 75 1 38 70
M  V30 76 1 40 71
M  V30 77 1 40 72
M  V30 78 1 40 73
M  V30 79 1 41 74
M  V30 80 1 41 75
M  V30 81 1 42 76
M  V30 82 1 42 77
M  V30 END BOND
M  V30 END CTAB
M  END
>  <Dataset>  (907) 
ChEMBL_Kinases

>  <Ligand_Instance>  (907) 
nan

>  <PDB_ID>  (907) 
nan

>  <Standardized_SMILES>  (907) 
COc1cccc(F)c1CN1C[C@H](NC(=O)c2ccc3[nH]nc(-c4ccnc(C)c4)c3c2)CC[C@H]1C(=O)NC1(C)CC1

>  <Name>  (907) 
nan

>  <Pocket>  (907) 
nan

>  <ATP_Site>  (907) 
nan

>  <Peripheral>  (907) 
nan

>  <Num_H_Atoms_ProtBoundConf>  (907) 
nan

>  <Num_Resolved_Atoms>  (907) 
nan

>  <Num_Not_Resolved_Atoms>  (907) 
nan

$$$$
CHEMBL3639506
     RDKit          3D

  0  0  0  0  0  0  0  0  0  0999 V3000
M  V30 BEGIN CTAB
M  V30 COUNTS 45 49 0 0 0
M  V30 BEGIN ATOM
M  V30 1 C -2.525334 -4.908389 1.737133 0
M  V30 2 N -1.453005 -4.624970 0.792478 0
M  V30 3 C -0.646564 -5.545964 0.211085 0
M  V30 4 N 0.227026 -4.890539 -0.606778 0
M  V30 5 C -0.051974 -3.578348 -0.518657 0
M  V30 6 C 0.490727 -2.455437 -1.107829 0
M  V30 7 C 0.052311 -1.143751 -0.883867 0
M  V30 8 C 0.757928 -0.110221 -1.621768 0
M  V30 9 N 0.949505 -0.267789 -2.964256 0
M  V30 10 N 1.609619 0.761200 -3.458730 0
M  V30 11 C 1.892992 1.650985 -2.490727 0
M  V30 12 C 2.533026 2.867808 -2.370431 0
M  V30 13 C 2.591929 3.442326 -1.117271 0
M  V30 14 N 2.061973 2.881866 -0.015293 0
M  V30 15 C 1.433274 1.696338 -0.108233 0
M  V30 16 O 0.906318 1.147667 1.020670 0
M  V30 17 C 0.933075 1.670018 2.304099 0
M  V30 18 C 1.793176 0.839578 3.252228 0
M  V30 19 C 0.965259 -0.278976 3.828005 0
M  V30 20 O -0.009034 0.326656 4.640548 0
M  V30 21 C -0.963638 0.836000 3.753188 0
M  V30 22 C -0.402732 1.949527 2.907024 0
M  V30 23 C 1.357324 1.098156 -1.345463 0
M  V30 24 C -1.000063 -1.027895 -0.002568 0
M  V30 25 C -1.570908 -2.122966 0.607814 0
M  V30 26 C -1.099707 -3.393076 0.351724 0
M  V30 27 H -2.873231 -5.946012 1.636889 0
M  V30 28 H -2.234841 -4.673449 2.781944 0
M  V30 29 H -3.369109 -4.218065 1.484880 0
M  V30 30 H -0.642436 -6.620821 0.329844 0
M  V30 31 H 1.318159 -2.650346 -1.789528 0
M  V30 32 H 1.891099 0.903288 -4.451113 0
M  V30 33 H 2.952931 3.302705 -3.267414 0
M  V30 34 H 3.111515 4.409918 -1.074828 0
M  V30 35 H 1.482148 2.650192 2.234606 0
M  V30 36 H 2.117448 1.521871 4.084191 0
M  V30 37 H 2.710786 0.512589 2.742877 0
M  V30 38 H 0.419654 -0.782813 3.016500 0
M  V30 39 H 1.584089 -0.995531 4.376696 0
M  V30 40 H -1.491374 0.055455 3.187559 0
M  V30 41 H -1.743830 1.291646 4.423415 0
M  V30 42 H -1.172036 2.203661 2.169221 0
M  V30 43 H -0.324653 2.831851 3.587783 0
M  V30 44 H -1.352404 -0.027091 0.168329 0
M  V30 45 H -2.387588 -1.961858 1.284167 0
M  V30 END ATOM
M  V30 BEGIN BOND
M  V30 1 1 1 2
M  V30 2 1 2 3
M  V30 3 2 3 4
M  V30 4 1 4 5
M  V30 5 2 5 6
M  V30 6 1 6 7
M  V30 7 1 7 8
M  V30 8 2 8 9
M  V30 9 1 9 10
M  V30 10 1 10 11
M  V30 11 2 11 12
M  V30 12 1 12 13
M  V30 13 2 13 14
M  V30 14 1 14 15
M  V30 15 1 15 16
M  V30 16 1 16 17
M  V30 17 1 17 18
M  V30 18 1 18 19
M  V30 19 1 19 20
M  V30 20 1 20 21
M  V30 21 1 21 22
M  V30 22 2 15 23
M  V30 23 2 7 24
M  V30 24 1 24 25
M  V30 25 2 25 26
M  V30 26 1 26 2
M  V30 27 1 26 5
M  V30 28 1 23 8
M  V30 29 1 23 11
M  V30 30 1 22 17
M  V30 31 1 1 27
M  V30 32 1 1 28
M  V30 33 1 1 29
M  V30 34 1 3 30
M  V30 35 1 6 31
M  V30 36 1 10 32
M  V30 37 1 12 33
M  V30 38 1 13 34
M  V30 39 1 17 35
M  V30 40 1 18 36
M  V30 41 1 18 37
M  V30 42 1 19 38
M  V30 43 1 19 39
M  V30 44 1 21 40
M  V30 45 1 21 41
M  V30 46 1 22 42
M  V30 47 1 22 43
M  V30 48 1 24 44
M  V30 49 1 25 45
M  V30 END BOND
M  V30 END CTAB
M  END
>  <Dataset>  (908) 
ChEMBL_Kinases

>  <Ligand_Instance>  (908) 
nan

>  <PDB_ID>  (908) 
nan

>  <Standardized_SMILES>  (908) 
Cn1cnc2cc(-c3n[nH]c4ccnc(OC5CCOCC5)c34)ccc21

>  <Name>  (908) 
nan

>  <Pocket>  (908) 
nan

>  <ATP_Site>  (908) 
nan

>  <Peripheral>  (908) 
nan

>  <Num_H_Atoms_ProtBoundConf>  (908) 
nan

>  <Num_Resolved_Atoms>  (908) 
nan

>  <Num_Not_Resolved_Atoms>  (908) 
nan

$$$$
CHEMBL3639514
     RDKit          3D

  0  0  0  0  0  0  0  0  0  0999 V3000
M  V30 BEGIN CTAB
M  V30 COUNTS 56 60 0 0 0
M  V30 BEGIN ATOM
M  V30 1 C 1.408023 -1.681778 5.640185 0
M  V30 2 N 2.306709 -1.615887 4.475075 0
M  V30 3 C 2.409781 -0.375426 3.902991 0
M  V30 4 C 3.220775 -0.404960 2.746404 0
M  V30 5 C 3.596834 0.328811 1.478253 0
M  V30 6 C 4.899761 0.411850 1.016434 0
M  V30 7 N 4.936507 0.727324 -0.296555 0
M  V30 8 C 3.881694 0.931368 -1.053085 0
M  V30 9 N 3.657783 1.126578 -2.335340 0
M  V30 10 C 2.439929 1.205890 -2.758992 0
M  V30 11 C 1.736054 0.997812 -1.525098 0
M  V30 12 C 0.278879 0.868496 -1.616044 0
M  V30 13 C -0.501299 0.023819 -0.817365 0
M  V30 14 C -1.845231 -0.290368 -0.860884 0
M  V30 15 N -2.379289 -1.136672 0.248946 0
M  V30 16 C -3.415693 -0.307814 0.754900 0
M  V30 17 C -4.787280 -0.406774 0.227706 0
M  V30 18 C -5.062937 -0.139360 -1.195369 0
M  V30 19 O -5.409629 1.012182 -1.550260 0
M  V30 20 O -5.032388 -1.063798 -2.165446 0
M  V30 21 C -1.949731 -2.418659 0.608596 0
M  V30 22 C -0.801905 -2.128843 1.286865 0
M  V30 23 C 0.067672 -3.145681 1.571634 0
M  V30 24 C -0.335784 -4.433700 1.109308 0
M  V30 25 C -1.545397 -4.612286 0.406506 0
M  V30 26 C -2.411795 -3.544777 0.142034 0
M  V30 27 Cl -3.942224 -3.698752 -0.607159 0
M  V30 28 N -2.361717 0.378441 -1.887482 0
M  V30 29 C -1.776501 1.213309 -2.730789 0
M  V30 30 N -2.603819 1.740462 -3.723599 0
M  V30 31 N -0.489942 1.396336 -2.515141 0
M  V30 32 C 2.653041 0.868251 -0.517485 0
M  V30 33 C 2.382117 0.566528 0.809131 0
M  V30 34 C 3.639869 -1.811111 2.659526 0
M  V30 35 N 2.962948 -1.994924 3.671292 0
M  V30 36 H 0.377631 -1.389520 5.143536 0
M  V30 37 H 1.311122 -2.754667 5.926230 0
M  V30 38 H 1.636544 -0.972423 6.394894 0
M  V30 39 H 2.039929 0.697996 4.013340 0
M  V30 40 H 5.717527 0.190062 1.680495 0
M  V30 41 H 4.478705 1.200363 -3.029855 0
M  V30 42 H 1.973001 1.309680 -3.718707 0
M  V30 43 H 0.168477 -0.501103 -0.108464 0
M  V30 44 H -3.609043 -0.750849 1.858473 0
M  V30 45 H -3.043274 0.696763 1.019760 0
M  V30 46 H -5.389467 -1.259044 0.590826 0
M  V30 47 H -5.334616 0.477361 0.836935 0
M  V30 48 H -4.700741 -0.975409 -3.082754 0
M  V30 49 H -0.432913 -1.227539 1.723589 0
M  V30 50 H 0.989163 -3.175891 2.129710 0
M  V30 51 H 0.276516 -5.332794 1.263676 0
M  V30 52 H -1.842145 -5.607058 0.030479 0
M  V30 53 H -3.304895 2.453448 -3.752312 0
M  V30 54 H -2.213722 1.339144 -4.656506 0
M  V30 55 H 1.437511 0.567443 1.265178 0
M  V30 56 H 4.262379 -2.377715 1.994628 0
M  V30 END ATOM
M  V30 BEGIN BOND
M  V30 1 1 1 2
M  V30 2 1 2 3
M  V30 3 2 3 4
M  V30 4 1 4 5
M  V30 5 2 5 6
M  V30 6 1 6 7
M  V30 7 2 7 8
M  V30 8 1 8 9
M  V30 9 1 9 10
M  V30 10 2 10 11
M  V30 11 1 11 12
M  V30 12 2 12 13
M  V30 13 1 13 14
M  V30 14 1 14 15
M  V30 15 1 15 16
M  V30 16 1 16 17
M  V30 17 1 17 18
M  V30 18 2 18 19
M  V30 19 1 18 20
M  V30 20 1 15 21
M  V30 21 2 21 22
M  V30 22 1 22 23
M  V30 23 2 23 24
M  V30 24 1 24 25
M  V30 25 2 25 26
M  V30 26 1 26 27
M  V30 27 2 14 28
M  V30 28 1 28 29
M  V30 29 1 29 30
M  V30 30 2 29 31
M  V30 31 1 11 32
M  V30 32 2 32 33
M  V30 33 1 4 34
M  V30 34 2 34 35
M  V30 35 1 35 2
M  V30 36 1 33 5
M  V30 37 1 32 8
M  V30 38 1 31 12
M  V30 39 1 26 21
M  V30 40 1 1 36
M  V30 41 1 1 37
M  V30 42 1 1 38
M  V30 43 1 3 39
M  V30 44 1 6 40
M  V30 45 1 9 41
M  V30 46 1 10 42
M  V30 47 1 13 43
M  V30 48 1 16 44
M  V30 49 1 16 45
M  V30 50 1 17 46
M  V30 51 1 17 47
M  V30 52 1 20 48
M  V30 53 1 22 49
M  V30 54 1 23 50
M  V30 55 1 24 51
M  V30 56 1 25 52
M  V30 57 1 30 53
M  V30 58 1 30 54
M  V30 59 1 33 55
M  V30 60 1 34 56
M  V30 END BOND
M  V30 END CTAB
M  END
>  <Dataset>  (909) 
ChEMBL_Kinases

>  <Ligand_Instance>  (909) 
nan

>  <PDB_ID>  (909) 
nan

>  <Standardized_SMILES>  (909) 
Cn1cc(-c2cnc3[nH]cc(-c4cc(N(CCC(=O)O)c5ccccc5Cl)nc(N)n4)c3c2)cn1

>  <Name>  (909) 
nan

>  <Pocket>  (909) 
nan

>  <ATP_Site>  (909) 
nan

>  <Peripheral>  (909) 
nan

>  <Num_H_Atoms_ProtBoundConf>  (909) 
nan

>  <Num_Resolved_Atoms>  (909) 
nan

>  <Num_Not_Resolved_Atoms>  (909) 
nan

$$$$
CHEMBL3639533
     RDKit          3D

  0  0  0  0  0  0  0  0  0  0999 V3000
M  V30 BEGIN CTAB
M  V30 COUNTS 66 70 0 0 0
M  V30 BEGIN ATOM
M  V30 1 C 2.046119 -0.540225 6.695538 0
M  V30 2 C 1.710016 -0.921325 5.269811 0
M  V30 3 C 1.602110 -2.432120 5.209327 0
M  V30 4 O 2.681478 -0.420612 4.406297 0
M  V30 5 C 2.410574 0.439541 3.359899 0
M  V30 6 C 1.259535 1.019349 2.873681 0
M  V30 7 C 1.306200 1.856676 1.784563 0
M  V30 8 C 2.488256 2.152777 1.135405 0
M  V30 9 C 2.520767 3.032774 -0.008852 0
M  V30 10 N 3.405507 4.034285 -0.221521 0
M  V30 11 N 3.133040 4.639150 -1.389222 0
M  V30 12 C 2.066822 4.061466 -1.982836 0
M  V30 13 C 1.379709 4.278191 -3.161838 0
M  V30 14 C 0.281028 3.478393 -3.498564 0
M  V30 15 C -0.113531 2.468059 -2.642641 0
M  V30 16 C -1.262614 1.653253 -3.024225 0
M  V30 17 O -1.816552 1.936634 -4.116364 0
M  V30 18 N -1.739325 0.594517 -2.214517 0
M  V30 19 C -2.831710 -0.307918 -2.405327 0
M  V30 20 C -3.879562 -0.255484 -1.341920 0
M  V30 21 C -3.327595 -0.646843 -0.010350 0
M  V30 22 C -2.321377 -1.754693 -0.043047 0
M  V30 23 N -2.103638 -2.374157 -1.267139 0
M  V30 24 C -0.998337 -3.284212 -1.300165 0
M  V30 25 C -1.075220 -4.447010 -0.422162 0
M  V30 26 C -1.501949 -5.660875 -0.982869 0
M  V30 27 C -1.660171 -6.858013 -0.329284 0
M  V30 28 C -1.373201 -6.882844 1.017881 0
M  V30 29 C -0.947250 -5.730780 1.644423 0
M  V30 30 C -0.815156 -4.578857 0.921141 0
M  V30 31 F -0.377129 -3.493888 1.571569 0
M  V30 32 C -2.347757 -1.715413 -2.481561 0
M  V30 33 C 0.601950 2.288019 -1.476653 0
M  V30 34 C 1.689915 3.057734 -1.113042 0
M  V30 35 C 3.626161 1.556301 1.646112 0
M  V30 36 N 3.576426 0.726892 2.725716 0
M  V30 37 H 2.694185 -1.300908 7.160356 0
M  V30 38 H 1.092255 -0.450092 7.271534 0
M  V30 39 H 2.527118 0.445865 6.670726 0
M  V30 40 H 0.729385 -0.530302 4.987348 0
M  V30 41 H 2.593353 -2.818619 5.523568 0
M  V30 42 H 1.327994 -2.699846 4.172660 0
M  V30 43 H 0.792500 -2.731563 5.890930 0
M  V30 44 H 0.398147 0.722021 3.451660 0
M  V30 45 H 0.357537 2.266464 1.473237 0
M  V30 46 H 3.675360 5.450266 -1.785664 0
M  V30 47 H 1.708392 5.083678 -3.826669 0
M  V30 48 H -0.201254 3.713425 -4.438002 0
M  V30 49 H -1.283289 0.355165 -1.307187 0
M  V30 50 H -3.381702 -0.107226 -3.374174 0
M  V30 51 H -4.648525 -1.026199 -1.627384 0
M  V30 52 H -4.421447 0.686465 -1.278010 0
M  V30 53 H -4.194729 -0.876375 0.642542 0
M  V30 54 H -2.870465 0.263891 0.425883 0
M  V30 55 H -1.356949 -1.364905 0.353510 0
M  V30 56 H -2.677903 -2.511734 0.686508 0
M  V30 57 H -0.909273 -3.644759 -2.370268 0
M  V30 58 H -0.019123 -2.770371 -1.116878 0
M  V30 59 H -1.740931 -5.684512 -2.052664 0
M  V30 60 H -1.990810 -7.735146 -0.837351 0
M  V30 61 H -1.471210 -7.777622 1.601388 0
M  V30 62 H -0.725041 -5.753506 2.691949 0
M  V30 63 H -3.127617 -2.314068 -3.038500 0
M  V30 64 H -1.468077 -1.741900 -3.184938 0
M  V30 65 H 0.311282 1.506194 -0.796874 0
M  V30 66 H 4.544081 1.803178 1.120739 0
M  V30 END ATOM
M  V30 BEGIN BOND
M  V30 1 1 1 2
M  V30 2 1 2 3
M  V30 3 1 2 4
M  V30 4 1 4 5
M  V30 5 2 5 6
M  V30 6 1 6 7
M  V30 7 2 7 8
M  V30 8 1 8 9
M  V30 9 2 9 10
M  V30 10 1 10 11
M  V30 11 1 11 12
M  V30 12 2 12 13
M  V30 13 1 13 14
M  V30 14 2 14 15
M  V30 15 1 15 16
M  V30 16 2 16 17
M  V30 17 1 16 18
M  V30 18 1 18 19
M  V30 19 1 19 20
M  V30 20 1 20 21
M  V30 21 1 21 22
M  V30 22 1 22 23
M  V30 23 1 23 24
M  V30 24 1 24 25
M  V30 25 2 25 26
M  V30 26 1 26 27
M  V30 27 2 27 28
M  V30 28 1 28 29
M  V30 29 2 29 30
M  V30 30 1 30 31
M  V30 31 1 23 32
M  V30 32 1 15 33
M  V30 33 2 33 34
M  V30 34 1 8 35
M  V30 35 2 35 36
M  V30 36 1 36 5
M  V30 37 1 34 9
M  V30 38 1 34 12
M  V30 39 1 32 19
M  V30 40 1 30 25
M  V30 41 1 1 37
M  V30 42 1 1 38
M  V30 43 1 1 39
M  V30 44 1 2 40
M  V30 45 1 3 41
M  V30 46 1 3 42
M  V30 47 1 3 43
M  V30 48 1 6 44
M  V30 49 1 7 45
M  V30 50 1 11 46
M  V30 51 1 13 47
M  V30 52 1 14 48
M  V30 53 1 18 49
M  V30 54 1 19 50
M  V30 55 1 20 51
M  V30 56 1 20 52
M  V30 57 1 21 53
M  V30 58 1 21 54
M  V30 59 1 22 55
M  V30 60 1 22 56
M  V30 61 1 24 57
M  V30 62 1 24 58
M  V30 63 1 26 59
M  V30 64 1 27 60
M  V30 65 1 28 61
M  V30 66 1 29 62
M  V30 67 1 32 63
M  V30 68 1 32 64
M  V30 69 1 33 65
M  V30 70 1 35 66
M  V30 END BOND
M  V30 END CTAB
M  END
>  <Dataset>  (910) 
ChEMBL_Kinases

>  <Ligand_Instance>  (910) 
nan

>  <PDB_ID>  (910) 
nan

>  <Standardized_SMILES>  (910) 
CC(C)Oc1ccc(-c2n[nH]c3ccc(C(=O)NC4CCCN(Cc5ccccc5F)C4)cc23)cn1

>  <Name>  (910) 
nan

>  <Pocket>  (910) 
nan

>  <ATP_Site>  (910) 
nan

>  <Peripheral>  (910) 
nan

>  <Num_H_Atoms_ProtBoundConf>  (910) 
nan

>  <Num_Resolved_Atoms>  (910) 
nan

>  <Num_Not_Resolved_Atoms>  (910) 
nan

$$$$
CHEMBL3639534
     RDKit          3D

  0  0  0  0  0  0  0  0  0  0999 V3000
M  V30 BEGIN CTAB
M  V30 COUNTS 86 91 0 0 0
M  V30 BEGIN ATOM
M  V30 1 C 1.335037 -6.475509 -3.201561 0
M  V30 2 O 1.576163 -5.108491 -2.988678 0
M  V30 3 C 2.001109 -4.676916 -1.738313 0
M  V30 4 C 2.192959 -5.577593 -0.700524 0
M  V30 5 C 2.619764 -5.133310 0.542738 0
M  V30 6 C 2.858613 -3.816014 0.773410 0
M  V30 7 C 2.670318 -2.913592 -0.251887 0
M  V30 8 F 2.900411 -1.596355 -0.053181 0
M  V30 9 C 2.240762 -3.311106 -1.523650 0
M  V30 10 C 2.051033 -2.279183 -2.562151 0
M  V30 11 N 0.712395 -1.908504 -2.695306 0
M  V30 12 C 0.391984 -1.022130 -3.756996 0
M  V30 13 C -1.109357 -0.720293 -3.761866 0
M  V30 14 C -1.601496 -0.580623 -2.329925 0
M  V30 15 O -2.971225 -0.329470 -2.398012 0
M  V30 16 Si -3.349107 1.283807 -1.965913 0 VAL=4
M  V30 17 C -2.067225 1.987197 -0.806095 0
M  V30 18 C -3.331215 2.392085 -3.493714 0
M  V30 19 C -5.013391 1.434427 -1.187788 0
M  V30 20 C -4.926458 2.279715 0.072629 0
M  V30 21 C -6.021565 2.117434 -2.089992 0
M  V30 22 C -5.597202 0.103041 -0.758278 0
M  V30 23 C -1.321119 -1.776080 -1.483129 0
M  V30 24 N -0.610618 -1.351323 -0.294422 0
M  V30 25 C -1.103657 -1.762653 0.976132 0
M  V30 26 O -2.139862 -2.477710 0.938308 0
M  V30 27 C -0.544123 -1.448296 2.285221 0
M  V30 28 C -1.192235 -2.019190 3.360661 0
M  V30 29 C -0.764713 -1.801292 4.667823 0
M  V30 30 C 0.336709 -0.992742 4.896219 0
M  V30 31 N 0.940527 -0.626451 6.016134 0
M  V30 32 N 1.941974 0.150460 5.710000 0
M  V30 33 C 1.983568 0.287498 4.359816 0
M  V30 34 C 2.979127 1.094801 3.658933 0
M  V30 35 C 3.707719 0.777566 2.537527 0
M  V30 36 C 4.613376 1.690966 2.022641 0
M  V30 37 C 4.778777 2.916798 2.640736 0
M  V30 38 N 5.621035 3.895124 2.249015 0
M  V30 39 C 5.440529 4.901100 3.150646 0
M  V30 40 C 4.481203 4.486813 4.067523 0
M  V30 41 N 4.071560 3.247936 3.744845 0
M  V30 42 C 3.196296 2.353741 4.234486 0
M  V30 43 C 0.940691 -0.451943 3.788705 0
M  V30 44 C 0.542404 -0.647316 2.471451 0
M  V30 45 C -0.350407 -2.685983 -2.248818 0
M  V30 46 H 2.301596 -7.019039 -3.199522 0
M  V30 47 H 0.716707 -6.915716 -2.366496 0
M  V30 48 H 0.797448 -6.656260 -4.155296 0
M  V30 49 H 2.019742 -6.636704 -0.821590 0
M  V30 50 H 2.779546 -5.818972 1.380683 0
M  V30 51 H 3.191695 -3.411215 1.717640 0
M  V30 52 H 2.452763 -2.711283 -3.518483 0
M  V30 53 H 2.737005 -1.415039 -2.309732 0
M  V30 54 H 0.901062 -0.035894 -3.550597 0
M  V30 55 H 0.680970 -1.335355 -4.759326 0
M  V30 56 H -1.678043 -1.443364 -4.349653 0
M  V30 57 H -1.219939 0.270892 -4.244754 0
M  V30 58 H -1.142448 0.369454 -1.967635 0
M  V30 59 H -1.158820 2.311668 -1.339218 0
M  V30 60 H -1.871369 1.316402 0.059743 0
M  V30 61 H -2.510557 2.917142 -0.377319 0
M  V30 62 H -3.772651 3.356725 -3.170856 0
M  V30 63 H -3.982054 1.988732 -4.282144 0
M  V30 64 H -2.298144 2.608728 -3.811504 0
M  V30 65 H -4.016926 1.993157 0.640686 0
M  V30 66 H -4.779322 3.334850 -0.239705 0
M  V30 67 H -5.849864 2.199813 0.681751 0
M  V30 68 H -5.640429 2.266739 -3.119385 0
M  V30 69 H -6.318837 3.132691 -1.712653 0
M  V30 70 H -6.966227 1.534228 -2.148813 0
M  V30 71 H -6.619015 0.333336 -0.381497 0
M  V30 72 H -5.586492 -0.660630 -1.541380 0
M  V30 73 H -5.021320 -0.189398 0.161061 0
M  V30 74 H -2.241650 -2.349078 -1.224150 0
M  V30 75 H 0.242900 -0.761658 -0.285603 0
M  V30 76 H -2.058917 -2.666457 3.311069 0
M  V30 77 H -1.264615 -2.243887 5.530995 0
M  V30 78 H 0.685779 -0.895006 6.989166 0
M  V30 79 H 3.458847 -0.211328 2.184867 0
M  V30 80 H 5.139228 1.358344 1.143933 0
M  V30 81 H 5.919768 5.886721 3.216104 0
M  V30 82 H 4.065585 4.993635 4.925660 0
M  V30 83 H 2.661175 2.682625 5.121853 0
M  V30 84 H 1.063722 -0.191224 1.643804 0
M  V30 85 H -0.099353 -3.542032 -1.581590 0
M  V30 86 H -0.942133 -3.184781 -3.078139 0
M  V30 END ATOM
M  V30 BEGIN BOND
M  V30 1 1 1 2
M  V30 2 1 2 3
M  V30 3 2 3 4
M  V30 4 1 4 5
M  V30 5 2 5 6
M  V30 6 1 6 7
M  V30 7 1 7 8
M  V30 8 2 7 9
M  V30 9 1 9 10
M  V30 10 1 10 11
M  V30 11 1 11 12
M  V30 12 1 12 13
M  V30 13 1 13 14
M  V30 14 1 14 15
M  V30 15 1 15 16
M  V30 16 1 16 17
M  V30 17 1 16 18
M  V30 18 1 16 19
M  V30 19 1 19 20
M  V30 20 1 19 21
M  V30 21 1 19 22
M  V30 22 1 14 23
M  V30 23 1 23 24
M  V30 24 1 24 25
M  V30 25 2 25 26
M  V30 26 1 25 27
M  V30 27 2 27 28
M  V30 28 1 28 29
M  V30 29 2 29 30
M  V30 30 1 30 31
M  V30 31 1 31 32
M  V30 32 2 32 33
M  V30 33 1 33 34
M  V30 34 1 34 35
M  V30 35 2 35 36
M  V30 36 1 36 37
M  V30 37 2 37 38
M  V30 38 1 38 39
M  V30 39 2 39 40
M  V30 40 1 40 41
M  V30 41 1 41 42
M  V30 42 1 33 43
M  V30 43 2 43 44
M  V30 44 1 23 45
M  V30 45 1 9 3
M  V30 46 1 45 11
M  V30 47 1 44 27
M  V30 48 1 43 30
M  V30 49 2 42 34
M  V30 50 1 41 37
M  V30 51 1 1 46
M  V30 52 1 1 47
M  V30 53 1 1 48
M  V30 54 1 4 49
M  V30 55 1 5 50
M  V30 56 1 6 51
M  V30 57 1 10 52
M  V30 58 1 10 53
M  V30 59 1 12 54
M  V30 60 1 12 55
M  V30 61 1 13 56
M  V30 62 1 13 57
M  V30 63 1 14 58
M  V30 64 1 17 59
M  V30 65 1 17 60
M  V30 66 1 17 61
M  V30 67 1 18 62
M  V30 68 1 18 63
M  V30 69 1 18 64
M  V30 70 1 20 65
M  V30 71 1 20 66
M  V30 72 1 20 67
M  V30 73 1 21 68
M  V30 74 1 21 69
M  V30 75 1 21 70
M  V30 76 1 22 71
M  V30 77 1 22 72
M  V30 78 1 22 73
M  V30 79 1 23 74
M  V30 80 1 24 75
M  V30 81 1 28 76
M  V30 82 1 29 77
M  V30 83 1 31 78
M  V30 84 1 35 79
M  V30 85 1 36 80
M  V30 86 1 39 81
M  V30 87 1 40 82
M  V30 88 1 42 83
M  V30 89 1 44 84
M  V30 90 1 45 85
M  V30 91 1 45 86
M  V30 END BOND
M  V30 END CTAB
M  END
>  <Dataset>  (911) 
ChEMBL_Kinases

>  <Ligand_Instance>  (911) 
nan

>  <PDB_ID>  (911) 
nan

>  <Standardized_SMILES>  (911) 
COc1cccc(F)c1CN1CCC(O[Si](C)(C)C(C)(C)C)C(NC(=O)c2ccc3[nH]nc(-c4ccc5nccn5c4)c3c2)C1

>  <Name>  (911) 
nan

>  <Pocket>  (911) 
nan

>  <ATP_Site>  (911) 
nan

>  <Peripheral>  (911) 
nan

>  <Num_H_Atoms_ProtBoundConf>  (911) 
nan

>  <Num_Resolved_Atoms>  (911) 
nan

>  <Num_Not_Resolved_Atoms>  (911) 
nan

$$$$
CHEMBL3639407
     RDKit          3D

  0  0  0  0  0  0  0  0  0  0999 V3000
M  V30 BEGIN CTAB
M  V30 COUNTS 48 50 0 0 0
M  V30 BEGIN ATOM
M  V30 1 C 1.179005 -3.517091 3.173495 0
M  V30 2 O -0.018596 -3.115256 2.539565 0
M  V30 3 C -0.164968 -1.887179 1.909976 0
M  V30 4 C 0.909224 -1.034349 1.910535 0
M  V30 5 C 0.836818 0.201374 1.304854 0
M  V30 6 C 1.992838 1.121323 1.304392 0
M  V30 7 C 2.846975 0.877546 0.095201 0
M  V30 8 O 2.809485 0.092662 -0.892820 0
M  V30 9 N 3.989449 1.723308 0.011156 0
M  V30 10 C 4.962874 1.662835 -1.082234 0
M  V30 11 C 4.781137 2.919200 -1.869288 0
M  V30 12 O 4.148505 3.937344 -1.173597 0
M  V30 13 C 4.500080 4.042126 0.148720 0
M  V30 14 C 4.417471 2.773088 0.938332 0
M  V30 15 C -0.345992 0.561006 0.696088 0
M  V30 16 C -1.391993 -0.334892 0.726232 0
M  V30 17 C -1.378273 -1.574845 1.311996 0
M  V30 18 N -2.459080 -2.488354 1.337467 0
M  V30 19 C -3.752006 -2.327681 0.780572 0
M  V30 20 N -4.209137 -1.263643 0.111654 0
M  V30 21 C -5.432470 -1.130959 -0.406370 0
M  V30 22 C -6.304910 -2.174680 -0.242422 0
M  V30 23 Br -8.062238 -2.044255 -0.958396 0
M  V30 24 C -5.890202 -3.294428 0.436800 0
M  V30 25 O -6.743799 -4.383318 0.628972 0
M  V30 26 C -6.277507 -5.526202 1.338302 0
M  V30 27 N -4.641385 -3.314847 0.911720 0
M  V30 28 H 2.051608 -3.337316 2.509219 0
M  V30 29 H 1.141806 -4.610762 3.365294 0
M  V30 30 H 1.257550 -3.001086 4.151409 0
M  V30 31 H 1.834420 -1.313727 2.385891 0
M  V30 32 H 1.668741 2.191217 1.329817 0
M  V30 33 H 2.559604 0.963061 2.243987 0
M  V30 34 H 5.983587 1.548136 -0.664029 0
M  V30 35 H 4.739438 0.792397 -1.722017 0
M  V30 36 H 5.769741 3.257292 -2.286791 0
M  V30 37 H 4.134919 2.700616 -2.744026 0
M  V30 38 H 3.743269 4.735893 0.614877 0
M  V30 39 H 5.474483 4.585217 0.310256 0
M  V30 40 H 5.459175 2.526155 1.269494 0
M  V30 41 H 3.786205 2.819681 1.834351 0
M  V30 42 H -0.410980 1.526278 0.219854 0
M  V30 43 H -2.275554 0.017143 0.232405 0
M  V30 44 H -2.261572 -3.398197 1.837349 0
M  V30 45 H -5.741210 -0.247179 -0.935576 0
M  V30 46 H -7.131826 -6.114765 1.715950 0
M  V30 47 H -5.651027 -5.124026 2.175299 0
M  V30 48 H -5.689656 -6.183074 0.660811 0
M  V30 END ATOM
M  V30 BEGIN BOND
M  V30 1 1 1 2
M  V30 2 1 2 3
M  V30 3 2 3 4
M  V30 4 1 4 5
M  V30 5 1 5 6
M  V30 6 1 6 7
M  V30 7 2 7 8
M  V30 8 1 7 9
M  V30 9 1 9 10
M  V30 10 1 10 11
M  V30 11 1 11 12
M  V30 12 1 12 13
M  V30 13 1 13 14
M  V30 14 2 5 15
M  V30 15 1 15 16
M  V30 16 2 16 17
M  V30 17 1 17 18
M  V30 18 1 18 19
M  V30 19 2 19 20
M  V30 20 1 20 21
M  V30 21 2 21 22
M  V30 22 1 22 23
M  V30 23 1 22 24
M  V30 24 1 24 25
M  V30 25 1 25 26
M  V30 26 2 24 27
M  V30 27 1 17 3
M  V30 28 1 27 19
M  V30 29 1 14 9
M  V30 30 1 1 28
M  V30 31 1 1 29
M  V30 32 1 1 30
M  V30 33 1 4 31
M  V30 34 1 6 32
M  V30 35 1 6 33
M  V30 36 1 10 34
M  V30 37 1 10 35
M  V30 38 1 11 36
M  V30 39 1 11 37
M  V30 40 1 13 38
M  V30 41 1 13 39
M  V30 42 1 14 40
M  V30 43 1 14 41
M  V30 44 1 15 42
M  V30 45 1 16 43
M  V30 46 1 18 44
M  V30 47 1 21 45
M  V30 48 1 26 46
M  V30 49 1 26 47
M  V30 50 1 26 48
M  V30 END BOND
M  V30 END CTAB
M  END
>  <Dataset>  (912) 
ChEMBL_Kinases

>  <Ligand_Instance>  (912) 
nan

>  <PDB_ID>  (912) 
nan

>  <Standardized_SMILES>  (912) 
COc1cc(CC(=O)N2CCOCC2)ccc1Nc1ncc(Br)c(OC)n1

>  <Name>  (912) 
nan

>  <Pocket>  (912) 
nan

>  <ATP_Site>  (912) 
nan

>  <Peripheral>  (912) 
nan

>  <Num_H_Atoms_ProtBoundConf>  (912) 
nan

>  <Num_Resolved_Atoms>  (912) 
nan

>  <Num_Not_Resolved_Atoms>  (912) 
nan

$$$$
CHEMBL3590115
     RDKit          3D

  0  0  0  0  0  0  0  0  0  0999 V3000
M  V30 BEGIN CTAB
M  V30 COUNTS 46 48 0 0 0
M  V30 BEGIN ATOM
M  V30 1 C 3.282437 -5.373601 1.596981 0
M  V30 2 N 1.986663 -5.370774 0.912651 0
M  V30 3 C 1.571506 -4.068712 0.528010 0
M  V30 4 O 2.432840 -3.223973 0.875288 0
M  V30 5 C 0.319066 -3.844705 -0.161555 0
M  V30 6 C -0.492609 -4.915864 -0.454072 0
M  V30 7 C -1.693293 -4.722995 -1.112487 0
M  V30 8 C -2.088395 -3.434212 -1.484512 0
M  V30 9 C -1.277369 -2.346545 -1.194191 0
M  V30 10 C -0.094761 -2.589947 -0.539366 0
M  V30 11 N 0.691022 -1.434816 -0.284863 0
M  V30 12 C 0.327403 -0.133052 -0.711624 0
M  V30 13 C 0.050682 0.960166 0.073678 0
M  V30 14 C -0.283971 2.221131 -0.364281 0
M  V30 15 N -0.549250 3.289483 0.498189 0
M  V30 16 C -0.525318 3.334394 1.915941 0
M  V30 17 C -1.403771 2.369301 2.642565 0
M  V30 18 C -0.602102 1.797036 3.794830 0
M  V30 19 O -0.048090 2.834675 4.521931 0
M  V30 20 C 0.962650 3.502020 3.881536 0
M  V30 21 C 0.915540 3.328173 2.379600 0
M  V30 22 N -0.318851 2.294711 -1.705229 0
M  V30 23 C -0.062658 1.278689 -2.542686 0
M  V30 24 C 0.269574 0.029085 -2.100139 0
M  V30 25 Cl 0.590237 -1.165042 -3.337785 0
M  V30 26 H 3.383085 -6.374961 2.066621 0
M  V30 27 H 4.107880 -5.166503 0.892290 0
M  V30 28 H 3.236177 -4.632750 2.419709 0
M  V30 29 H 1.453124 -6.229947 0.740227 0
M  V30 30 H -0.287198 -5.948830 -0.214451 0
M  V30 31 H -2.354085 -5.568286 -1.354204 0
M  V30 32 H -3.040649 -3.365428 -1.996043 0
M  V30 33 H -1.715460 -1.440492 -1.530042 0
M  V30 34 H 1.584062 -1.189757 0.183202 0
M  V30 35 H 0.125348 0.706597 1.118955 0
M  V30 36 H -0.800613 4.175869 -0.044066 0
M  V30 37 H -0.903557 4.364774 2.217911 0
M  V30 38 H -2.274423 2.887738 3.148086 0
M  V30 39 H -1.883606 1.595723 2.029805 0
M  V30 40 H 0.155822 1.068192 3.481851 0
M  V30 41 H -1.353680 1.321061 4.483346 0
M  V30 42 H 1.987773 3.247519 4.208629 0
M  V30 43 H 0.860327 4.610892 4.063446 0
M  V30 44 H 1.435125 2.444040 2.023230 0
M  V30 45 H 1.369755 4.243805 1.898023 0
M  V30 46 H -0.156093 1.589651 -3.577034 0
M  V30 END ATOM
M  V30 BEGIN BOND
M  V30 1 1 1 2
M  V30 2 1 2 3
M  V30 3 2 3 4
M  V30 4 1 3 5
M  V30 5 2 5 6
M  V30 6 1 6 7
M  V30 7 2 7 8
M  V30 8 1 8 9
M  V30 9 2 9 10
M  V30 10 1 10 11
M  V30 11 1 11 12
M  V30 12 2 12 13
M  V30 13 1 13 14
M  V30 14 1 14 15
M  V30 15 1 15 16
M  V30 16 1 16 17
M  V30 17 1 17 18
M  V30 18 1 18 19
M  V30 19 1 19 20
M  V30 20 1 20 21
M  V30 21 2 14 22
M  V30 22 1 22 23
M  V30 23 2 23 24
M  V30 24 1 24 25
M  V30 25 1 10 5
M  V30 26 1 24 12
M  V30 27 1 21 16
M  V30 28 1 1 26
M  V30 29 1 1 27
M  V30 30 1 1 28
M  V30 31 1 2 29
M  V30 32 1 6 30
M  V30 33 1 7 31
M  V30 34 1 8 32
M  V30 35 1 9 33
M  V30 36 1 11 34
M  V30 37 1 13 35
M  V30 38 1 15 36
M  V30 39 1 16 37
M  V30 40 1 17 38
M  V30 41 1 17 39
M  V30 42 1 18 40
M  V30 43 1 18 41
M  V30 44 1 20 42
M  V30 45 1 20 43
M  V30 46 1 21 44
M  V30 47 1 21 45
M  V30 48 1 23 46
M  V30 END BOND
M  V30 END CTAB
M  END
>  <Dataset>  (913) 
ChEMBL_Kinases

>  <Ligand_Instance>  (913) 
nan

>  <PDB_ID>  (913) 
nan

>  <Standardized_SMILES>  (913) 
CNC(=O)c1ccccc1Nc1cc(NC2CCOCC2)ncc1Cl

>  <Name>  (913) 
nan

>  <Pocket>  (913) 
nan

>  <ATP_Site>  (913) 
nan

>  <Peripheral>  (913) 
nan

>  <Num_H_Atoms_ProtBoundConf>  (913) 
nan

>  <Num_Resolved_Atoms>  (913) 
nan

>  <Num_Not_Resolved_Atoms>  (913) 
nan

$$$$
CHEMBL3590114
     RDKit          3D

  0  0  0  0  0  0  0  0  0  0999 V3000
M  V30 BEGIN CTAB
M  V30 COUNTS 48 50 0 0 0
M  V30 BEGIN ATOM
M  V30 1 C 0.619727 1.489054 -4.195476 0
M  V30 2 N 1.859142 1.352572 -3.440961 0
M  V30 3 C 1.692197 0.661141 -2.224845 0
M  V30 4 O 0.480728 0.397238 -2.225475 0
M  V30 5 C 2.787578 0.412078 -1.317283 0
M  V30 6 C 4.018536 0.873844 -1.671346 0
M  V30 7 C 5.138333 0.697843 -0.896980 0
M  V30 8 C 5.068620 0.030355 0.304888 0
M  V30 9 F 6.110560 -0.191710 1.138202 0
M  V30 10 C 3.828886 -0.442612 0.676473 0
M  V30 11 C 2.716781 -0.254787 -0.117698 0
M  V30 12 N 1.498394 -0.765757 0.317917 0
M  V30 13 C 0.850318 -1.525597 1.314402 0
M  V30 14 C -0.062765 -0.937466 2.204689 0
M  V30 15 C -0.789106 -1.584601 3.179996 0
M  V30 16 N -1.642014 -0.751836 3.949815 0
M  V30 17 C -2.900022 -0.489848 3.299466 0
M  V30 18 C -3.340444 -0.941297 2.071799 0
M  V30 19 C -4.605912 -0.457712 1.803586 0
M  V30 20 C -5.364250 -0.754724 0.560890 0
M  V30 21 N -4.909781 0.279652 2.878838 0
M  V30 22 N -3.911151 0.263004 3.758721 0
M  V30 23 C -3.890791 0.961777 5.055807 0
M  V30 24 N -0.546905 -2.899000 3.221470 0
M  V30 25 C 0.313069 -3.509005 2.397022 0
M  V30 26 C 1.054237 -2.884253 1.409335 0
M  V30 27 C 1.941942 -3.725304 0.575063 0
M  V30 28 F 1.799102 -5.049431 0.978763 0
M  V30 29 F 1.609150 -3.687002 -0.766450 0
M  V30 30 F 3.291350 -3.465705 0.740626 0
M  V30 31 H 0.203705 0.462475 -4.415092 0
M  V30 32 H 0.753441 2.045880 -5.137129 0
M  V30 33 H -0.168504 1.993049 -3.611901 0
M  V30 34 H 2.767540 1.744452 -3.792230 0
M  V30 35 H 4.276764 1.410497 -2.552351 0
M  V30 36 H 6.140863 1.045851 -1.128879 0
M  V30 37 H 3.742808 -0.972586 1.634255 0
M  V30 38 H 0.642341 -0.584968 -0.247436 0
M  V30 39 H -0.158688 0.146732 2.054888 0
M  V30 40 H -1.475495 -0.330100 4.885544 0
M  V30 41 H -2.777868 -1.595459 1.386963 0
M  V30 42 H -5.130414 -1.774346 0.176809 0
M  V30 43 H -6.451574 -0.673116 0.718783 0
M  V30 44 H -4.988198 -0.068298 -0.249165 0
M  V30 45 H -3.501110 0.284936 5.844591 0
M  V30 46 H -4.913351 1.297002 5.332426 0
M  V30 47 H -3.274962 1.887514 4.989309 0
M  V30 48 H 0.341218 -4.587638 2.624084 0
M  V30 END ATOM
M  V30 BEGIN BOND
M  V30 1 1 1 2
M  V30 2 1 2 3
M  V30 3 2 3 4
M  V30 4 1 3 5
M  V30 5 2 5 6
M  V30 6 1 6 7
M  V30 7 2 7 8
M  V30 8 1 8 9
M  V30 9 1 8 10
M  V30 10 2 10 11
M  V30 11 1 11 12
M  V30 12 1 12 13
M  V30 13 2 13 14
M  V30 14 1 14 15
M  V30 15 1 15 16
M  V30 16 1 16 17
M  V30 17 2 17 18
M  V30 18 1 18 19
M  V30 19 1 19 20
M  V30 20 2 19 21
M  V30 21 1 21 22
M  V30 22 1 22 23
M  V30 23 2 15 24
M  V30 24 1 24 25
M  V30 25 2 25 26
M  V30 26 1 26 27
M  V30 27 1 27 28
M  V30 28 1 27 29
M  V30 29 1 27 30
M  V30 30 1 11 5
M  V30 31 1 26 13
M  V30 32 1 22 17
M  V30 33 1 1 31
M  V30 34 1 1 32
M  V30 35 1 1 33
M  V30 36 1 2 34
M  V30 37 1 6 35
M  V30 38 1 7 36
M  V30 39 1 10 37
M  V30 40 1 12 38
M  V30 41 1 14 39
M  V30 42 1 16 40
M  V30 43 1 18 41
M  V30 44 1 20 42
M  V30 45 1 20 43
M  V30 46 1 20 44
M  V30 47 1 23 45
M  V30 48 1 23 46
M  V30 49 1 23 47
M  V30 50 1 25 48
M  V30 END BOND
M  V30 END CTAB
M  END
>  <Dataset>  (914) 
ChEMBL_Kinases

>  <Ligand_Instance>  (914) 
nan

>  <PDB_ID>  (914) 
nan

>  <Standardized_SMILES>  (914) 
CNC(=O)c1ccc(F)cc1Nc1cc(Nc2cc(C)nn2C)ncc1C(F)(F)F

>  <Name>  (914) 
nan

>  <Pocket>  (914) 
nan

>  <ATP_Site>  (914) 
nan

>  <Peripheral>  (914) 
nan

>  <Num_H_Atoms_ProtBoundConf>  (914) 
nan

>  <Num_Resolved_Atoms>  (914) 
nan

>  <Num_Not_Resolved_Atoms>  (914) 
nan

$$$$
CHEMBL3590113
     RDKit          3D

  0  0  0  0  0  0  0  0  0  0999 V3000
M  V30 BEGIN CTAB
M  V30 COUNTS 35 37 0 0 0
M  V30 BEGIN ATOM
M  V30 1 C -1.225339 -4.103563 2.803398 0
M  V30 2 C -0.045729 -3.649650 1.973292 0
M  V30 3 S 0.856884 -2.459851 2.929914 0
M  V30 4 O -0.086033 -1.313371 3.210547 0
M  V30 5 O 1.275784 -2.992996 4.253143 0
M  V30 6 N 2.237285 -1.894820 2.022533 0
M  V30 7 C 1.998277 -1.223783 0.789200 0
M  V30 8 C 2.830456 -1.642803 -0.255177 0
M  V30 9 C 2.672992 -1.048621 -1.491156 0
M  V30 10 C 1.739652 -0.065004 -1.749969 0
M  V30 11 N 1.351943 0.682547 -2.801169 0
M  V30 12 N 0.357089 1.497616 -2.427230 0
M  V30 13 C 0.058292 1.316275 -1.128482 0
M  V30 14 C -0.979119 2.037510 -0.380160 0
M  V30 15 C -0.782131 2.559514 0.883097 0
M  V30 16 C -1.805601 3.236013 1.546577 0
M  V30 17 N -3.001521 3.385770 0.955379 0
M  V30 18 C -3.221568 2.885008 -0.280135 0
M  V30 19 C -2.240295 2.215578 -0.960671 0
M  V30 20 C 0.931592 0.329077 -0.700231 0
M  V30 21 C 1.064420 -0.242256 0.537585 0
M  V30 22 H -1.006162 -5.023909 3.383181 0
M  V30 23 H -2.075947 -4.251284 2.099719 0
M  V30 24 H -1.515061 -3.256710 3.460955 0
M  V30 25 H 0.603711 -4.488952 1.662131 0
M  V30 26 H -0.401370 -3.125593 1.057893 0
M  V30 27 H 3.195621 -2.034124 2.353896 0
M  V30 28 H 3.615671 -2.412821 -0.197457 0
M  V30 29 H 3.294573 -1.334704 -2.346107 0
M  V30 30 H 1.779676 0.615789 -3.751745 0
M  V30 31 H 0.183966 2.433512 1.350009 0
M  V30 32 H -1.591269 3.627504 2.544706 0
M  V30 33 H -4.187643 3.009443 -0.750339 0
M  V30 34 H -2.441843 1.823977 -1.949294 0
M  V30 35 H 0.452907 0.038229 1.381455 0
M  V30 END ATOM
M  V30 BEGIN BOND
M  V30 1 1 1 2
M  V30 2 1 2 3
M  V30 3 2 3 4
M  V30 4 2 3 5
M  V30 5 1 3 6
M  V30 6 1 6 7
M  V30 7 2 7 8
M  V30 8 1 8 9
M  V30 9 2 9 10
M  V30 10 1 10 11
M  V30 11 1 11 12
M  V30 12 2 12 13
M  V30 13 1 13 14
M  V30 14 2 14 15
M  V30 15 1 15 16
M  V30 16 2 16 17
M  V30 17 1 17 18
M  V30 18 2 18 19
M  V30 19 1 13 20
M  V30 20 2 20 21
M  V30 21 1 21 7
M  V30 22 1 20 10
M  V30 23 1 19 14
M  V30 24 1 1 22
M  V30 25 1 1 23
M  V30 26 1 1 24
M  V30 27 1 2 25
M  V30 28 1 2 26
M  V30 29 1 6 27
M  V30 30 1 8 28
M  V30 31 1 9 29
M  V30 32 1 11 30
M  V30 33 1 15 31
M  V30 34 1 16 32
M  V30 35 1 18 33
M  V30 36 1 19 34
M  V30 37 1 21 35
M  V30 END BOND
M  V30 END CTAB
M  END
>  <Dataset>  (915) 
ChEMBL_Kinases

>  <Ligand_Instance>  (915) 
nan

>  <PDB_ID>  (915) 
nan

>  <Standardized_SMILES>  (915) 
CCS(=O)(=O)Nc1ccc2[nH]nc(-c3ccncc3)c2c1

>  <Name>  (915) 
nan

>  <Pocket>  (915) 
nan

>  <ATP_Site>  (915) 
nan

>  <Peripheral>  (915) 
nan

>  <Num_H_Atoms_ProtBoundConf>  (915) 
nan

>  <Num_Resolved_Atoms>  (915) 
nan

>  <Num_Not_Resolved_Atoms>  (915) 
nan

$$$$
CHEMBL3590112
     RDKit          3D

  0  0  0  0  0  0  0  0  0  0999 V3000
M  V30 BEGIN CTAB
M  V30 COUNTS 44 46 0 0 0
M  V30 BEGIN ATOM
M  V30 1 C -2.542552 -4.847648 2.222786 0
M  V30 2 C -1.156514 -5.147440 1.712403 0
M  V30 3 S -0.121638 -3.728214 1.700215 0
M  V30 4 O 1.265751 -4.090851 1.253034 0
M  V30 5 O -0.016721 -3.214635 3.109837 0
M  V30 6 N -0.686323 -2.452376 0.728283 0
M  V30 7 C -0.818993 -2.728026 -0.662522 0
M  V30 8 C -1.764938 -1.733980 -1.312631 0
M  V30 9 C -1.004204 -0.443988 -1.256818 0
M  V30 10 C -1.027065 0.554193 -2.208837 0
M  V30 11 N -0.290700 1.656255 -2.020750 0
M  V30 12 C 0.485993 1.824106 -0.910866 0
M  V30 13 N 1.262848 3.019604 -0.742711 0
M  V30 14 C 2.085820 3.158624 0.469020 0
M  V30 15 C 1.276198 3.111537 1.710962 0
M  V30 16 C 1.794584 2.285699 2.820964 0
M  V30 17 O 2.629978 1.241626 2.464775 0
M  V30 18 C 3.725464 1.823065 1.815163 0
M  V30 19 C 3.219185 2.164111 0.423167 0
M  V30 20 N 0.514777 0.857769 0.021599 0
M  V30 21 C -0.219699 -0.281706 -0.129099 0
M  V30 22 C -0.041446 -1.216502 1.017639 0
M  V30 23 H -3.277608 -4.699353 1.405683 0
M  V30 24 H -2.956272 -5.670003 2.864773 0
M  V30 25 H -2.459191 -3.915102 2.826208 0
M  V30 26 H -1.254297 -5.648696 0.743015 0
M  V30 27 H -0.690196 -5.883289 2.399732 0
M  V30 28 H -1.034390 -3.760507 -0.905254 0
M  V30 29 H 0.193285 -2.526951 -1.124578 0
M  V30 30 H -2.011453 -2.023001 -2.351713 0
M  V30 31 H -2.654021 -1.627111 -0.654504 0
M  V30 32 H -1.657718 0.373691 -3.069502 0
M  V30 33 H 1.212882 3.747316 -1.491144 0
M  V30 34 H 2.554493 4.163844 0.396948 0
M  V30 35 H 1.064292 4.140602 2.128211 0
M  V30 36 H 0.240201 2.744841 1.448971 0
M  V30 37 H 0.956939 1.807183 3.408109 0
M  V30 38 H 2.347127 2.890209 3.585566 0
M  V30 39 H 4.126618 2.699918 2.347817 0
M  V30 40 H 4.536684 1.090618 1.707881 0
M  V30 41 H 4.095574 2.509214 -0.163145 0
M  V30 42 H 2.901514 1.181160 -0.026761 0
M  V30 43 H 1.047098 -1.339949 1.227265 0
M  V30 44 H -0.453481 -0.736676 1.948396 0
M  V30 END ATOM
M  V30 BEGIN BOND
M  V30 1 1 1 2
M  V30 2 1 2 3
M  V30 3 2 3 4
M  V30 4 2 3 5
M  V30 5 1 3 6
M  V30 6 1 6 7
M  V30 7 1 7 8
M  V30 8 1 8 9
M  V30 9 2 9 10
M  V30 10 1 10 11
M  V30 11 2 11 12
M  V30 12 1 12 13
M  V30 13 1 13 14
M  V30 14 1 14 15
M  V30 15 1 15 16
M  V30 16 1 16 17
M  V30 17 1 17 18
M  V30 18 1 18 19
M  V30 19 1 12 20
M  V30 20 2 20 21
M  V30 21 1 21 22
M  V30 22 1 22 6
M  V30 23 1 21 9
M  V30 24 1 19 14
M  V30 25 1 1 23
M  V30 26 1 1 24
M  V30 27 1 1 25
M  V30 28 1 2 26
M  V30 29 1 2 27
M  V30 30 1 7 28
M  V30 31 1 7 29
M  V30 32 1 8 30
M  V30 33 1 8 31
M  V30 34 1 10 32
M  V30 35 1 13 33
M  V30 36 1 14 34
M  V30 37 1 15 35
M  V30 38 1 15 36
M  V30 39 1 16 37
M  V30 40 1 16 38
M  V30 41 1 18 39
M  V30 42 1 18 40
M  V30 43 1 19 41
M  V30 44 1 19 42
M  V30 45 1 22 43
M  V30 46 1 22 44
M  V30 END BOND
M  V30 END CTAB
M  END
>  <Dataset>  (916) 
ChEMBL_Kinases

>  <Ligand_Instance>  (916) 
nan

>  <PDB_ID>  (916) 
nan

>  <Standardized_SMILES>  (916) 
CCS(=O)(=O)N1CCc2cnc(NC3CCOCC3)nc2C1

>  <Name>  (916) 
nan

>  <Pocket>  (916) 
nan

>  <ATP_Site>  (916) 
nan

>  <Peripheral>  (916) 
nan

>  <Num_H_Atoms_ProtBoundConf>  (916) 
nan

>  <Num_Resolved_Atoms>  (916) 
nan

>  <Num_Not_Resolved_Atoms>  (916) 
nan

$$$$
CHEMBL3590110
     RDKit          3D

  0  0  0  0  0  0  0  0  0  0999 V3000
M  V30 BEGIN CTAB
M  V30 COUNTS 33 35 0 0 0
M  V30 BEGIN ATOM
M  V30 1 C 0.676582 -2.265620 3.424515 0
M  V30 2 C 0.498796 -3.077552 2.398730 0
M  V30 3 S 1.627631 -3.708260 1.249587 0
M  V30 4 O 1.781062 -5.186997 1.468237 0
M  V30 5 O 2.975019 -3.091286 1.410547 0
M  V30 6 N 1.133347 -3.469536 -0.398069 0
M  V30 7 C 0.944448 -2.170018 -0.949338 0
M  V30 8 C 1.477536 -1.920918 -2.219040 0
M  V30 9 C 1.312781 -0.662500 -2.790003 0
M  V30 10 C 0.636635 0.335106 -2.127180 0
M  V30 11 N 0.302870 1.609790 -2.364303 0
M  V30 12 N -0.372521 2.090885 -1.330427 0
M  V30 13 C -0.509000 1.163975 -0.382690 0
M  V30 14 C -1.217825 1.434664 0.871336 0
M  V30 15 C -0.977193 2.612515 1.557524 0
M  V30 16 C -1.684247 2.788733 2.726237 0
M  V30 17 N -2.576253 1.910363 3.236815 0
M  V30 18 C -2.803402 0.767064 2.561542 0
M  V30 19 C -2.125556 0.520271 1.372933 0
M  V30 20 C 0.136924 0.042275 -0.894176 0
M  V30 21 C 0.259262 -1.191825 -0.254024 0
M  V30 22 H 1.698209 -1.941685 3.569395 0
M  V30 23 H -0.206658 -2.036340 3.973744 0
M  V30 24 H -0.461821 -3.516305 2.084848 0
M  V30 25 H 0.954313 -4.277069 -1.052898 0
M  V30 26 H 2.011162 -2.694651 -2.751970 0
M  V30 27 H 1.712534 -0.438759 -3.768761 0
M  V30 28 H 0.564500 2.096991 -3.250709 0
M  V30 29 H -0.275334 3.365090 1.209603 0
M  V30 30 H -1.538833 3.699729 3.315365 0
M  V30 31 H -3.515834 0.027063 2.935653 0
M  V30 32 H -2.346658 -0.410163 0.875349 0
M  V30 33 H -0.151495 -1.387102 0.726736 0
M  V30 END ATOM
M  V30 BEGIN BOND
M  V30 1 2 1 2
M  V30 2 1 2 3
M  V30 3 2 3 4
M  V30 4 2 3 5
M  V30 5 1 3 6
M  V30 6 1 6 7
M  V30 7 2 7 8
M  V30 8 1 8 9
M  V30 9 2 9 10
M  V30 10 1 10 11
M  V30 11 1 11 12
M  V30 12 2 12 13
M  V30 13 1 13 14
M  V30 14 2 14 15
M  V30 15 1 15 16
M  V30 16 2 16 17
M  V30 17 1 17 18
M  V30 18 2 18 19
M  V30 19 1 13 20
M  V30 20 2 20 21
M  V30 21 1 21 7
M  V30 22 1 20 10
M  V30 23 1 19 14
M  V30 24 1 1 22
M  V30 25 1 1 23
M  V30 26 1 2 24
M  V30 27 1 6 25
M  V30 28 1 8 26
M  V30 29 1 9 27
M  V30 30 1 11 28
M  V30 31 1 15 29
M  V30 32 1 16 30
M  V30 33 1 18 31
M  V30 34 1 19 32
M  V30 35 1 21 33
M  V30 END BOND
M  V30 END CTAB
M  END
>  <Dataset>  (917) 
ChEMBL_Kinases

>  <Ligand_Instance>  (917) 
nan

>  <PDB_ID>  (917) 
nan

>  <Standardized_SMILES>  (917) 
C=CS(=O)(=O)Nc1ccc2[nH]nc(-c3ccncc3)c2c1

>  <Name>  (917) 
nan

>  <Pocket>  (917) 
nan

>  <ATP_Site>  (917) 
nan

>  <Peripheral>  (917) 
nan

>  <Num_H_Atoms_ProtBoundConf>  (917) 
nan

>  <Num_Resolved_Atoms>  (917) 
nan

>  <Num_Not_Resolved_Atoms>  (917) 
nan

$$$$
CHEMBL3590109
     RDKit          3D

  0  0  0  0  0  0  0  0  0  0999 V3000
M  V30 BEGIN CTAB
M  V30 COUNTS 42 44 0 0 0
M  V30 BEGIN ATOM
M  V30 1 C -0.311048 -5.560741 2.034473 0
M  V30 2 C 0.540766 -4.548384 2.124949 0
M  V30 3 S 2.006489 -3.636147 2.296211 0
M  V30 4 O 3.163529 -4.619730 2.391803 0
M  V30 5 O 1.998742 -2.860043 3.583303 0
M  V30 6 N 2.280378 -2.582357 0.996128 0
M  V30 7 C 2.428235 -3.191600 -0.265841 0
M  V30 8 C 1.275575 -3.121132 -1.204003 0
M  V30 9 C 0.621964 -1.800949 -1.094250 0
M  V30 10 C -0.227954 -1.357170 -2.064699 0
M  V30 11 N -0.855390 -0.171652 -2.030857 0
M  V30 12 C -0.658210 0.671331 -0.978466 0
M  V30 13 N -1.237923 1.955746 -0.780895 0
M  V30 14 C -0.986181 2.824885 0.380059 0
M  V30 15 C 0.446823 3.202058 0.528676 0
M  V30 16 C 1.192668 2.601473 1.654792 0
M  V30 17 O 0.479848 1.943520 2.612758 0
M  V30 18 C -0.787857 2.442669 2.839113 0
M  V30 19 C -1.650760 2.300181 1.608602 0
M  V30 20 N 0.175759 0.243623 -0.019451 0
M  V30 21 C 0.808881 -0.943488 -0.045602 0
M  V30 22 C 1.705917 -1.298631 1.077684 0
M  V30 23 H -1.317221 -5.952667 1.912508 0
M  V30 24 H 0.464236 -6.332253 2.148597 0
M  V30 25 H -0.233117 -3.777759 2.010962 0
M  V30 26 H 2.615990 -4.290260 -0.081974 0
M  V30 27 H 3.334982 -2.797634 -0.791748 0
M  V30 28 H 0.490254 -3.886908 -1.033104 0
M  V30 29 H 1.681446 -3.292101 -2.244240 0
M  V30 30 H -0.468048 -1.931663 -2.950894 0
M  V30 31 H -1.881110 2.201614 -1.591902 0
M  V30 32 H -1.550124 3.769388 0.111751 0
M  V30 33 H 0.957725 2.876122 -0.427308 0
M  V30 34 H 0.586305 4.321985 0.506038 0
M  V30 35 H 1.785844 3.416521 2.168954 0
M  V30 36 H 2.002702 1.897916 1.302064 0
M  V30 37 H -1.250304 1.756872 3.602140 0
M  V30 38 H -0.831040 3.438964 3.283550 0
M  V30 39 H -2.620807 2.794008 1.856717 0
M  V30 40 H -1.918728 1.215175 1.468512 0
M  V30 41 H 2.490392 -0.493828 1.115684 0
M  V30 42 H 1.115265 -1.219495 2.020917 0
M  V30 END ATOM
M  V30 BEGIN BOND
M  V30 1 2 1 2
M  V30 2 1 2 3
M  V30 3 2 3 4
M  V30 4 2 3 5
M  V30 5 1 3 6
M  V30 6 1 6 7
M  V30 7 1 7 8
M  V30 8 1 8 9
M  V30 9 2 9 10
M  V30 10 1 10 11
M  V30 11 2 11 12
M  V30 12 1 12 13
M  V30 13 1 13 14
M  V30 14 1 14 15
M  V30 15 1 15 16
M  V30 16 1 16 17
M  V30 17 1 17 18
M  V30 18 1 18 19
M  V30 19 1 12 20
M  V30 20 2 20 21
M  V30 21 1 21 22
M  V30 22 1 22 6
M  V30 23 1 21 9
M  V30 24 1 19 14
M  V30 25 1 1 23
M  V30 26 1 1 24
M  V30 27 1 2 25
M  V30 28 1 7 26
M  V30 29 1 7 27
M  V30 30 1 8 28
M  V30 31 1 8 29
M  V30 32 1 10 30
M  V30 33 1 13 31
M  V30 34 1 14 32
M  V30 35 1 15 33
M  V30 36 1 15 34
M  V30 37 1 16 35
M  V30 38 1 16 36
M  V30 39 1 18 37
M  V30 40 1 18 38
M  V30 41 1 19 39
M  V30 42 1 19 40
M  V30 43 1 22 41
M  V30 44 1 22 42
M  V30 END BOND
M  V30 END CTAB
M  END
>  <Dataset>  (918) 
ChEMBL_Kinases

>  <Ligand_Instance>  (918) 
nan

>  <PDB_ID>  (918) 
nan

>  <Standardized_SMILES>  (918) 
C=CS(=O)(=O)N1CCc2cnc(NC3CCOCC3)nc2C1

>  <Name>  (918) 
nan

>  <Pocket>  (918) 
nan

>  <ATP_Site>  (918) 
nan

>  <Peripheral>  (918) 
nan

>  <Num_H_Atoms_ProtBoundConf>  (918) 
nan

>  <Num_Resolved_Atoms>  (918) 
nan

>  <Num_Not_Resolved_Atoms>  (918) 
nan

$$$$
CHEMBL3589670
     RDKit          3D

  0  0  0  0  0  0  0  0  0  0999 V3000
M  V30 BEGIN CTAB
M  V30 COUNTS 30 33 0 0 0
M  V30 BEGIN ATOM
M  V30 1 O -0.550583 -1.697523 4.489284 0
M  V30 2 C 0.301565 -1.649845 3.591246 0
M  V30 3 O 1.160883 -2.243369 4.487151 0
M  V30 4 C 0.694100 -1.294012 2.240401 0
M  V30 5 N 1.960343 -1.550388 1.897997 0
M  V30 6 C 2.544148 -1.316357 0.733475 0
M  V30 7 C 3.868374 -1.637442 0.526975 0
M  V30 8 C 4.364678 -1.341360 -0.740373 0
M  V30 9 C 3.563683 -0.763946 -1.710484 0
M  V30 10 I 4.391125 -0.346955 -3.604344 0
M  V30 11 C 2.232369 -0.461770 -1.443945 0
M  V30 12 C 1.715669 -0.744282 -0.198075 0
M  V30 13 C 0.394289 -0.426586 0.015758 0
M  V30 14 N -0.574242 0.122206 -0.731478 0
M  V30 15 C -1.677214 0.185631 0.022749 0
M  V30 16 C -2.926261 0.665813 -0.291267 0
M  V30 17 F -3.166933 1.165852 -1.516412 0
M  V30 18 C -3.922649 0.628319 0.660091 0
M  V30 19 C -3.642279 0.101714 1.927485 0
M  V30 20 C -2.378294 -0.365403 2.191536 0
M  V30 21 C -1.384474 -0.334587 1.261532 0
M  V30 22 C -0.077588 -0.726343 1.273041 0
M  V30 23 H 1.011423 -3.151844 4.905361 0
M  V30 24 H 4.442619 -2.087451 1.325485 0
M  V30 25 H 5.407714 -1.581054 -0.940779 0
M  V30 26 H 1.649162 -0.012888 -2.231646 0
M  V30 27 H -0.450073 0.429315 -1.714654 0
M  V30 28 H -4.894775 1.011050 0.389940 0
M  V30 29 H -4.510255 0.127678 2.588681 0
M  V30 30 H -2.343647 -0.721311 3.178173 0
M  V30 END ATOM
M  V30 BEGIN BOND
M  V30 1 2 1 2
M  V30 2 1 2 3
M  V30 3 1 2 4
M  V30 4 2 4 5
M  V30 5 1 5 6
M  V30 6 2 6 7
M  V30 7 1 7 8
M  V30 8 2 8 9
M  V30 9 1 9 10
M  V30 10 1 9 11
M  V30 11 2 11 12
M  V30 12 1 12 13
M  V30 13 1 13 14
M  V30 14 1 14 15
M  V30 15 2 15 16
M  V30 16 1 16 17
M  V30 17 1 16 18
M  V30 18 2 18 19
M  V30 19 1 19 20
M  V30 20 2 20 21
M  V30 21 1 21 22
M  V30 22 1 22 4
M  V30 23 1 12 6
M  V30 24 2 22 13
M  V30 25 1 21 15
M  V30 26 1 3 23
M  V30 27 1 7 24
M  V30 28 1 8 25
M  V30 29 1 11 26
M  V30 30 1 14 27
M  V30 31 1 18 28
M  V30 32 1 19 29
M  V30 33 1 20 30
M  V30 END BOND
M  V30 END CTAB
M  END
>  <Dataset>  (919) 
ChEMBL_Kinases

>  <Ligand_Instance>  (919) 
nan

>  <PDB_ID>  (919) 
nan

>  <Standardized_SMILES>  (919) 
O=C(O)c1nc2ccc(I)cc2c2[nH]c3c(F)cccc3c12

>  <Name>  (919) 
nan

>  <Pocket>  (919) 
nan

>  <ATP_Site>  (919) 
nan

>  <Peripheral>  (919) 
nan

>  <Num_H_Atoms_ProtBoundConf>  (919) 
nan

>  <Num_Resolved_Atoms>  (919) 
nan

>  <Num_Not_Resolved_Atoms>  (919) 
nan

$$$$
CHEMBL3589653
     RDKit          3D

  0  0  0  0  0  0  0  0  0  0999 V3000
M  V30 BEGIN CTAB
M  V30 COUNTS 30 33 0 0 0
M  V30 BEGIN ATOM
M  V30 1 O 0.331609 -3.553850 3.396769 0
M  V30 2 C 0.916283 -2.972730 2.484015 0
M  V30 3 O 1.939794 -3.863979 2.712724 0
M  V30 4 C 0.986637 -1.947688 1.460137 0
M  V30 5 N 2.093393 -1.908550 0.714955 0
M  V30 6 C 2.379521 -1.070751 -0.268312 0
M  V30 7 C 3.569303 -1.155158 -0.948641 0
M  V30 8 C 3.749541 -0.218424 -1.958749 0
M  V30 9 C 2.767198 0.735598 -2.241804 0
M  V30 10 C 1.589004 0.768902 -1.520067 0
M  V30 11 C 1.390176 -0.152070 -0.513125 0
M  V30 12 C 0.199767 -0.072444 0.172165 0
M  V30 13 N -0.874666 0.726568 0.096509 0
M  V30 14 C -1.740854 0.320284 1.038933 0
M  V30 15 C -2.984035 0.818350 1.359077 0
M  V30 16 C -3.702934 0.232923 2.378737 0
M  V30 17 C -3.151237 -0.855967 3.065870 0
M  V30 18 C -1.906961 -1.319308 2.711837 0
M  V30 19 C -1.187403 -0.748214 1.705406 0
M  V30 20 C 0.040953 -1.008999 1.168358 0
M  V30 21 H 2.472572 -3.979573 3.565183 0
M  V30 22 H 4.290128 -1.913436 -0.685312 0
M  V30 23 H 4.692962 -0.277309 -2.505893 0
M  V30 24 H 2.961811 1.436739 -3.036056 0
M  V30 25 H 0.852187 1.530632 -1.776468 0
M  V30 26 H -0.953167 1.512228 -0.603752 0
M  V30 27 H -3.379383 1.645433 0.821983 0
M  V30 28 H -4.675584 0.636467 2.615968 0
M  V30 29 H -3.814431 -1.236398 3.854015 0
M  V30 30 H -1.649309 -2.126414 3.318443 0
M  V30 END ATOM
M  V30 BEGIN BOND
M  V30 1 2 1 2
M  V30 2 1 2 3
M  V30 3 1 2 4
M  V30 4 2 4 5
M  V30 5 1 5 6
M  V30 6 2 6 7
M  V30 7 1 7 8
M  V30 8 2 8 9
M  V30 9 1 9 10
M  V30 10 2 10 11
M  V30 11 1 11 12
M  V30 12 1 12 13
M  V30 13 1 13 14
M  V30 14 2 14 15
M  V30 15 1 15 16
M  V30 16 2 16 17
M  V30 17 1 17 18
M  V30 18 2 18 19
M  V30 19 1 19 20
M  V30 20 1 20 4
M  V30 21 1 11 6
M  V30 22 2 20 12
M  V30 23 1 19 14
M  V30 24 1 3 21
M  V30 25 1 7 22
M  V30 26 1 8 23
M  V30 27 1 9 24
M  V30 28 1 10 25
M  V30 29 1 13 26
M  V30 30 1 15 27
M  V30 31 1 16 28
M  V30 32 1 17 29
M  V30 33 1 18 30
M  V30 END BOND
M  V30 END CTAB
M  END
>  <Dataset>  (920) 
ChEMBL_Kinases

>  <Ligand_Instance>  (920) 
nan

>  <PDB_ID>  (920) 
nan

>  <Standardized_SMILES>  (920) 
O=C(O)c1nc2ccccc2c2[nH]c3ccccc3c12

>  <Name>  (920) 
nan

>  <Pocket>  (920) 
nan

>  <ATP_Site>  (920) 
nan

>  <Peripheral>  (920) 
nan

>  <Num_H_Atoms_ProtBoundConf>  (920) 
nan

>  <Num_Resolved_Atoms>  (920) 
nan

>  <Num_Not_Resolved_Atoms>  (920) 
nan

$$$$
CHEMBL358894
     RDKit          3D

  0  0  0  0  0  0  0  0  0  0999 V3000
M  V30 BEGIN CTAB
M  V30 COUNTS 38 40 0 0 0
M  V30 BEGIN ATOM
M  V30 1 O 1.489093 -0.182584 2.977435 0
M  V30 2 C 0.964473 -0.259754 1.826190 0
M  V30 3 C 1.565506 -1.088131 0.753121 0
M  V30 4 C 2.459623 -1.957934 1.162632 0
M  V30 5 C 3.082482 -2.805571 0.164346 0
M  V30 6 C 2.326402 -3.545737 -0.752428 0
M  V30 7 C 2.919229 -4.322472 -1.704585 0
M  V30 8 C 4.312480 -4.404073 -1.794324 0
M  V30 9 F 4.901618 -5.181344 -2.747586 0
M  V30 10 C 5.038487 -3.672491 -0.888409 0
M  V30 11 C 4.473686 -2.867103 0.099323 0
M  V30 12 C 1.032445 -0.709342 -0.568422 0
M  V30 13 N -0.428574 -0.541096 -0.499921 0
M  V30 14 C -0.621712 0.740955 0.171694 0
M  V30 15 C -0.271642 0.504241 1.579151 0
M  V30 16 C -1.064367 0.941356 2.517799 0
M  V30 17 C -2.288875 1.699419 2.360228 0
M  V30 18 C -2.540868 2.798519 1.615579 0
M  V30 19 C -3.764914 3.418262 1.522923 0
M  V30 20 C -4.845264 2.918807 2.224023 0
M  V30 21 F -6.096142 3.448129 2.210367 0
M  V30 22 C -4.640006 1.778459 3.015002 0
M  V30 23 C -3.373947 1.180183 3.077700 0
M  V30 24 H 2.735471 -2.056691 2.198654 0
M  V30 25 H 1.259569 -3.583652 -0.778684 0
M  V30 26 H 2.391007 -4.921878 -2.442060 0
M  V30 27 H 6.124657 -3.695539 -0.909944 0
M  V30 28 H 5.110149 -2.327225 0.767127 0
M  V30 29 H 1.236805 -1.375363 -1.399721 0
M  V30 30 H 1.459835 0.328107 -0.759794 0
M  V30 31 H -0.811155 -0.566815 -1.458865 0
M  V30 32 H -1.630915 1.145201 -0.012567 0
M  V30 33 H 0.122784 1.446423 -0.253658 0
M  V30 34 H -0.758769 0.699650 3.544159 0
M  V30 35 H -1.692884 3.207147 1.074438 0
M  V30 36 H -3.908438 4.300338 0.907649 0
M  V30 37 H -5.480878 1.383575 3.568416 0
M  V30 38 H -3.311731 0.304892 3.715193 0
M  V30 END ATOM
M  V30 BEGIN BOND
M  V30 1 2 1 2
M  V30 2 1 2 3
M  V30 3 2 3 4
M  V30 4 1 4 5
M  V30 5 2 5 6
M  V30 6 1 6 7
M  V30 7 2 7 8
M  V30 8 1 8 9
M  V30 9 1 8 10
M  V30 10 2 10 11
M  V30 11 1 3 12
M  V30 12 1 12 13
M  V30 13 1 13 14
M  V30 14 1 14 15
M  V30 15 2 15 16
M  V30 16 1 16 17
M  V30 17 2 17 18
M  V30 18 1 18 19
M  V30 19 2 19 20
M  V30 20 1 20 21
M  V30 21 1 20 22
M  V30 22 2 22 23
M  V30 23 1 15 2
M  V30 24 1 23 17
M  V30 25 1 11 5
M  V30 26 1 4 24
M  V30 27 1 6 25
M  V30 28 1 7 26
M  V30 29 1 10 27
M  V30 30 1 11 28
M  V30 31 1 12 29
M  V30 32 1 12 30
M  V30 33 1 13 31
M  V30 34 1 14 32
M  V30 35 1 14 33
M  V30 36 1 16 34
M  V30 37 1 18 35
M  V30 38 1 19 36
M  V30 39 1 22 37
M  V30 40 1 23 38
M  V30 END BOND
M  V30 END CTAB
M  END
>  <Dataset>  (921) 
ChEMBL_Kinases

>  <Ligand_Instance>  (921) 
nan

>  <PDB_ID>  (921) 
nan

>  <Standardized_SMILES>  (921) 
O=C1/C(=C/c2ccc(F)cc2)CNC/C1=C\c1ccc(F)cc1

>  <Name>  (921) 
nan

>  <Pocket>  (921) 
nan

>  <ATP_Site>  (921) 
nan

>  <Peripheral>  (921) 
nan

>  <Num_H_Atoms_ProtBoundConf>  (921) 
nan

>  <Num_Resolved_Atoms>  (921) 
nan

>  <Num_Not_Resolved_Atoms>  (921) 
nan

$$$$
CHEMBL3588873
     RDKit          3D

  0  0  0  0  0  0  0  0  0  0999 V3000
M  V30 BEGIN CTAB
M  V30 COUNTS 49 52 0 0 0
M  V30 BEGIN ATOM
M  V30 1 C -0.211879 -5.782845 0.235513 0
M  V30 2 C -0.510878 -4.594898 1.129153 0
M  V30 3 C 0.067045 -3.345165 0.583923 0
M  V30 4 C 1.336706 -2.891014 0.959119 0
M  V30 5 C 1.957042 -1.744962 0.507048 0
M  V30 6 C 1.252402 -0.980022 -0.400415 0
M  V30 7 N 1.892177 0.208128 -0.870428 0
M  V30 8 C 1.579086 1.319633 -0.039938 0
M  V30 9 O 0.825258 1.165479 0.955734 0
M  V30 10 C 2.109792 2.656549 -0.305260 0
M  V30 11 C 1.822763 3.752325 0.484082 0
M  V30 12 C 2.517782 4.813260 -0.108375 0
M  V30 13 C 2.446445 6.193940 0.481535 0
M  V30 14 C 2.365734 6.238085 2.016154 0
M  V30 15 C 1.167296 6.562190 1.191707 0
M  V30 16 N 3.180312 4.350542 -1.196542 0
M  V30 17 N 2.924107 3.044813 -1.302902 0
M  V30 18 C -0.005422 -1.353508 -0.824691 0
M  V30 19 C -0.546391 -2.511189 -0.321665 0
M  V30 20 N -1.856676 -4.521105 1.547116 0
M  V30 21 C -2.239353 -3.423964 2.359740 0
M  V30 22 C -3.568748 -2.881982 1.831816 0
M  V30 23 O -4.543298 -3.840277 1.847419 0
M  V30 24 C -4.168614 -5.116461 1.538702 0
M  V30 25 C -2.860258 -5.099815 0.735970 0
M  V30 26 H -0.668470 -6.675629 0.692370 0
M  V30 27 H -0.491286 -5.627085 -0.812185 0
M  V30 28 H 0.891150 -5.930770 0.269446 0
M  V30 29 H 0.100064 -4.805412 2.064420 0
M  V30 30 H 1.891215 -3.508490 1.683651 0
M  V30 31 H 2.945855 -1.505100 0.877548 0
M  V30 32 H 2.513944 0.338009 -1.690772 0
M  V30 33 H 1.194564 3.797957 1.376242 0
M  V30 34 H 3.001797 7.004033 -0.006918 0
M  V30 35 H 2.913116 7.068758 2.520546 0
M  V30 36 H 2.331800 5.276122 2.560309 0
M  V30 37 H 0.324323 5.850022 1.206525 0
M  V30 38 H 0.865765 7.627697 1.116604 0
M  V30 39 H 3.758618 5.007230 -1.769680 0
M  V30 40 H -0.533780 -0.738038 -1.533973 0
M  V30 41 H -1.521014 -2.763698 -0.676710 0
M  V30 42 H -2.325042 -3.653401 3.445517 0
M  V30 43 H -1.510790 -2.587034 2.181595 0
M  V30 44 H -3.414033 -2.565681 0.781653 0
M  V30 45 H -3.869120 -1.982022 2.431646 0
M  V30 46 H -4.926128 -5.519306 0.806513 0
M  V30 47 H -4.072653 -5.799563 2.417282 0
M  V30 48 H -3.079717 -4.491030 -0.156355 0
M  V30 49 H -2.659709 -6.142755 0.425814 0
M  V30 END ATOM
M  V30 BEGIN BOND
M  V30 1 1 1 2
M  V30 2 1 2 3
M  V30 3 2 3 4
M  V30 4 1 4 5
M  V30 5 2 5 6
M  V30 6 1 6 7
M  V30 7 1 7 8
M  V30 8 2 8 9
M  V30 9 1 8 10
M  V30 10 1 10 11
M  V30 11 2 11 12
M  V30 12 1 12 13
M  V30 13 1 13 14
M  V30 14 1 14 15
M  V30 15 1 12 16
M  V30 16 1 16 17
M  V30 17 1 6 18
M  V30 18 2 18 19
M  V30 19 1 2 20
M  V30 20 1 20 21
M  V30 21 1 21 22
M  V30 22 1 22 23
M  V30 23 1 23 24
M  V30 24 1 24 25
M  V30 25 1 19 3
M  V30 26 1 25 20
M  V30 27 2 17 10
M  V30 28 1 15 13
M  V30 29 1 1 26
M  V30 30 1 1 27
M  V30 31 1 1 28
M  V30 32 1 2 29
M  V30 33 1 4 30
M  V30 34 1 5 31
M  V30 35 1 7 32
M  V30 36 1 11 33
M  V30 37 1 13 34
M  V30 38 1 14 35
M  V30 39 1 14 36
M  V30 40 1 15 37
M  V30 41 1 15 38
M  V30 42 1 16 39
M  V30 43 1 18 40
M  V30 44 1 19 41
M  V30 45 1 21 42
M  V30 46 1 21 43
M  V30 47 1 22 44
M  V30 48 1 22 45
M  V30 49 1 24 46
M  V30 50 1 24 47
M  V30 51 1 25 48
M  V30 52 1 25 49
M  V30 END BOND
M  V30 END CTAB
M  END
>  <Dataset>  (922) 
ChEMBL_Kinases

>  <Ligand_Instance>  (922) 
nan

>  <PDB_ID>  (922) 
nan

>  <Standardized_SMILES>  (922) 
CC(c1ccc(NC(=O)c2cc(C3CC3)[nH]n2)cc1)N1CCOCC1

>  <Name>  (922) 
nan

>  <Pocket>  (922) 
nan

>  <ATP_Site>  (922) 
nan

>  <Peripheral>  (922) 
nan

>  <Num_H_Atoms_ProtBoundConf>  (922) 
nan

>  <Num_Resolved_Atoms>  (922) 
nan

>  <Num_Not_Resolved_Atoms>  (922) 
nan

$$$$
CHEMBL3586048
     RDKit          3D

  0  0  0  0  0  0  0  0  0  0999 V3000
M  V30 BEGIN CTAB
M  V30 COUNTS 52 55 0 0 0
M  V30 BEGIN ATOM
M  V30 1 C 0.431328 -5.736476 3.102773 0
M  V30 2 N 0.790056 -4.351150 2.899236 0
M  V30 3 C -0.359265 -3.616046 2.360236 0
M  V30 4 C -0.177322 -2.121384 2.498839 0
M  V30 5 C 1.312055 -1.893352 2.641364 0
M  V30 6 C 1.975019 -2.791600 1.578603 0 CFG=1
M  V30 7 C 3.335835 -2.196447 1.281042 0
M  V30 8 N 3.061874 -0.863204 0.782868 0
M  V30 9 C 2.492460 -0.898791 -0.532007 0
M  V30 10 N 2.230468 0.462836 -0.406617 0
M  V30 11 C 1.659510 1.337987 -1.234945 0
M  V30 12 N 1.353785 2.767880 -1.112273 0
M  V30 13 C 0.037710 3.145319 -0.732245 0
M  V30 14 C -0.341893 4.432499 -0.424284 0
M  V30 15 C -1.633835 4.795542 -0.070202 0
M  V30 16 C -2.556549 3.739588 -0.044112 0
M  V30 17 C -2.274720 2.414231 -0.336718 0
M  V30 18 N -3.255879 1.403655 -0.290712 0
M  V30 19 C -4.446661 1.412200 -0.894982 0
M  V30 20 C -5.123377 0.249866 -0.616863 0
M  V30 21 Cl -6.664650 -0.458877 -1.016130 0
M  V30 22 C -4.275699 -0.476695 0.196655 0
M  V30 23 N -3.140274 0.257285 0.378210 0
M  V30 24 C -0.965487 2.209646 -0.667670 0
M  V30 25 N 1.219506 0.945932 -2.441556 0
M  V30 26 C 1.376480 -0.341198 -2.773728 0
M  V30 27 C 1.974506 -0.928836 -1.727624 0
M  V30 28 F 2.339867 -2.309878 -1.724078 0
M  V30 29 C 1.986990 -4.176039 2.115629 0
M  V30 30 H -0.416346 -5.722467 3.837988 0
M  V30 31 H 0.032182 -6.220045 2.187078 0
M  V30 32 H 1.314857 -6.279919 3.458914 0
M  V30 33 H -0.595506 -3.913567 1.316917 0
M  V30 34 H -1.219386 -3.919070 2.978364 0
M  V30 35 H -0.741276 -1.713803 3.353794 0
M  V30 36 H -0.455495 -1.602947 1.538727 0
M  V30 37 H 1.608192 -0.841466 2.544352 0
M  V30 38 H 1.596794 -2.317183 3.644989 0
M  V30 39 H 1.348749 -2.726077 0.672111 0
M  V30 40 H 3.813474 -2.773145 0.456457 0
M  V30 41 H 4.012575 -2.225609 2.121093 0
M  V30 42 H 3.348441 -0.237529 1.553464 0
M  V30 43 H 2.016968 3.574910 -1.275080 0
M  V30 44 H 0.454851 5.177800 -0.475551 0
M  V30 45 H -1.908176 5.805137 0.165984 0
M  V30 46 H -3.553836 4.054450 0.232430 0
M  V30 47 H -4.921328 2.144944 -1.522465 0
M  V30 48 H -4.217428 -1.428857 0.733309 0
M  V30 49 H -0.677027 1.178047 -0.911392 0
M  V30 50 H 1.202304 -1.050518 -3.551428 0
M  V30 51 H 2.860573 -4.313859 2.798662 0
M  V30 52 H 2.098342 -4.960266 1.336260 0
M  V30 END ATOM
M  V30 BEGIN BOND
M  V30 1 1 1 2
M  V30 2 1 2 3
M  V30 3 1 3 4
M  V30 4 1 4 5
M  V30 5 1 5 6
M  V30 6 1 6 7
M  V30 7 1 7 8
M  V30 8 1 8 9
M  V30 9 2 9 10
M  V30 10 1 10 11
M  V30 11 1 11 12
M  V30 12 1 12 13
M  V30 13 2 13 14
M  V30 14 1 14 15
M  V30 15 2 15 16
M  V30 16 1 16 17
M  V30 17 1 17 18
M  V30 18 1 18 19
M  V30 19 2 19 20
M  V30 20 1 20 21
M  V30 21 1 20 22
M  V30 22 2 22 23
M  V30 23 2 17 24
M  V30 24 2 11 25
M  V30 25 1 25 26
M  V30 26 2 26 27
M  V30 27 1 27 28
M  V30 28 1 6 29
M  V30 29 1 29 2
M  V30 30 1 27 9
M  V30 31 1 24 13
M  V30 32 1 23 18
M  V30 33 1 1 30
M  V30 34 1 1 31
M  V30 35 1 1 32
M  V30 36 1 3 33
M  V30 37 1 3 34
M  V30 38 1 4 35
M  V30 39 1 4 36
M  V30 40 1 5 37
M  V30 41 1 5 38
M  V30 42 1 6 39 CFG=3
M  V30 43 1 7 40
M  V30 44 1 7 41
M  V30 45 1 8 42
M  V30 46 1 12 43
M  V30 47 1 14 44
M  V30 48 1 15 45
M  V30 49 1 16 46
M  V30 50 1 19 47
M  V30 51 1 22 48
M  V30 52 1 24 49
M  V30 53 1 26 50
M  V30 54 1 29 51
M  V30 55 1 29 52
M  V30 END BOND
M  V30 END CTAB
M  END
>  <Dataset>  (923) 
ChEMBL_Kinases

>  <Ligand_Instance>  (923) 
nan

>  <PDB_ID>  (923) 
nan

>  <Standardized_SMILES>  (923) 
CN1CCC[C@@H](CNc2nc(Nc3cccc(-n4cc(Cl)cn4)c3)ncc2F)C1

>  <Name>  (923) 
nan

>  <Pocket>  (923) 
nan

>  <ATP_Site>  (923) 
nan

>  <Peripheral>  (923) 
nan

>  <Num_H_Atoms_ProtBoundConf>  (923) 
nan

>  <Num_Resolved_Atoms>  (923) 
nan

>  <Num_Not_Resolved_Atoms>  (923) 
nan

$$$$
CHEMBL3586047
     RDKit          3D

  0  0  0  0  0  0  0  0  0  0999 V3000
M  V30 BEGIN CTAB
M  V30 COUNTS 55 58 0 0 0
M  V30 BEGIN ATOM
M  V30 1 C 1.241436 -2.201033 5.255695 0
M  V30 2 C 2.231717 -2.097349 4.138996 0
M  V30 3 C 3.279864 -2.985392 3.984018 0
M  V30 4 N 3.959391 -2.593010 2.886718 0
M  V30 5 N 3.417675 -1.533879 2.349363 0
M  V30 6 C 3.821584 -0.802060 1.171976 0
M  V30 7 C 5.057273 -0.980384 0.591021 0
M  V30 8 C 5.404572 -0.267590 -0.541282 0
M  V30 9 C 4.497043 0.604443 -1.056409 0
M  V30 10 C 3.237834 0.847710 -0.542561 0
M  V30 11 N 2.268859 1.738093 -1.073378 0
M  V30 12 C 1.063911 2.008542 -0.370716 0
M  V30 13 N 1.017991 3.261905 0.101035 0
M  V30 14 C -0.003165 3.759335 0.807745 0
M  V30 15 C -1.073487 2.936468 1.067718 0
M  V30 16 F -2.189244 3.265130 1.760626 0
M  V30 17 C -1.058253 1.640624 0.597122 0
M  V30 18 N -2.024154 0.613459 0.769195 0
M  V30 19 C -2.013132 -0.749206 0.271065 0
M  V30 20 C -2.124599 -0.684673 -1.223217 0 CFG=2
M  V30 21 C -3.440008 0.011739 -1.518343 0
M  V30 22 C -4.584808 -0.789132 -0.964657 0
M  V30 23 C -4.523083 -2.221638 -1.336395 0
M  V30 24 N -3.266935 -2.834158 -1.485571 0
M  V30 25 C -3.005917 -4.019296 -0.736731 0
M  V30 26 C -2.151207 -2.050730 -1.862968 0
M  V30 27 N 0.009474 1.190919 -0.116927 0
M  V30 28 C 2.978065 0.098482 0.579047 0
M  V30 29 C 2.345716 -1.193835 3.092673 0
M  V30 30 H 0.856685 -3.244493 5.343893 0
M  V30 31 H 0.362393 -1.547241 5.120532 0
M  V30 32 H 1.662415 -1.961038 6.239675 0
M  V30 33 H 3.580344 -3.849537 4.569363 0
M  V30 34 H 5.757843 -1.682184 1.024881 0
M  V30 35 H 6.387321 -0.433636 -0.969807 0
M  V30 36 H 4.780755 1.168830 -1.958130 0
M  V30 37 H 2.353909 2.248092 -1.970759 0
M  V30 38 H -0.046813 4.768424 1.193369 0
M  V30 39 H -2.831148 0.985413 1.357800 0
M  V30 40 H -1.093608 -1.290143 0.603479 0
M  V30 41 H -2.887440 -1.263452 0.708719 0
M  V30 42 H -1.304379 -0.096529 -1.629833 0
M  V30 43 H -3.410509 0.983492 -0.957524 0
M  V30 44 H -3.521972 0.257515 -2.580378 0
M  V30 45 H -5.514550 -0.344353 -1.433808 0
M  V30 46 H -4.705237 -0.590814 0.115162 0
M  V30 47 H -5.098735 -2.368087 -2.296993 0
M  V30 48 H -5.109204 -2.841903 -0.601379 0
M  V30 49 H -3.772508 -4.187549 0.046868 0
M  V30 50 H -3.103506 -4.886453 -1.454722 0
M  V30 51 H -1.960917 -4.110976 -0.362018 0
M  V30 52 H -1.218544 -2.599660 -1.669682 0
M  V30 53 H -2.213685 -1.873024 -2.972933 0
M  V30 54 H 1.996204 0.221461 1.064676 0
M  V30 55 H 1.625558 -0.376575 2.981938 0
M  V30 END ATOM
M  V30 BEGIN BOND
M  V30 1 1 1 2
M  V30 2 1 2 3
M  V30 3 2 3 4
M  V30 4 1 4 5
M  V30 5 1 5 6
M  V30 6 2 6 7
M  V30 7 1 7 8
M  V30 8 2 8 9
M  V30 9 1 9 10
M  V30 10 1 10 11
M  V30 11 1 11 12
M  V30 12 2 12 13
M  V30 13 1 13 14
M  V30 14 2 14 15
M  V30 15 1 15 16
M  V30 16 1 15 17
M  V30 17 1 17 18
M  V30 18 1 18 19
M  V30 19 1 19 20
M  V30 20 1 20 21
M  V30 21 1 21 22
M  V30 22 1 22 23
M  V30 23 1 23 24
M  V30 24 1 24 25
M  V30 25 1 24 26
M  V30 26 2 17 27
M  V30 27 2 10 28
M  V30 28 1 5 29
M  V30 29 2 29 2
M  V30 30 1 28 6
M  V30 31 1 27 12
M  V30 32 1 26 20
M  V30 33 1 1 30
M  V30 34 1 1 31
M  V30 35 1 1 32
M  V30 36 1 3 33
M  V30 37 1 7 34
M  V30 38 1 8 35
M  V30 39 1 9 36
M  V30 40 1 11 37
M  V30 41 1 14 38
M  V30 42 1 18 39
M  V30 43 1 19 40
M  V30 44 1 19 41
M  V30 45 1 20 42 CFG=3
M  V30 46 1 21 43
M  V30 47 1 21 44
M  V30 48 1 22 45
M  V30 49 1 22 46
M  V30 50 1 23 47
M  V30 51 1 23 48
M  V30 52 1 25 49
M  V30 53 1 25 50
M  V30 54 1 25 51
M  V30 55 1 26 52
M  V30 56 1 26 53
M  V30 57 1 28 54
M  V30 58 1 29 55
M  V30 END BOND
M  V30 END CTAB
M  END
>  <Dataset>  (924) 
ChEMBL_Kinases

>  <Ligand_Instance>  (924) 
nan

>  <PDB_ID>  (924) 
nan

>  <Standardized_SMILES>  (924) 
Cc1cnn(-c2cccc(Nc3ncc(F)c(NC[C@@H]4CCCN(C)C4)n3)c2)c1

>  <Name>  (924) 
nan

>  <Pocket>  (924) 
nan

>  <ATP_Site>  (924) 
nan

>  <Peripheral>  (924) 
nan

>  <Num_H_Atoms_ProtBoundConf>  (924) 
nan

>  <Num_Resolved_Atoms>  (924) 
nan

>  <Num_Not_Resolved_Atoms>  (924) 
nan

$$$$
CHEMBL3586046
     RDKit          3D

  0  0  0  0  0  0  0  0  0  0999 V3000
M  V30 BEGIN CTAB
M  V30 COUNTS 52 55 0 0 0
M  V30 BEGIN ATOM
M  V30 1 C 0.425479 2.019255 2.590983 0
M  V30 2 N -0.215189 0.845155 2.119586 0
M  V30 3 C -1.438926 0.466494 2.707228 0
M  V30 4 C -1.484031 -0.747516 3.550123 0
M  V30 5 C -0.449244 -1.803352 3.267252 0
M  V30 6 C 0.888629 -1.135913 3.006191 0 CFG=1
M  V30 7 C 1.996149 -2.098927 2.850136 0
M  V30 8 N 1.929385 -3.058424 1.809685 0
M  V30 9 C 2.007117 -2.970531 0.373460 0
M  V30 10 N 2.189502 -1.861844 -0.352184 0
M  V30 11 C 2.269140 -1.723840 -1.660071 0
M  V30 12 N 2.471341 -0.326714 -1.915532 0
M  V30 13 C 1.275542 0.452477 -1.805666 0
M  V30 14 C 1.321946 1.824461 -1.873241 0
M  V30 15 C 0.199570 2.652239 -1.755376 0
M  V30 16 C -1.003308 1.996169 -1.560452 0
M  V30 17 C -1.149119 0.625204 -1.479505 0
M  V30 18 N -2.398835 -0.013464 -1.261882 0
M  V30 19 C -2.501875 -1.235279 -0.662023 0
M  V30 20 C -3.857386 -1.574716 -0.589457 0
M  V30 21 C -4.523061 -0.512943 -1.164258 0
M  V30 22 N -3.612638 0.418506 -1.562424 0
M  V30 23 C 0.015767 -0.072175 -1.609303 0
M  V30 24 N 2.153801 -2.842310 -2.395685 0
M  V30 25 C 1.968347 -4.021029 -1.791500 0
M  V30 26 C 1.892140 -4.117299 -0.424978 0
M  V30 27 F 1.704259 -5.334360 0.148949 0
M  V30 28 C 0.662085 -0.262500 1.797975 0
M  V30 29 H 0.575155 2.096524 3.677922 0
M  V30 30 H 1.461533 2.026935 2.145214 0
M  V30 31 H -0.076707 2.898268 2.137180 0
M  V30 32 H -1.817453 1.326844 3.322253 0
M  V30 33 H -2.190229 0.346026 1.872142 0
M  V30 34 H -2.490491 -1.244659 3.404223 0
M  V30 35 H -1.461402 -0.487001 4.644016 0
M  V30 36 H -0.701020 -2.387103 2.348342 0
M  V30 37 H -0.413459 -2.503210 4.106773 0
M  V30 38 H 1.061682 -0.460239 3.855115 0
M  V30 39 H 2.976307 -1.533803 2.795260 0
M  V30 40 H 2.069144 -2.660672 3.832680 0
M  V30 41 H 1.792476 -4.057696 2.127018 0
M  V30 42 H 3.345858 0.142711 -2.155601 0
M  V30 43 H 2.307975 2.258382 -2.027758 0
M  V30 44 H 0.278386 3.717419 -1.812247 0
M  V30 45 H -1.918689 2.600061 -1.457585 0
M  V30 46 H -1.758165 -1.914987 -0.270581 0
M  V30 47 H -4.381922 -2.443488 -0.195571 0
M  V30 48 H -5.588841 -0.397604 -1.298697 0
M  V30 49 H -0.048444 -1.168343 -1.553366 0
M  V30 50 H 1.882334 -4.885329 -2.425039 0
M  V30 51 H 0.108264 -0.899531 1.081555 0
M  V30 52 H 1.615463 0.147129 1.472408 0
M  V30 END ATOM
M  V30 BEGIN BOND
M  V30 1 1 1 2
M  V30 2 1 2 3
M  V30 3 1 3 4
M  V30 4 1 4 5
M  V30 5 1 5 6
M  V30 6 1 6 7
M  V30 7 1 7 8
M  V30 8 1 8 9
M  V30 9 2 9 10
M  V30 10 1 10 11
M  V30 11 1 11 12
M  V30 12 1 12 13
M  V30 13 2 13 14
M  V30 14 1 14 15
M  V30 15 2 15 16
M  V30 16 1 16 17
M  V30 17 1 17 18
M  V30 18 1 18 19
M  V30 19 2 19 20
M  V30 20 1 20 21
M  V30 21 2 21 22
M  V30 22 2 17 23
M  V30 23 2 11 24
M  V30 24 1 24 25
M  V30 25 2 25 26
M  V30 26 1 26 27
M  V30 27 1 6 28
M  V30 28 1 28 2
M  V30 29 1 26 9
M  V30 30 1 23 13
M  V30 31 1 22 18
M  V30 32 1 1 29
M  V30 33 1 1 30
M  V30 34 1 1 31
M  V30 35 1 3 32
M  V30 36 1 3 33
M  V30 37 1 4 34
M  V30 38 1 4 35
M  V30 39 1 5 36
M  V30 40 1 5 37
M  V30 41 1 6 38 CFG=1
M  V30 42 1 7 39
M  V30 43 1 7 40
M  V30 44 1 8 41
M  V30 45 1 12 42
M  V30 46 1 14 43
M  V30 47 1 15 44
M  V30 48 1 16 45
M  V30 49 1 19 46
M  V30 50 1 20 47
M  V30 51 1 21 48
M  V30 52 1 23 49
M  V30 53 1 25 50
M  V30 54 1 28 51
M  V30 55 1 28 52
M  V30 END BOND
M  V30 END CTAB
M  END
>  <Dataset>  (925) 
ChEMBL_Kinases

>  <Ligand_Instance>  (925) 
nan

>  <PDB_ID>  (925) 
nan

>  <Standardized_SMILES>  (925) 
CN1CCC[C@@H](CNc2nc(Nc3cccc(-n4cccn4)c3)ncc2F)C1

>  <Name>  (925) 
nan

>  <Pocket>  (925) 
nan

>  <ATP_Site>  (925) 
nan

>  <Peripheral>  (925) 
nan

>  <Num_H_Atoms_ProtBoundConf>  (925) 
nan

>  <Num_Resolved_Atoms>  (925) 
nan

>  <Num_Not_Resolved_Atoms>  (925) 
nan

$$$$
CHEMBL3586045
     RDKit          3D

  0  0  0  0  0  0  0  0  0  0999 V3000
M  V30 BEGIN CTAB
M  V30 COUNTS 51 54 0 0 0
M  V30 BEGIN ATOM
M  V30 1 C -1.157513 -2.004303 3.775470 0
M  V30 2 N 0.135284 -1.342298 3.559122 0
M  V30 3 C -0.047745 0.093434 3.424571 0
M  V30 4 C 1.310588 0.712089 3.316208 0
M  V30 5 C 2.364601 -0.232489 2.841223 0
M  V30 6 C 1.824658 -1.177063 1.757543 0 CFG=1
M  V30 7 C 2.947649 -2.008249 1.263293 0
M  V30 8 N 2.668409 -2.964101 0.249672 0
M  V30 9 C 2.121256 -2.502937 -1.004075 0
M  V30 10 N 1.850665 -1.223929 -1.262436 0
M  V30 11 C 1.341774 -0.711111 -2.374729 0
M  V30 12 N 1.199488 0.708964 -2.263524 0
M  V30 13 C 0.019957 1.223737 -1.612824 0
M  V30 14 C -0.160278 2.582080 -1.475498 0
M  V30 15 C -1.256095 3.138412 -0.856838 0
M  V30 16 C -2.207279 2.256421 -0.358140 0
M  V30 17 C -2.043044 0.878928 -0.487034 0
M  V30 18 C -3.095914 0.039156 0.077142 0
M  V30 19 C -3.240856 -1.338217 0.090036 0
M  V30 20 N -4.403029 -1.628201 0.744403 0
M  V30 21 C -4.934836 -0.442741 1.112174 0
M  V30 22 O -4.136141 0.488485 0.699863 0
M  V30 23 C -0.929852 0.362012 -1.113788 0
M  V30 24 N 1.072523 -1.577747 -3.341503 0
M  V30 25 C 1.302619 -2.887278 -3.197929 0
M  V30 26 C 1.831134 -3.410931 -2.039217 0
M  V30 27 F 2.074519 -4.743003 -1.870778 0
M  V30 28 C 0.642433 -1.872379 2.303229 0
M  V30 29 H -1.855038 -1.303322 4.246156 0
M  V30 30 H -0.980006 -2.874139 4.420784 0
M  V30 31 H -1.615357 -2.323153 2.818301 0
M  V30 32 H -0.587313 0.421125 4.359542 0
M  V30 33 H -0.700095 0.369498 2.584958 0
M  V30 34 H 1.307610 1.641752 2.709077 0
M  V30 35 H 1.607273 0.997893 4.366595 0
M  V30 36 H 3.174542 0.366327 2.358046 0
M  V30 37 H 2.800663 -0.811631 3.666371 0
M  V30 38 H 1.527878 -0.462724 0.933085 0
M  V30 39 H 3.783535 -1.357840 0.872515 0
M  V30 40 H 3.426236 -2.545246 2.118047 0
M  V30 41 H 2.830069 -3.992278 0.339967 0
M  V30 42 H 1.901475 1.394392 -2.628395 0
M  V30 43 H 0.580238 3.274669 -1.863616 0
M  V30 44 H -1.361521 4.214857 -0.768829 0
M  V30 45 H -3.062039 2.706971 0.124719 0
M  V30 46 H -2.537445 -2.026154 -0.351745 0
M  V30 47 H -5.848651 -0.275983 1.647460 0
M  V30 48 H -0.828951 -0.731286 -1.201138 0
M  V30 49 H 1.059895 -3.529137 -4.025546 0
M  V30 50 H 0.734277 -2.961283 2.467703 0
M  V30 51 H -0.204549 -1.736752 1.574968 0
M  V30 END ATOM
M  V30 BEGIN BOND
M  V30 1 1 1 2
M  V30 2 1 2 3
M  V30 3 1 3 4
M  V30 4 1 4 5
M  V30 5 1 5 6
M  V30 6 1 6 7
M  V30 7 1 7 8
M  V30 8 1 8 9
M  V30 9 2 9 10
M  V30 10 1 10 11
M  V30 11 1 11 12
M  V30 12 1 12 13
M  V30 13 2 13 14
M  V30 14 1 14 15
M  V30 15 2 15 16
M  V30 16 1 16 17
M  V30 17 1 17 18
M  V30 18 2 18 19
M  V30 19 1 19 20
M  V30 20 2 20 21
M  V30 21 1 21 22
M  V30 22 2 17 23
M  V30 23 2 11 24
M  V30 24 1 24 25
M  V30 25 2 25 26
M  V30 26 1 26 27
M  V30 27 1 6 28
M  V30 28 1 28 2
M  V30 29 1 26 9
M  V30 30 1 23 13
M  V30 31 1 22 18
M  V30 32 1 1 29
M  V30 33 1 1 30
M  V30 34 1 1 31
M  V30 35 1 3 32
M  V30 36 1 3 33
M  V30 37 1 4 34
M  V30 38 1 4 35
M  V30 39 1 5 36
M  V30 40 1 5 37
M  V30 41 1 6 38 CFG=3
M  V30 42 1 7 39
M  V30 43 1 7 40
M  V30 44 1 8 41
M  V30 45 1 12 42
M  V30 46 1 14 43
M  V30 47 1 15 44
M  V30 48 1 16 45
M  V30 49 1 19 46
M  V30 50 1 21 47
M  V30 51 1 23 48
M  V30 52 1 25 49
M  V30 53 1 28 50
M  V30 54 1 28 51
M  V30 END BOND
M  V30 END CTAB
M  END
>  <Dataset>  (926) 
ChEMBL_Kinases

>  <Ligand_Instance>  (926) 
nan

>  <PDB_ID>  (926) 
nan

>  <Standardized_SMILES>  (926) 
CN1CCC[C@@H](CNc2nc(Nc3cccc(-c4cnco4)c3)ncc2F)C1

>  <Name>  (926) 
nan

>  <Pocket>  (926) 
nan

>  <ATP_Site>  (926) 
nan

>  <Peripheral>  (926) 
nan

>  <Num_H_Atoms_ProtBoundConf>  (926) 
nan

>  <Num_Resolved_Atoms>  (926) 
nan

>  <Num_Not_Resolved_Atoms>  (926) 
nan

$$$$
CHEMBL3586044
     RDKit          3D

  0  0  0  0  0  0  0  0  0  0999 V3000
M  V30 BEGIN CTAB
M  V30 COUNTS 51 54 0 0 0
M  V30 BEGIN ATOM
M  V30 1 C -0.632092 -2.749281 4.469233 0
M  V30 2 N 0.224706 -1.732882 3.911912 0
M  V30 3 C -0.086583 -0.406851 4.404795 0
M  V30 4 C 0.952921 0.530084 3.824251 0
M  V30 5 C 2.031541 -0.253540 3.097289 0
M  V30 6 C 1.453380 -1.088158 1.976796 0 CFG=1
M  V30 7 C 2.482184 -2.158762 1.649721 0
M  V30 8 N 2.079602 -3.044334 0.597611 0
M  V30 9 C 1.774106 -2.592315 -0.712220 0
M  V30 10 N 1.837644 -1.289030 -1.052176 0
M  V30 11 C 1.541163 -0.849900 -2.296223 0
M  V30 12 N 1.658897 0.570136 -2.473224 0
M  V30 13 C 0.518119 1.337360 -2.105987 0
M  V30 14 C 0.430992 2.719311 -2.255696 0
M  V30 15 C -0.716116 3.411740 -1.868558 0
M  V30 16 C -1.801015 2.764374 -1.326341 0
M  V30 17 C -1.781993 1.383074 -1.147944 0
M  V30 18 N -2.841808 0.594692 -0.594557 0
M  V30 19 C -3.706042 -0.375117 -0.967036 0
M  V30 20 C -4.469647 -0.671871 0.127685 0
M  V30 21 N -4.070372 0.102648 1.129494 0
M  V30 22 N -3.091713 0.858789 0.681509 0
M  V30 23 C -0.619477 0.772906 -1.553328 0
M  V30 24 N 1.164657 -1.728929 -3.255254 0
M  V30 25 C 1.081847 -3.054933 -2.973771 0
M  V30 26 C 1.386050 -3.492452 -1.702385 0
M  V30 27 F 1.300411 -4.817215 -1.434085 0
M  V30 28 C 0.153680 -1.677944 2.468682 0
M  V30 29 H -1.239233 -2.396846 5.325204 0
M  V30 30 H 0.020842 -3.590975 4.800442 0
M  V30 31 H -1.239217 -3.149138 3.622555 0
M  V30 32 H -0.130512 -0.347418 5.508592 0
M  V30 33 H -1.070074 -0.074826 3.992332 0
M  V30 34 H 1.470969 1.019464 4.681889 0
M  V30 35 H 0.518142 1.341078 3.214611 0
M  V30 36 H 2.804682 0.445956 2.758111 0
M  V30 37 H 2.468375 -0.933979 3.879598 0
M  V30 38 H 1.285169 -0.441461 1.084525 0
M  V30 39 H 3.398094 -1.608816 1.338346 0
M  V30 40 H 2.724293 -2.701324 2.587769 0
M  V30 41 H 2.009284 -4.061730 0.806955 0
M  V30 42 H 2.462726 1.112040 -2.832841 0
M  V30 43 H 1.287455 3.228677 -2.682749 0
M  V30 44 H -0.755952 4.502825 -1.997574 0
M  V30 45 H -2.715286 3.263677 -1.010320 0
M  V30 46 H -3.590197 -0.676636 -2.013401 0
M  V30 47 H -5.223394 -1.435104 0.014479 0
M  V30 48 H -0.582598 -0.312390 -1.422369 0
M  V30 49 H 0.774896 -3.718408 -3.776826 0
M  V30 50 H -0.045279 -2.697708 2.088306 0
M  V30 51 H -0.640523 -0.955264 2.136830 0
M  V30 END ATOM
M  V30 BEGIN BOND
M  V30 1 1 1 2
M  V30 2 1 2 3
M  V30 3 1 3 4
M  V30 4 1 4 5
M  V30 5 1 5 6
M  V30 6 1 6 7
M  V30 7 1 7 8
M  V30 8 1 8 9
M  V30 9 2 9 10
M  V30 10 1 10 11
M  V30 11 1 11 12
M  V30 12 1 12 13
M  V30 13 2 13 14
M  V30 14 1 14 15
M  V30 15 2 15 16
M  V30 16 1 16 17
M  V30 17 1 17 18
M  V30 18 1 18 19
M  V30 19 2 19 20
M  V30 20 1 20 21
M  V30 21 2 21 22
M  V30 22 2 17 23
M  V30 23 2 11 24
M  V30 24 1 24 25
M  V30 25 2 25 26
M  V30 26 1 26 27
M  V30 27 1 6 28
M  V30 28 1 28 2
M  V30 29 1 26 9
M  V30 30 1 23 13
M  V30 31 1 22 18
M  V30 32 1 1 29
M  V30 33 1 1 30
M  V30 34 1 1 31
M  V30 35 1 3 32
M  V30 36 1 3 33
M  V30 37 1 4 34
M  V30 38 1 4 35
M  V30 39 1 5 36
M  V30 40 1 5 37
M  V30 41 1 6 38 CFG=3
M  V30 42 1 7 39
M  V30 43 1 7 40
M  V30 44 1 8 41
M  V30 45 1 12 42
M  V30 46 1 14 43
M  V30 47 1 15 44
M  V30 48 1 16 45
M  V30 49 1 19 46
M  V30 50 1 20 47
M  V30 51 1 23 48
M  V30 52 1 25 49
M  V30 53 1 28 50
M  V30 54 1 28 51
M  V30 END BOND
M  V30 END CTAB
M  END
>  <Dataset>  (927) 
ChEMBL_Kinases

>  <Ligand_Instance>  (927) 
nan

>  <PDB_ID>  (927) 
nan

>  <Standardized_SMILES>  (927) 
CN1CCC[C@@H](CNc2nc(Nc3cccc(-n4ccnn4)c3)ncc2F)C1

>  <Name>  (927) 
nan

>  <Pocket>  (927) 
nan

>  <ATP_Site>  (927) 
nan

>  <Peripheral>  (927) 
nan

>  <Num_H_Atoms_ProtBoundConf>  (927) 
nan

>  <Num_Resolved_Atoms>  (927) 
nan

>  <Num_Not_Resolved_Atoms>  (927) 
nan

$$$$
CHEMBL3613601
     RDKit          3D

  0  0  0  0  0  0  0  0  0  0999 V3000
M  V30 BEGIN CTAB
M  V30 COUNTS 54 57 0 0 0
M  V30 BEGIN ATOM
M  V30 1 C 5.066233 -5.203844 -3.188005 0
M  V30 2 O 4.431039 -3.960743 -2.866861 0
M  V30 3 C 4.991524 -2.794728 -3.319680 0
M  V30 4 O 6.056364 -2.756953 -4.016048 0
M  V30 5 C 4.401514 -1.493850 -3.033399 0
M  V30 6 C 4.962903 -0.320842 -3.487897 0
M  V30 7 C 4.392908 0.879810 -3.209197 0
M  V30 8 C 3.243591 0.980319 -2.470142 0
M  V30 9 C 2.614168 -0.168456 -1.973341 0
M  V30 10 N 1.422292 -0.067028 -1.211908 0
M  V30 11 C 1.449761 0.070129 0.187044 0
M  V30 12 O 2.370655 0.137464 1.076691 0
M  V30 13 C 0.609786 0.205649 1.372893 0
M  V30 14 N 1.544024 0.335377 2.506433 0
M  V30 15 C -0.190064 -1.041763 1.684991 0
M  V30 16 C -1.548916 -0.894825 1.049381 0
M  V30 17 N -2.277431 0.116072 1.789308 0
M  V30 18 C -3.652775 0.395686 2.015384 0
M  V30 19 N -3.985519 1.572320 1.405972 0
M  V30 20 C -5.266559 2.034952 1.470428 0
M  V30 21 N -6.247294 1.354552 2.132854 0
M  V30 22 C -5.938887 0.198576 2.736655 0
M  V30 23 N -6.583582 -0.748863 3.475145 0
M  V30 24 C -5.739592 -1.743384 3.846340 0
M  V30 25 C -4.477437 -1.454417 3.338305 0
M  V30 26 C -3.266957 -2.285037 3.528412 0
M  V30 27 C -4.657412 -0.270406 2.676347 0
M  V30 28 C -1.382762 1.078597 2.452942 0
M  V30 29 C -0.293925 1.398746 1.415300 0
M  V30 30 C 3.250444 -1.346777 -2.296666 0
M  V30 31 H 6.142951 -5.010225 -3.341986 0
M  V30 32 H 4.964080 -5.857333 -2.311798 0
M  V30 33 H 4.576036 -5.638893 -4.082948 0
M  V30 34 H 5.872092 -0.374125 -4.073978 0
M  V30 35 H 4.869031 1.797947 -3.588500 0
M  V30 36 H 2.755718 1.937956 -2.226077 0
M  V30 37 H 0.401268 -0.063531 -1.414532 0
M  V30 38 H 1.448415 1.219674 3.008814 0
M  V30 39 H 1.623703 -0.529255 3.050939 0
M  V30 40 H -0.230194 -1.249668 2.765190 0
M  V30 41 H 0.321923 -1.880570 1.140358 0
M  V30 42 H -2.077628 -1.856439 0.942188 0
M  V30 43 H -1.445441 -0.495661 0.016633 0
M  V30 44 H -5.601316 2.954048 1.014057 0
M  V30 45 H -7.617127 -0.661487 3.697262 0
M  V30 46 H -6.008278 -2.608832 4.435463 0
M  V30 47 H -3.193360 -3.012626 2.697792 0
M  V30 48 H -3.394354 -2.936951 4.446685 0
M  V30 49 H -2.363118 -1.700912 3.699233 0
M  V30 50 H -0.873102 0.595864 3.310718 0
M  V30 51 H -1.884183 1.985895 2.783854 0
M  V30 52 H -0.756091 1.664137 0.469262 0
M  V30 53 H 0.269518 2.267392 1.810733 0
M  V30 54 H 2.792319 -2.276188 -1.928345 0
M  V30 END ATOM
M  V30 BEGIN BOND
M  V30 1 1 1 2
M  V30 2 1 2 3
M  V30 3 2 3 4
M  V30 4 1 3 5
M  V30 5 2 5 6
M  V30 6 1 6 7
M  V30 7 2 7 8
M  V30 8 1 8 9
M  V30 9 1 9 10
M  V30 10 1 10 11
M  V30 11 2 11 12
M  V30 12 1 11 13
M  V30 13 1 13 14
M  V30 14 1 13 15
M  V30 15 1 15 16
M  V30 16 1 16 17
M  V30 17 1 17 18
M  V30 18 2 18 19
M  V30 19 1 19 20
M  V30 20 2 20 21
M  V30 21 1 21 22
M  V30 22 1 22 23
M  V30 23 1 23 24
M  V30 24 2 24 25
M  V30 25 1 25 26
M  V30 26 1 25 27
M  V30 27 1 17 28
M  V30 28 1 28 29
M  V30 29 2 9 30
M  V30 30 1 30 5
M  V30 31 1 29 13
M  V30 32 1 27 18
M  V30 33 2 27 22
M  V30 34 1 1 31
M  V30 35 1 1 32
M  V30 36 1 1 33
M  V30 37 1 6 34
M  V30 38 1 7 35
M  V30 39 1 8 36
M  V30 40 1 10 37
M  V30 41 1 14 38
M  V30 42 1 14 39
M  V30 43 1 15 40
M  V30 44 1 15 41
M  V30 45 1 16 42
M  V30 46 1 16 43
M  V30 47 1 20 44
M  V30 48 1 23 45
M  V30 49 1 24 46
M  V30 50 1 26 47
M  V30 51 1 26 48
M  V30 52 1 26 49
M  V30 53 1 28 50
M  V30 54 1 28 51
M  V30 55 1 29 52
M  V30 56 1 29 53
M  V30 57 1 30 54
M  V30 END BOND
M  V30 END CTAB
M  END
>  <Dataset>  (928) 
ChEMBL_Kinases

>  <Ligand_Instance>  (928) 
nan

>  <PDB_ID>  (928) 
nan

>  <Standardized_SMILES>  (928) 
COC(=O)c1cccc(NC(=O)C2(N)CCN(c3ncnc4[nH]cc(C)c34)CC2)c1

>  <Name>  (928) 
nan

>  <Pocket>  (928) 
nan

>  <ATP_Site>  (928) 
nan

>  <Peripheral>  (928) 
nan

>  <Num_H_Atoms_ProtBoundConf>  (928) 
nan

>  <Num_Resolved_Atoms>  (928) 
nan

>  <Num_Not_Resolved_Atoms>  (928) 
nan

$$$$
CHEMBL3582226
     RDKit          3D

  0  0  0  0  0  0  0  0  0  0999 V3000
M  V30 BEGIN CTAB
M  V30 COUNTS 54 59 0 0 0
M  V30 BEGIN ATOM
M  V30 1 C -1.460442 -2.325569 2.298413 0
M  V30 2 C -0.403170 -1.471757 2.038066 0
M  V30 3 C 0.795176 -2.057392 1.673968 0
M  V30 4 C 1.909083 -1.150243 1.399902 0
M  V30 5 C 3.211678 -1.529029 1.653229 0
M  V30 6 N 4.266465 -0.726340 1.417019 0
M  V30 7 C 4.114573 0.519168 0.909583 0
M  V30 8 N 4.989643 1.481622 0.596470 0
M  V30 9 C 4.301437 2.534893 0.123819 0
M  V30 10 C 4.726876 3.766301 -0.331284 0
M  V30 11 N 3.820451 4.671158 -0.762026 0
M  V30 12 C 2.504097 4.379803 -0.750511 0
M  V30 13 C 1.549709 5.374982 -1.219718 0
M  V30 14 C 1.811805 6.648772 -1.702977 0
M  V30 15 N 0.615248 7.209536 -2.019791 0
M  V30 16 O -0.321650 6.355714 -1.756376 0
M  V30 17 C 0.178062 5.261085 -1.283584 0
M  V30 18 C 2.039957 3.167182 -0.305917 0
M  V30 19 C 2.949327 2.230105 0.137909 0
M  V30 20 C 2.810376 0.947516 0.636350 0
M  V30 21 C 1.732010 0.120290 0.880439 0
M  V30 22 C 0.913382 -3.431272 1.579593 0
M  V30 23 C -0.165119 -4.254302 1.847340 0
M  V30 24 C -1.382060 -3.718022 2.214456 0
M  V30 25 C -2.631453 -4.450821 2.540892 0
M  V30 26 N -3.514485 -4.667658 1.452544 0
M  V30 27 C -3.028713 -5.408177 0.345586 0
M  V30 28 C -3.590301 -4.853639 -0.945438 0
M  V30 29 C -3.302015 -3.367403 -0.996839 0
M  V30 30 C -4.089269 -2.711541 0.102787 0
M  V30 31 C -4.474377 -3.654095 1.190918 0
M  V30 32 H -2.400027 -1.836069 2.585439 0
M  V30 33 H -0.525076 -0.403765 2.119871 0
M  V30 34 H 3.457527 -2.503764 2.060424 0
M  V30 35 H 6.023297 1.437105 0.695898 0
M  V30 36 H 5.783404 4.064685 -0.366369 0
M  V30 37 H 2.782276 7.097789 -1.803495 0
M  V30 38 H -0.424152 4.415753 -0.996930 0
M  V30 39 H 0.981126 2.919478 -0.291565 0
M  V30 40 H 0.727036 0.473000 0.660943 0
M  V30 41 H 1.858173 -3.870044 1.293390 0
M  V30 42 H -0.131350 -5.331497 1.792697 0
M  V30 43 H -2.379743 -5.406820 3.090167 0
M  V30 44 H -3.217807 -3.877553 3.312997 0
M  V30 45 H -1.930500 -5.385867 0.228081 0
M  V30 46 H -3.337796 -6.469133 0.484255 0
M  V30 47 H -4.676718 -5.057239 -0.996166 0
M  V30 48 H -3.070120 -5.312918 -1.829782 0
M  V30 49 H -3.579686 -2.946558 -1.994080 0
M  V30 50 H -2.208811 -3.233594 -0.857680 0
M  V30 51 H -5.047604 -2.365051 -0.385767 0
M  V30 52 H -3.622042 -1.760708 0.452445 0
M  V30 53 H -5.511036 -4.030814 1.057863 0
M  V30 54 H -4.535714 -3.030737 2.131242 0
M  V30 END ATOM
M  V30 BEGIN BOND
M  V30 1 2 1 2
M  V30 2 1 2 3
M  V30 3 1 3 4
M  V30 4 2 4 5
M  V30 5 1 5 6
M  V30 6 2 6 7
M  V30 7 1 7 8
M  V30 8 1 8 9
M  V30 9 2 9 10
M  V30 10 1 10 11
M  V30 11 2 11 12
M  V30 12 1 12 13
M  V30 13 1 13 14
M  V30 14 2 14 15
M  V30 15 1 15 16
M  V30 16 1 16 17
M  V30 17 1 12 18
M  V30 18 2 18 19
M  V30 19 1 19 20
M  V30 20 2 20 21
M  V30 21 2 3 22
M  V30 22 1 22 23
M  V30 23 2 23 24
M  V30 24 1 24 25
M  V30 25 1 25 26
M  V30 26 1 26 27
M  V30 27 1 27 28
M  V30 28 1 28 29
M  V30 29 1 29 30
M  V30 30 1 30 31
M  V30 31 1 24 1
M  V30 32 1 31 26
M  V30 33 1 21 4
M  V30 34 1 20 7
M  V30 35 1 19 9
M  V30 36 2 17 13
M  V30 37 1 1 32
M  V30 38 1 2 33
M  V30 39 1 5 34
M  V30 40 1 8 35
M  V30 41 1 10 36
M  V30 42 1 14 37
M  V30 43 1 17 38
M  V30 44 1 18 39
M  V30 45 1 21 40
M  V30 46 1 22 41
M  V30 47 1 23 42
M  V30 48 1 25 43
M  V30 49 1 25 44
M  V30 50 1 27 45
M  V30 51 1 27 46
M  V30 52 1 28 47
M  V30 53 1 28 48
M  V30 54 1 29 49
M  V30 55 1 29 50
M  V30 56 1 30 51
M  V30 57 1 30 52
M  V30 58 1 31 53
M  V30 59 1 31 54
M  V30 END BOND
M  V30 END CTAB
M  END
>  <Dataset>  (929) 
ChEMBL_Kinases

>  <Ligand_Instance>  (929) 
nan

>  <PDB_ID>  (929) 
nan

>  <Standardized_SMILES>  (929) 
c1cc(-c2cnc3[nH]c4cnc(-c5cnoc5)cc4c3c2)ccc1CN1CCCCC1

>  <Name>  (929) 
nan

>  <Pocket>  (929) 
nan

>  <ATP_Site>  (929) 
nan

>  <Peripheral>  (929) 
nan

>  <Num_H_Atoms_ProtBoundConf>  (929) 
nan

>  <Num_Resolved_Atoms>  (929) 
nan

>  <Num_Not_Resolved_Atoms>  (929) 
nan

$$$$
CHEMBL3582227
     RDKit          3D

  0  0  0  0  0  0  0  0  0  0999 V3000
M  V30 BEGIN CTAB
M  V30 COUNTS 58 63 0 0 0
M  V30 BEGIN ATOM
M  V30 1 C 2.299881 -2.800858 6.772583 0
M  V30 2 N 3.005437 -1.629093 6.266583 0
M  V30 3 C 2.832287 -1.075759 5.031288 0
M  V30 4 C 3.706432 0.008083 4.999004 0
M  V30 5 C 3.922966 0.952023 3.898420 0
M  V30 6 C 3.193027 0.772881 2.750558 0
M  V30 7 C 3.366720 1.644870 1.681140 0
M  V30 8 C 4.252029 2.699888 1.717179 0
M  V30 9 C 4.951758 2.822308 2.897447 0
M  V30 10 N 4.788041 1.981561 3.935940 0
M  V30 11 N 4.173391 3.333733 0.536014 0
M  V30 12 C 3.279218 2.753713 -0.286589 0
M  V30 13 N 2.825272 2.973989 -1.537228 0
M  V30 14 C 1.892050 2.193459 -2.111920 0
M  V30 15 C 1.351258 1.118442 -1.436860 0
M  V30 16 C 0.337784 0.192560 -1.933021 0
M  V30 17 C 0.292401 -1.147478 -1.530773 0
M  V30 18 C -0.683430 -2.005493 -2.018601 0
M  V30 19 C -1.645983 -1.549840 -2.925396 0
M  V30 20 C -2.581461 -2.634155 -3.315371 0
M  V30 21 N -3.656187 -2.674061 -2.380217 0
M  V30 22 C -4.441959 -1.495607 -2.254137 0
M  V30 23 C -5.180892 -1.576588 -0.917531 0
M  V30 24 C -5.348109 -2.961451 -0.404969 0
M  V30 25 C -5.485840 -4.002512 -1.483508 0
M  V30 26 C -4.548729 -3.783659 -2.637040 0
M  V30 27 C -1.614386 -0.233244 -3.331167 0
M  V30 28 C -0.636127 0.600655 -2.833361 0
M  V30 29 C 1.807516 0.882653 -0.156419 0
M  V30 30 C 2.763123 1.677700 0.438763 0
M  V30 31 C 4.366393 0.062012 6.210404 0
M  V30 32 N 3.914648 -0.954679 6.965204 0
M  V30 33 H 2.074893 -3.539069 5.964594 0
M  V30 34 H 1.342934 -2.508557 7.251387 0
M  V30 35 H 2.930773 -3.320117 7.527048 0
M  V30 36 H 2.175752 -1.393221 4.252603 0
M  V30 37 H 2.476152 -0.048924 2.668856 0
M  V30 38 H 5.664680 3.637824 2.981988 0
M  V30 39 H 4.737472 4.174060 0.287091 0
M  V30 40 H 1.508725 2.344707 -3.112050 0
M  V30 41 H 1.055864 -1.493816 -0.816710 0
M  V30 42 H -0.608333 -3.021061 -1.627376 0
M  V30 43 H -3.043161 -2.312672 -4.296961 0
M  V30 44 H -2.086468 -3.595970 -3.461293 0
M  V30 45 H -3.913728 -0.541376 -2.301467 0
M  V30 46 H -5.278583 -1.520914 -3.012496 0
M  V30 47 H -6.115988 -0.974976 -0.916702 0
M  V30 48 H -4.503763 -1.044977 -0.185962 0
M  V30 49 H -4.527570 -3.256454 0.309201 0
M  V30 50 H -6.273404 -2.994355 0.207070 0
M  V30 51 H -5.227692 -4.977224 -1.020404 0
M  V30 52 H -6.547539 -4.083882 -1.808520 0
M  V30 53 H -5.157719 -3.510249 -3.522539 0
M  V30 54 H -3.946365 -4.659147 -2.893876 0
M  V30 55 H -2.376780 0.024470 -4.021343 0
M  V30 56 H -0.671656 1.618884 -3.194200 0
M  V30 57 H 1.438782 0.067693 0.436958 0
M  V30 58 H 5.118803 0.745419 6.585949 0
M  V30 END ATOM
M  V30 BEGIN BOND
M  V30 1 1 1 2
M  V30 2 1 2 3
M  V30 3 2 3 4
M  V30 4 1 4 5
M  V30 5 2 5 6
M  V30 6 1 6 7
M  V30 7 2 7 8
M  V30 8 1 8 9
M  V30 9 2 9 10
M  V30 10 1 8 11
M  V30 11 1 11 12
M  V30 12 2 12 13
M  V30 13 1 13 14
M  V30 14 2 14 15
M  V30 15 1 15 16
M  V30 16 2 16 17
M  V30 17 1 17 18
M  V30 18 2 18 19
M  V30 19 1 19 20
M  V30 20 1 20 21
M  V30 21 1 21 22
M  V30 22 1 22 23
M  V30 23 1 23 24
M  V30 24 1 24 25
M  V30 25 1 25 26
M  V30 26 1 19 27
M  V30 27 2 27 28
M  V30 28 1 15 29
M  V30 29 2 29 30
M  V30 30 1 4 31
M  V30 31 2 31 32
M  V30 32 1 32 2
M  V30 33 1 10 5
M  V30 34 1 30 12
M  V30 35 1 30 7
M  V30 36 1 28 16
M  V30 37 1 26 21
M  V30 38 1 1 33
M  V30 39 1 1 34
M  V30 40 1 1 35
M  V30 41 1 3 36
M  V30 42 1 6 37
M  V30 43 1 9 38
M  V30 44 1 11 39
M  V30 45 1 14 40
M  V30 46 1 17 41
M  V30 47 1 18 42
M  V30 48 1 20 43
M  V30 49 1 20 44
M  V30 50 1 22 45
M  V30 51 1 22 46
M  V30 52 1 23 47
M  V30 53 1 23 48
M  V30 54 1 24 49
M  V30 55 1 24 50
M  V30 56 1 25 51
M  V30 57 1 25 52
M  V30 58 1 26 53
M  V30 59 1 26 54
M  V30 60 1 27 55
M  V30 61 1 28 56
M  V30 62 1 29 57
M  V30 63 1 31 58
M  V30 END BOND
M  V30 END CTAB
M  END
>  <Dataset>  (930) 
ChEMBL_Kinases

>  <Ligand_Instance>  (930) 
nan

>  <PDB_ID>  (930) 
nan

>  <Standardized_SMILES>  (930) 
Cn1cc(-c2cc3c(cn2)[nH]c2ncc(-c4ccc(CN5CCCCC5)cc4)cc23)cn1

>  <Name>  (930) 
nan

>  <Pocket>  (930) 
nan

>  <ATP_Site>  (930) 
nan

>  <Peripheral>  (930) 
nan

>  <Num_H_Atoms_ProtBoundConf>  (930) 
nan

>  <Num_Resolved_Atoms>  (930) 
nan

>  <Num_Not_Resolved_Atoms>  (930) 
nan

$$$$
CHEMBL3582228
     RDKit          3D

  0  0  0  0  0  0  0  0  0  0999 V3000
M  V30 BEGIN CTAB
M  V30 COUNTS 57 62 0 0 0
M  V30 BEGIN ATOM
M  V30 1 C 6.334484 -2.233100 3.584579 0
M  V30 2 C 7.691813 -1.972355 3.797230 0
M  V30 3 N 8.269436 -0.837362 3.309128 0
M  V30 4 C 7.526962 0.057391 2.606690 0
M  V30 5 C 6.203470 -0.129239 2.361135 0
M  V30 6 C 5.459149 0.869553 1.599796 0
M  V30 7 C 4.131032 0.779690 1.298421 0
M  V30 8 C 3.492497 1.767596 0.571354 0
M  V30 9 C 4.203527 2.869367 0.137820 0
M  V30 10 C 5.558929 2.930325 0.462762 0
M  V30 11 N 6.159431 1.939535 1.181353 0
M  V30 12 N 3.382591 3.699713 -0.548643 0
M  V30 13 C 2.134302 3.163777 -0.577048 0
M  V30 14 N 0.944818 3.522275 -1.094841 0
M  V30 15 C -0.167636 2.776027 -0.968446 0
M  V30 16 C -0.173206 1.573067 -0.290731 0
M  V30 17 C -1.341267 0.713101 -0.114910 0
M  V30 18 C -1.111817 -0.659133 -0.035342 0
M  V30 19 C -2.166622 -1.533037 0.130777 0
M  V30 20 C -3.467742 -1.086002 0.222716 0
M  V30 21 C -4.706992 -1.850872 0.398502 0
M  V30 22 N -5.350141 -2.241681 -0.836037 0
M  V30 23 C -6.568220 -2.975142 -0.551189 0
M  V30 24 C -6.636577 -4.296253 -1.271943 0
M  V30 25 C -5.437462 -5.114485 -0.893634 0
M  V30 26 C -4.187781 -4.360644 -1.264732 0
M  V30 27 C -4.459363 -2.952148 -1.697527 0
M  V30 28 C -3.657534 0.289797 0.139088 0
M  V30 29 C -2.637434 1.202144 -0.026528 0
M  V30 30 C 1.055129 1.209944 0.239947 0
M  V30 31 C 2.200556 1.970526 0.114239 0
M  V30 32 C 5.647108 -1.286475 2.867401 0
M  V30 33 H 5.877154 -3.121563 3.965265 0
M  V30 34 H 8.319873 -2.663761 4.354552 0
M  V30 35 H 8.055719 0.928320 2.254901 0
M  V30 36 H 3.574239 -0.068762 1.629768 0
M  V30 37 H 6.123119 3.784526 0.129873 0
M  V30 38 H 3.643605 4.611740 -0.994462 0
M  V30 39 H -1.102765 3.106662 -1.402967 0
M  V30 40 H -0.137208 -1.136465 -0.093663 0
M  V30 41 H -2.070707 -2.608583 0.201487 0
M  V30 42 H -4.477812 -2.826782 0.921129 0
M  V30 43 H -5.450496 -1.332618 1.037411 0
M  V30 44 H -7.491420 -2.423953 -0.759094 0
M  V30 45 H -6.585702 -3.226839 0.547780 0
M  V30 46 H -7.565488 -4.799010 -0.882351 0
M  V30 47 H -6.721004 -4.190820 -2.356176 0
M  V30 48 H -5.509137 -6.086170 -1.451344 0
M  V30 49 H -5.460387 -5.391012 0.172034 0
M  V30 50 H -3.502620 -4.432561 -0.402623 0
M  V30 51 H -3.721121 -4.880783 -2.135464 0
M  V30 52 H -3.492549 -2.411557 -1.732530 0
M  V30 53 H -4.819666 -2.967215 -2.759995 0
M  V30 54 H -4.650385 0.764659 0.199506 0
M  V30 55 H -2.804271 2.268380 -0.089564 0
M  V30 56 H 1.109753 0.260723 0.790403 0
M  V30 57 H 4.595848 -1.476211 2.695824 0
M  V30 END ATOM
M  V30 BEGIN BOND
M  V30 1 2 1 2
M  V30 2 1 2 3
M  V30 3 2 3 4
M  V30 4 1 4 5
M  V30 5 1 5 6
M  V30 6 2 6 7
M  V30 7 1 7 8
M  V30 8 2 8 9
M  V30 9 1 9 10
M  V30 10 2 10 11
M  V30 11 1 9 12
M  V30 12 1 12 13
M  V30 13 2 13 14
M  V30 14 1 14 15
M  V30 15 2 15 16
M  V30 16 1 16 17
M  V30 17 2 17 18
M  V30 18 1 18 19
M  V30 19 2 19 20
M  V30 20 1 20 21
M  V30 21 1 21 22
M  V30 22 1 22 23
M  V30 23 1 23 24
M  V30 24 1 24 25
M  V30 25 1 25 26
M  V30 26 1 26 27
M  V30 27 1 20 28
M  V30 28 2 28 29
M  V30 29 1 16 30
M  V30 30 2 30 31
M  V30 31 2 5 32
M  V30 32 1 32 1
M  V30 33 1 11 6
M  V30 34 1 31 13
M  V30 35 1 31 8
M  V30 36 1 29 17
M  V30 37 1 27 22
M  V30 38 1 1 33
M  V30 39 1 2 34
M  V30 40 1 4 35
M  V30 41 1 7 36
M  V30 42 1 10 37
M  V30 43 1 12 38
M  V30 44 1 15 39
M  V30 45 1 18 40
M  V30 46 1 19 41
M  V30 47 1 21 42
M  V30 48 1 21 43
M  V30 49 1 23 44
M  V30 50 1 23 45
M  V30 51 1 24 46
M  V30 52 1 24 47
M  V30 53 1 25 48
M  V30 54 1 25 49
M  V30 55 1 26 50
M  V30 56 1 26 51
M  V30 57 1 27 52
M  V30 58 1 27 53
M  V30 59 1 28 54
M  V30 60 1 29 55
M  V30 61 1 30 56
M  V30 62 1 32 57
M  V30 END BOND
M  V30 END CTAB
M  END
>  <Dataset>  (931) 
ChEMBL_Kinases

>  <Ligand_Instance>  (931) 
nan

>  <PDB_ID>  (931) 
nan

>  <Standardized_SMILES>  (931) 
c1cncc(-c2cc3c(cn2)[nH]c2ncc(-c4ccc(CN5CCCCC5)cc4)cc23)c1

>  <Name>  (931) 
nan

>  <Pocket>  (931) 
nan

>  <ATP_Site>  (931) 
nan

>  <Peripheral>  (931) 
nan

>  <Num_H_Atoms_ProtBoundConf>  (931) 
nan

>  <Num_Resolved_Atoms>  (931) 
nan

>  <Num_Not_Resolved_Atoms>  (931) 
nan

$$$$
CHEMBL3582229
     RDKit          3D

  0  0  0  0  0  0  0  0  0  0999 V3000
M  V30 BEGIN CTAB
M  V30 COUNTS 57 62 0 0 0
M  V30 BEGIN ATOM
M  V30 1 C 5.495665 -4.991480 -2.487479 0
M  V30 2 C 5.171289 -3.738075 -1.999073 0
M  V30 3 C 6.103963 -2.737367 -1.820338 0
M  V30 4 C 5.785734 -1.409751 -1.307885 0
M  V30 5 C 4.524380 -1.005288 -0.946842 0
M  V30 6 C 4.219348 0.250646 -0.462596 0
M  V30 7 C 5.224088 1.183423 -0.320095 0
M  V30 8 C 6.486423 0.764717 -0.686167 0
M  V30 9 N 6.736281 -0.470802 -1.153682 0
M  V30 10 N 4.669459 2.297425 0.159006 0
M  V30 11 C 3.333843 2.152688 0.344469 0
M  V30 12 N 2.315147 2.914515 0.784081 0
M  V30 13 C 1.047384 2.468421 0.854075 0
M  V30 14 C 0.741842 1.159467 0.459800 0
M  V30 15 C -0.626886 0.644954 0.523097 0
M  V30 16 C -0.754050 -0.708628 0.771644 0
M  V30 17 C -2.009830 -1.280049 0.846586 0
M  V30 18 C -3.163373 -0.503214 0.673330 0
M  V30 19 C -4.448949 -1.212514 0.769123 0
M  V30 20 N -5.016674 -1.305748 2.067880 0
M  V30 21 C -5.328013 -0.104921 2.746398 0
M  V30 22 C -6.804446 -0.021584 3.072297 0
M  V30 23 C -7.592874 -0.432744 1.840081 0
M  V30 24 C -7.352889 -1.911403 1.627688 0
M  V30 25 C -6.015982 -2.345206 2.184363 0
M  V30 26 C -2.989797 0.843668 0.427093 0
M  V30 27 C -1.746022 1.440108 0.347293 0
M  V30 28 C 1.767589 0.356041 0.004688 0
M  V30 29 C 3.046950 0.859078 -0.047900 0
M  V30 30 C 7.394392 -3.026688 -2.148514 0
M  V30 31 C 7.700235 -4.288723 -2.636644 0
M  V30 32 N 6.775237 -5.258460 -2.806085 0
M  V30 33 H 4.731167 -5.738865 -2.608755 0
M  V30 34 H 4.148692 -3.551386 -1.753757 0
M  V30 35 H 3.700086 -1.697711 -1.038826 0
M  V30 36 H 7.293188 1.487963 -0.580391 0
M  V30 37 H 5.162692 3.176331 0.373107 0
M  V30 38 H 0.234598 3.102306 1.213750 0
M  V30 39 H 0.100988 -1.348554 0.911957 0
M  V30 40 H -2.088336 -2.358175 1.045173 0
M  V30 41 H -4.388882 -2.256596 0.368947 0
M  V30 42 H -5.237901 -0.739759 0.112348 0
M  V30 43 H -4.802038 -0.149212 3.744323 0
M  V30 44 H -5.053939 0.836260 2.278644 0
M  V30 45 H -7.058735 1.009598 3.331392 0
M  V30 46 H -7.084253 -0.728558 3.874551 0
M  V30 47 H -8.658566 -0.204712 2.061457 0
M  V30 48 H -7.316597 0.172974 0.954165 0
M  V30 49 H -7.429687 -2.163487 0.565268 0
M  V30 50 H -8.136089 -2.456943 2.192534 0
M  V30 51 H -5.663587 -3.196091 1.564345 0
M  V30 52 H -6.089008 -2.650283 3.235054 0
M  V30 53 H -3.881323 1.440253 0.290894 0
M  V30 54 H -1.620170 2.486316 0.155816 0
M  V30 55 H 1.584680 -0.676183 -0.316453 0
M  V30 56 H 8.216521 -2.335346 -2.056570 0
M  V30 57 H 8.709051 -4.556399 -2.907576 0
M  V30 END ATOM
M  V30 BEGIN BOND
M  V30 1 2 1 2
M  V30 2 1 2 3
M  V30 3 1 3 4
M  V30 4 2 4 5
M  V30 5 1 5 6
M  V30 6 2 6 7
M  V30 7 1 7 8
M  V30 8 2 8 9
M  V30 9 1 7 10
M  V30 10 1 10 11
M  V30 11 2 11 12
M  V30 12 1 12 13
M  V30 13 2 13 14
M  V30 14 1 14 15
M  V30 15 2 15 16
M  V30 16 1 16 17
M  V30 17 2 17 18
M  V30 18 1 18 19
M  V30 19 1 19 20
M  V30 20 1 20 21
M  V30 21 1 21 22
M  V30 22 1 22 23
M  V30 23 1 23 24
M  V30 24 1 24 25
M  V30 25 1 18 26
M  V30 26 2 26 27
M  V30 27 1 14 28
M  V30 28 2 28 29
M  V30 29 2 3 30
M  V30 30 1 30 31
M  V30 31 2 31 32
M  V30 32 1 32 1
M  V30 33 1 9 4
M  V30 34 1 29 11
M  V30 35 1 29 6
M  V30 36 1 27 15
M  V30 37 1 25 20
M  V30 38 1 1 33
M  V30 39 1 2 34
M  V30 40 1 5 35
M  V30 41 1 8 36
M  V30 42 1 10 37
M  V30 43 1 13 38
M  V30 44 1 16 39
M  V30 45 1 17 40
M  V30 46 1 19 41
M  V30 47 1 19 42
M  V30 48 1 21 43
M  V30 49 1 21 44
M  V30 50 1 22 45
M  V30 51 1 22 46
M  V30 52 1 23 47
M  V30 53 1 23 48
M  V30 54 1 24 49
M  V30 55 1 24 50
M  V30 56 1 25 51
M  V30 57 1 25 52
M  V30 58 1 26 53
M  V30 59 1 27 54
M  V30 60 1 28 55
M  V30 61 1 30 56
M  V30 62 1 31 57
M  V30 END BOND
M  V30 END CTAB
M  END
>  <Dataset>  (932) 
ChEMBL_Kinases

>  <Ligand_Instance>  (932) 
nan

>  <PDB_ID>  (932) 
nan

>  <Standardized_SMILES>  (932) 
c1cc(-c2cc3c(cn2)[nH]c2ncc(-c4ccc(CN5CCCCC5)cc4)cc23)ccn1

>  <Name>  (932) 
nan

>  <Pocket>  (932) 
nan

>  <ATP_Site>  (932) 
nan

>  <Peripheral>  (932) 
nan

>  <Num_H_Atoms_ProtBoundConf>  (932) 
nan

>  <Num_Resolved_Atoms>  (932) 
nan

>  <Num_Not_Resolved_Atoms>  (932) 
nan

$$$$
CHEMBL3582230
     RDKit          3D

  0  0  0  0  0  0  0  0  0  0999 V3000
M  V30 BEGIN CTAB
M  V30 COUNTS 56 61 0 0 0
M  V30 BEGIN ATOM
M  V30 1 C 5.751197 -2.574060 -5.338652 0
M  V30 2 C 4.738117 -2.735147 -4.421064 0
M  V30 3 N 4.460468 -1.709039 -3.582374 0
M  V30 4 C 5.146955 -0.545148 -3.625436 0
M  V30 5 C 4.779226 0.509623 -2.681829 0
M  V30 6 C 3.754657 0.261812 -1.800401 0
M  V30 7 C 3.446026 1.298409 -0.926163 0
M  V30 8 C 4.131839 2.488923 -0.954897 0
M  V30 9 C 5.156149 2.682481 -1.865777 0
M  V30 10 N 5.470826 1.686552 -2.723716 0
M  V30 11 N 3.667443 3.350064 -0.022540 0
M  V30 12 C 2.666276 2.728858 0.630798 0
M  V30 13 N 1.861305 3.115560 1.641311 0
M  V30 14 C 0.911950 2.267129 2.118863 0
M  V30 15 C 0.726144 0.981661 1.599366 0
M  V30 16 C -0.332142 0.172728 2.206346 0
M  V30 17 C -1.431329 0.870133 2.683674 0
M  V30 18 C -2.421164 0.095925 3.254093 0
M  V30 19 C -2.418081 -1.260912 3.388608 0
M  V30 20 C -3.507205 -2.025217 4.008377 0
M  V30 21 N -4.535109 -2.464901 3.128601 0
M  V30 22 C -5.221557 -1.417516 2.441154 0
M  V30 23 C -6.449400 -1.909449 1.704770 0
M  V30 24 C -6.031627 -2.934061 0.693710 0
M  V30 25 C -5.277648 -4.037334 1.407206 0
M  V30 26 C -4.140352 -3.539855 2.249722 0
M  V30 27 C -1.287510 -1.873765 2.887116 0
M  V30 28 C -0.234464 -1.204191 2.295713 0
M  V30 29 C 1.551719 0.590150 0.565835 0
M  V30 30 C 2.518840 1.468462 0.087049 0
M  V30 31 C 6.159023 -0.396443 -4.548832 0
M  V30 32 N 6.449488 -1.419659 -5.398694 0
M  V30 33 H 5.943906 -3.414509 -5.991386 0
M  V30 34 H 4.111913 -3.621387 -4.285931 0
M  V30 35 H 3.202959 -0.653257 -1.753684 0
M  V30 36 H 5.716955 3.628366 -1.904284 0
M  V30 37 H 3.961561 4.321531 0.217440 0
M  V30 38 H 0.354878 2.718541 2.918699 0
M  V30 39 H -1.530509 1.949667 2.624795 0
M  V30 40 H -3.288106 0.656544 3.629587 0
M  V30 41 H -3.031839 -2.959731 4.430676 0
M  V30 42 H -3.949856 -1.521704 4.898518 0
M  V30 43 H -5.520701 -0.644546 3.173717 0
M  V30 44 H -4.515200 -0.982151 1.685475 0
M  V30 45 H -6.938173 -1.044711 1.245443 0
M  V30 46 H -7.092247 -2.434311 2.452510 0
M  V30 47 H -5.486851 -2.514438 -0.168762 0
M  V30 48 H -6.948634 -3.441911 0.271702 0
M  V30 49 H -4.858628 -4.702803 0.625686 0
M  V30 50 H -6.004964 -4.564634 2.057974 0
M  V30 51 H -3.341772 -3.163898 1.590448 0
M  V30 52 H -3.787696 -4.401389 2.849106 0
M  V30 53 H -1.171063 -2.951644 2.937205 0
M  V30 54 H 0.634395 -1.728173 1.915415 0
M  V30 55 H 1.395255 -0.407258 0.174796 0
M  V30 56 H 6.707863 0.550168 -4.574236 0
M  V30 END ATOM
M  V30 BEGIN BOND
M  V30 1 2 1 2
M  V30 2 1 2 3
M  V30 3 2 3 4
M  V30 4 1 4 5
M  V30 5 2 5 6
M  V30 6 1 6 7
M  V30 7 2 7 8
M  V30 8 1 8 9
M  V30 9 2 9 10
M  V30 10 1 8 11
M  V30 11 1 11 12
M  V30 12 2 12 13
M  V30 13 1 13 14
M  V30 14 2 14 15
M  V30 15 1 15 16
M  V30 16 2 16 17
M  V30 17 1 17 18
M  V30 18 2 18 19
M  V30 19 1 19 20
M  V30 20 1 20 21
M  V30 21 1 21 22
M  V30 22 1 22 23
M  V30 23 1 23 24
M  V30 24 1 24 25
M  V30 25 1 25 26
M  V30 26 1 19 27
M  V30 27 2 27 28
M  V30 28 1 15 29
M  V30 29 2 29 30
M  V30 30 1 4 31
M  V30 31 2 31 32
M  V30 32 1 32 1
M  V30 33 1 10 5
M  V30 34 1 30 12
M  V30 35 1 30 7
M  V30 36 1 28 16
M  V30 37 1 26 21
M  V30 38 1 1 33
M  V30 39 1 2 34
M  V30 40 1 6 35
M  V30 41 1 9 36
M  V30 42 1 11 37
M  V30 43 1 14 38
M  V30 44 1 17 39
M  V30 45 1 18 40
M  V30 46 1 20 41
M  V30 47 1 20 42
M  V30 48 1 22 43
M  V30 49 1 22 44
M  V30 50 1 23 45
M  V30 51 1 23 46
M  V30 52 1 24 47
M  V30 53 1 24 48
M  V30 54 1 25 49
M  V30 55 1 25 50
M  V30 56 1 26 51
M  V30 57 1 26 52
M  V30 58 1 27 53
M  V30 59 1 28 54
M  V30 60 1 29 55
M  V30 61 1 31 56
M  V30 END BOND
M  V30 END CTAB
M  END
>  <Dataset>  (933) 
ChEMBL_Kinases

>  <Ligand_Instance>  (933) 
nan

>  <PDB_ID>  (933) 
nan

>  <Standardized_SMILES>  (933) 
c1cnc(-c2cc3c(cn2)[nH]c2ncc(-c4ccc(CN5CCCCC5)cc4)cc23)cn1

>  <Name>  (933) 
nan

>  <Pocket>  (933) 
nan

>  <ATP_Site>  (933) 
nan

>  <Peripheral>  (933) 
nan

>  <Num_H_Atoms_ProtBoundConf>  (933) 
nan

>  <Num_Resolved_Atoms>  (933) 
nan

>  <Num_Not_Resolved_Atoms>  (933) 
nan

$$$$
CHEMBL3582231
     RDKit          3D

  0  0  0  0  0  0  0  0  0  0999 V3000
M  V30 BEGIN CTAB
M  V30 COUNTS 56 61 0 0 0
M  V30 BEGIN ATOM
M  V30 1 C 6.340233 -5.066223 -0.673672 0
M  V30 2 C 5.785627 -3.784654 -0.571417 0
M  V30 3 C 6.598157 -2.669513 -0.608445 0
M  V30 4 C 6.128506 -1.291637 -0.511196 0
M  V30 5 C 4.801835 -0.983445 -0.371314 0
M  V30 6 C 4.391970 0.331475 -0.282585 0
M  V30 7 C 5.275920 1.393225 -0.328550 0
M  V30 8 C 6.606567 1.015079 -0.471482 0
M  V30 9 N 7.013856 -0.264121 -0.558582 0
M  V30 10 N 4.597915 2.539094 -0.220260 0
M  V30 11 C 3.268722 2.297544 -0.100735 0
M  V30 12 N 2.193465 3.096834 0.032913 0
M  V30 13 C 0.939339 2.609316 0.135945 0
M  V30 14 C 0.752057 1.239417 0.103035 0
M  V30 15 C -0.559126 0.602374 0.205750 0
M  V30 16 C -0.694873 -0.641168 0.789302 0
M  V30 17 C -1.927329 -1.259360 0.895752 0
M  V30 18 C -3.087934 -0.641541 0.412255 0
M  V30 19 C -4.286928 -1.475805 0.620171 0
M  V30 20 N -4.940525 -1.317086 1.875024 0
M  V30 21 C -5.435887 -0.019741 2.174637 0
M  V30 22 C -6.952733 -0.063417 2.265383 0
M  V30 23 C -7.497982 -0.708891 1.013357 0
M  V30 24 C -7.068672 -2.164486 1.005986 0
M  V30 25 C -5.932584 -2.370733 1.994121 0
M  V30 26 C -2.945493 0.598242 -0.168732 0
M  V30 27 C -1.710419 1.203065 -0.268123 0
M  V30 28 C 1.858945 0.402440 -0.035063 0
M  V30 29 C 3.143534 0.922732 -0.139821 0
M  V30 30 C 7.949923 -2.916374 -0.749249 0
M  V30 31 N 8.430565 -4.169048 -0.843197 0
M  V30 32 N 7.666090 -5.247682 -0.809500 0
M  V30 33 H 5.603621 -5.878819 -0.632505 0
M  V30 34 H 4.737091 -3.644499 -0.464080 0
M  V30 35 H 4.044717 -1.735536 -0.326102 0
M  V30 36 H 7.334890 1.824140 -0.511800 0
M  V30 37 H 5.049134 3.480786 -0.228735 0
M  V30 38 H 0.077529 3.254692 0.243296 0
M  V30 39 H 0.217124 -1.092234 1.152328 0
M  V30 40 H -1.888755 -2.241540 1.379547 0
M  V30 41 H -4.081305 -2.557034 0.474118 0
M  V30 42 H -5.019035 -1.215281 -0.172065 0
M  V30 43 H -5.100582 0.301230 3.205126 0
M  V30 44 H -5.135970 0.774802 1.467021 0
M  V30 45 H -7.358337 0.936334 2.434094 0
M  V30 46 H -7.228170 -0.682239 3.146511 0
M  V30 47 H -8.621799 -0.645270 1.055902 0
M  V30 48 H -7.161859 -0.154082 0.121354 0
M  V30 49 H -7.927817 -2.777942 1.344049 0
M  V30 50 H -6.798391 -2.535151 -0.006242 0
M  V30 51 H -5.395142 -3.312748 1.726788 0
M  V30 52 H -6.320663 -2.507769 3.014216 0
M  V30 53 H -3.870526 1.010787 -0.521058 0
M  V30 54 H -1.668341 2.178554 -0.736104 0
M  V30 55 H 1.802906 -0.692345 -0.070340 0
M  V30 56 H 8.630447 -2.090611 -0.784179 0
M  V30 END ATOM
M  V30 BEGIN BOND
M  V30 1 2 1 2
M  V30 2 1 2 3
M  V30 3 1 3 4
M  V30 4 2 4 5
M  V30 5 1 5 6
M  V30 6 2 6 7
M  V30 7 1 7 8
M  V30 8 2 8 9
M  V30 9 1 7 10
M  V30 10 1 10 11
M  V30 11 2 11 12
M  V30 12 1 12 13
M  V30 13 2 13 14
M  V30 14 1 14 15
M  V30 15 2 15 16
M  V30 16 1 16 17
M  V30 17 2 17 18
M  V30 18 1 18 19
M  V30 19 1 19 20
M  V30 20 1 20 21
M  V30 21 1 21 22
M  V30 22 1 22 23
M  V30 23 1 23 24
M  V30 24 1 24 25
M  V30 25 1 18 26
M  V30 26 2 26 27
M  V30 27 1 14 28
M  V30 28 2 28 29
M  V30 29 2 3 30
M  V30 30 1 30 31
M  V30 31 2 31 32
M  V30 32 1 32 1
M  V30 33 1 9 4
M  V30 34 1 29 11
M  V30 35 1 29 6
M  V30 36 1 27 15
M  V30 37 1 25 20
M  V30 38 1 1 33
M  V30 39 1 2 34
M  V30 40 1 5 35
M  V30 41 1 8 36
M  V30 42 1 10 37
M  V30 43 1 13 38
M  V30 44 1 16 39
M  V30 45 1 17 40
M  V30 46 1 19 41
M  V30 47 1 19 42
M  V30 48 1 21 43
M  V30 49 1 21 44
M  V30 50 1 22 45
M  V30 51 1 22 46
M  V30 52 1 23 47
M  V30 53 1 23 48
M  V30 54 1 24 49
M  V30 55 1 24 50
M  V30 56 1 25 51
M  V30 57 1 25 52
M  V30 58 1 26 53
M  V30 59 1 27 54
M  V30 60 1 28 55
M  V30 61 1 30 56
M  V30 END BOND
M  V30 END CTAB
M  END
>  <Dataset>  (934) 
ChEMBL_Kinases

>  <Ligand_Instance>  (934) 
nan

>  <PDB_ID>  (934) 
nan

>  <Standardized_SMILES>  (934) 
c1cc(-c2cc3c(cn2)[nH]c2ncc(-c4ccc(CN5CCCCC5)cc4)cc23)cnn1

>  <Name>  (934) 
nan

>  <Pocket>  (934) 
nan

>  <ATP_Site>  (934) 
nan

>  <Peripheral>  (934) 
nan

>  <Num_H_Atoms_ProtBoundConf>  (934) 
nan

>  <Num_Resolved_Atoms>  (934) 
nan

>  <Num_Not_Resolved_Atoms>  (934) 
nan

$$$$
CHEMBL3582232
     RDKit          3D

  0  0  0  0  0  0  0  0  0  0999 V3000
M  V30 BEGIN CTAB
M  V30 COUNTS 56 61 0 0 0
M  V30 BEGIN ATOM
M  V30 1 C 7.309868 -3.795916 -3.136728 0
M  V30 2 N 6.026506 -3.786514 -2.696948 0
M  V30 3 C 5.535211 -2.709001 -2.058477 0
M  V30 4 C 6.282127 -1.576811 -1.816369 0
M  V30 5 C 5.800161 -0.383652 -1.129471 0
M  V30 6 C 4.520866 -0.279151 -0.647572 0
M  V30 7 C 4.094786 0.862767 -0.001623 0
M  V30 8 C 4.950648 1.922042 0.171188 0
M  V30 9 C 6.234371 1.793622 -0.322714 0
M  V30 10 N 6.629426 0.671459 -0.949475 0
M  V30 11 N 4.347479 2.934901 0.820857 0
M  V30 12 C 3.088818 2.532459 1.073304 0
M  V30 13 N 2.033455 3.110425 1.686673 0
M  V30 14 C 0.842597 2.453347 1.804718 0
M  V30 15 C 0.626707 1.163492 1.312751 0
M  V30 16 C -0.704104 0.597796 1.518435 0
M  V30 17 C -1.775208 1.495095 1.522420 0
M  V30 18 C -3.051356 1.031865 1.711102 0
M  V30 19 C -3.319874 -0.321235 1.901544 0
M  V30 20 C -4.733140 -0.657262 2.089944 0
M  V30 21 N -5.444867 -0.950245 0.884479 0
M  V30 22 C -6.833114 -1.273092 1.101319 0
M  V30 23 C -7.049941 -2.643257 1.695275 0
M  V30 24 C -6.440917 -3.677439 0.773700 0
M  V30 25 C -5.003320 -3.343605 0.437561 0
M  V30 26 C -4.810209 -1.912119 0.034973 0
M  V30 27 C -2.270591 -1.198567 1.897442 0
M  V30 28 C -0.967982 -0.751191 1.707898 0
M  V30 29 C 1.699051 0.572711 0.687937 0
M  V30 30 C 2.898016 1.247525 0.574875 0
M  V30 31 C 7.581614 -1.620933 -2.276801 0
M  V30 32 N 8.079382 -2.694402 -2.915732 0
M  V30 33 H 7.659565 -4.684544 -3.644425 0
M  V30 34 H 4.513665 -2.723536 -1.717896 0
M  V30 35 H 3.814343 -1.072536 -0.754708 0
M  V30 36 H 6.942426 2.615144 -0.203824 0
M  V30 37 H 4.767189 3.863257 1.084894 0
M  V30 38 H 0.130699 3.071421 2.318485 0
M  V30 39 H -1.606063 2.569508 1.375465 0
M  V30 40 H -3.850290 1.784965 1.704077 0
M  V30 41 H -4.780032 -1.576534 2.741722 0
M  V30 42 H -5.302661 0.139785 2.620296 0
M  V30 43 H -7.245274 -0.512005 1.815868 0
M  V30 44 H -7.344165 -1.233808 0.117643 0
M  V30 45 H -8.134755 -2.827273 1.715765 0
M  V30 46 H -6.669458 -2.708803 2.726289 0
M  V30 47 H -7.033943 -3.650594 -0.178360 0
M  V30 48 H -6.475401 -4.660356 1.261751 0
M  V30 49 H -4.770515 -3.969698 -0.470838 0
M  V30 50 H -4.337714 -3.668097 1.247644 0
M  V30 51 H -5.238909 -1.804114 -0.989358 0
M  V30 52 H -3.729986 -1.727524 -0.044684 0
M  V30 53 H -2.485925 -2.235439 2.044306 0
M  V30 54 H -0.125042 -1.431198 1.701812 0
M  V30 55 H 1.523318 -0.423145 0.311098 0
M  V30 56 H 8.225969 -0.755853 -2.116658 0
M  V30 END ATOM
M  V30 BEGIN BOND
M  V30 1 2 1 2
M  V30 2 1 2 3
M  V30 3 2 3 4
M  V30 4 1 4 5
M  V30 5 2 5 6
M  V30 6 1 6 7
M  V30 7 2 7 8
M  V30 8 1 8 9
M  V30 9 2 9 10
M  V30 10 1 8 11
M  V30 11 1 11 12
M  V30 12 2 12 13
M  V30 13 1 13 14
M  V30 14 2 14 15
M  V30 15 1 15 16
M  V30 16 2 16 17
M  V30 17 1 17 18
M  V30 18 2 18 19
M  V30 19 1 19 20
M  V30 20 1 20 21
M  V30 21 1 21 22
M  V30 22 1 22 23
M  V30 23 1 23 24
M  V30 24 1 24 25
M  V30 25 1 25 26
M  V30 26 1 19 27
M  V30 27 2 27 28
M  V30 28 1 15 29
M  V30 29 2 29 30
M  V30 30 1 4 31
M  V30 31 2 31 32
M  V30 32 1 32 1
M  V30 33 1 10 5
M  V30 34 1 30 12
M  V30 35 1 30 7
M  V30 36 1 28 16
M  V30 37 1 26 21
M  V30 38 1 1 33
M  V30 39 1 3 34
M  V30 40 1 6 35
M  V30 41 1 9 36
M  V30 42 1 11 37
M  V30 43 1 14 38
M  V30 44 1 17 39
M  V30 45 1 18 40
M  V30 46 1 20 41
M  V30 47 1 20 42
M  V30 48 1 22 43
M  V30 49 1 22 44
M  V30 50 1 23 45
M  V30 51 1 23 46
M  V30 52 1 24 47
M  V30 53 1 24 48
M  V30 54 1 25 49
M  V30 55 1 25 50
M  V30 56 1 26 51
M  V30 57 1 26 52
M  V30 58 1 27 53
M  V30 59 1 28 54
M  V30 60 1 29 55
M  V30 61 1 31 56
M  V30 END BOND
M  V30 END CTAB
M  END
>  <Dataset>  (935) 
ChEMBL_Kinases

>  <Ligand_Instance>  (935) 
nan

>  <PDB_ID>  (935) 
nan

>  <Standardized_SMILES>  (935) 
c1ncc(-c2cc3c(cn2)[nH]c2ncc(-c4ccc(CN5CCCCC5)cc4)cc23)cn1

>  <Name>  (935) 
nan

>  <Pocket>  (935) 
nan

>  <ATP_Site>  (935) 
nan

>  <Peripheral>  (935) 
nan

>  <Num_H_Atoms_ProtBoundConf>  (935) 
nan

>  <Num_Resolved_Atoms>  (935) 
nan

>  <Num_Not_Resolved_Atoms>  (935) 
nan

$$$$
CHEMBL3586043
     RDKit          3D

  0  0  0  0  0  0  0  0  0  0999 V3000
M  V30 BEGIN CTAB
M  V30 COUNTS 53 56 0 0 0
M  V30 BEGIN ATOM
M  V30 1 C 3.504100 -4.263853 0.314388 0
M  V30 2 C 4.624579 -3.478741 -0.283004 0
M  V30 3 N 5.631304 -4.178496 -0.838957 0
M  V30 4 N 6.510468 -3.307147 -1.304190 0
M  V30 5 N 6.059512 -2.096953 -1.042898 0
M  V30 6 N 4.895020 -2.167449 -0.411854 0
M  V30 7 C 3.922620 -1.283270 0.128062 0
M  V30 8 C 3.747152 -1.346793 1.509835 0
M  V30 9 C 2.825964 -0.529443 2.138133 0
M  V30 10 C 2.096614 0.344292 1.331099 0
M  V30 11 C 2.241573 0.436066 -0.036566 0
M  V30 12 N 1.465602 1.351591 -0.806781 0
M  V30 13 C 0.561824 2.136537 -0.043301 0
M  V30 14 N 1.102798 3.288543 0.392904 0
M  V30 15 C 0.378858 4.148349 1.131388 0
M  V30 16 C -0.925749 3.868758 1.455069 0
M  V30 17 F -1.772355 4.631238 2.184971 0
M  V30 18 C -1.491706 2.668257 1.001265 0
M  V30 19 N -2.797295 2.159197 1.179454 0
M  V30 20 C -3.596444 1.037360 0.857764 0
M  V30 21 C -3.288278 -0.278116 1.451668 0 CFG=2
M  V30 22 C -1.962318 -0.891023 1.178312 0
M  V30 23 C -1.804023 -1.173589 -0.297185 0
M  V30 24 C -2.764221 -2.303296 -0.617070 0
M  V30 25 N -3.808314 -2.434961 0.343342 0
M  V30 26 C -3.830746 -3.634084 1.103856 0
M  V30 27 C -4.330361 -1.264644 0.930594 0
M  V30 28 N -0.708146 1.863172 0.271130 0
M  V30 29 C 3.180955 -0.405312 -0.632033 0
M  V30 30 H 2.658113 -3.611874 0.595790 0
M  V30 31 H 3.912283 -4.742231 1.236304 0
M  V30 32 H 3.202972 -5.113594 -0.354950 0
M  V30 33 H 4.288431 -2.008918 2.187750 0
M  V30 34 H 2.651724 -0.542487 3.222268 0
M  V30 35 H 1.372779 0.979597 1.864659 0
M  V30 36 H 1.617962 1.371124 -1.831387 0
M  V30 37 H 0.664823 5.105367 1.553631 0
M  V30 38 H -3.296924 2.912315 1.754558 0
M  V30 39 H -3.665969 1.020474 -0.261238 0
M  V30 40 H -4.661406 1.260154 1.157446 0
M  V30 41 H -3.431465 -0.162542 2.569564 0
M  V30 42 H -1.097269 -0.458965 1.673315 0
M  V30 43 H -2.026648 -1.934661 1.637349 0
M  V30 44 H -1.994836 -0.284803 -0.943641 0
M  V30 45 H -0.740518 -1.445155 -0.461581 0
M  V30 46 H -2.166312 -3.239678 -0.593060 0
M  V30 47 H -3.154567 -2.246667 -1.675282 0
M  V30 48 H -3.724328 -3.535549 2.190393 0
M  V30 49 H -4.794560 -4.203228 0.949704 0
M  V30 50 H -3.054989 -4.323077 0.656948 0
M  V30 51 H -5.042336 -0.748626 0.240124 0
M  V30 52 H -4.941145 -1.577535 1.817084 0
M  V30 53 H 3.341267 -0.379611 -1.707542 0
M  V30 END ATOM
M  V30 BEGIN BOND
M  V30 1 1 1 2
M  V30 2 2 2 3
M  V30 3 1 3 4
M  V30 4 2 4 5
M  V30 5 1 5 6
M  V30 6 1 6 7
M  V30 7 2 7 8
M  V30 8 1 8 9
M  V30 9 2 9 10
M  V30 10 1 10 11
M  V30 11 1 11 12
M  V30 12 1 12 13
M  V30 13 2 13 14
M  V30 14 1 14 15
M  V30 15 2 15 16
M  V30 16 1 16 17
M  V30 17 1 16 18
M  V30 18 1 18 19
M  V30 19 1 19 20
M  V30 20 1 20 21
M  V30 21 1 21 22
M  V30 22 1 22 23
M  V30 23 1 23 24
M  V30 24 1 24 25
M  V30 25 1 25 26
M  V30 26 1 25 27
M  V30 27 2 18 28
M  V30 28 2 11 29
M  V30 29 1 6 2
M  V30 30 1 29 7
M  V30 31 1 28 13
M  V30 32 1 27 21
M  V30 33 1 1 30
M  V30 34 1 1 31
M  V30 35 1 1 32
M  V30 36 1 8 33
M  V30 37 1 9 34
M  V30 38 1 10 35
M  V30 39 1 12 36
M  V30 40 1 15 37
M  V30 41 1 19 38
M  V30 42 1 20 39
M  V30 43 1 20 40
M  V30 44 1 21 41 CFG=1
M  V30 45 1 22 42
M  V30 46 1 22 43
M  V30 47 1 23 44
M  V30 48 1 23 45
M  V30 49 1 24 46
M  V30 50 1 24 47
M  V30 51 1 26 48
M  V30 52 1 26 49
M  V30 53 1 26 50
M  V30 54 1 27 51
M  V30 55 1 27 52
M  V30 56 1 29 53
M  V30 END BOND
M  V30 END CTAB
M  END
>  <Dataset>  (936) 
ChEMBL_Kinases

>  <Ligand_Instance>  (936) 
nan

>  <PDB_ID>  (936) 
nan

>  <Standardized_SMILES>  (936) 
Cc1nnnn1-c1cccc(Nc2ncc(F)c(NC[C@@H]3CCCN(C)C3)n2)c1

>  <Name>  (936) 
nan

>  <Pocket>  (936) 
nan

>  <ATP_Site>  (936) 
nan

>  <Peripheral>  (936) 
nan

>  <Num_H_Atoms_ProtBoundConf>  (936) 
nan

>  <Num_Resolved_Atoms>  (936) 
nan

>  <Num_Not_Resolved_Atoms>  (936) 
nan

$$$$
CHEMBL3586034
     RDKit          3D

  0  0  0  0  0  0  0  0  0  0999 V3000
M  V30 BEGIN CTAB
M  V30 COUNTS 66 69 0 0 0
M  V30 BEGIN ATOM
M  V30 1 C 3.402687 -2.535112 4.359627 0
M  V30 2 O 2.188217 -2.371856 5.018248 0
M  V30 3 C 1.445590 -1.214777 4.900524 0
M  V30 4 C 1.841154 -0.152819 4.124002 0
M  V30 5 C 1.086631 0.995122 4.022599 0
M  V30 6 N 1.349868 2.140274 3.225839 0
M  V30 7 C 1.653578 2.231886 1.813906 0
M  V30 8 N 2.065431 3.283903 1.121252 0
M  V30 9 C 2.220261 3.161703 -0.203795 0
M  V30 10 C 1.948790 1.960892 -0.806064 0
M  V30 11 F 2.146282 1.903723 -2.127977 0
M  V30 12 C 1.518622 0.856181 -0.106645 0
M  V30 13 N 1.160682 -0.382765 -0.703000 0
M  V30 14 C 1.071971 -0.699557 -2.123285 0
M  V30 15 C -0.101343 0.067914 -2.651611 0
M  V30 16 C -1.370597 -0.693366 -2.808080 0
M  V30 17 C -2.126762 -0.490408 -1.489127 0
M  V30 18 C -2.275080 -0.010672 -3.840275 0
M  V30 19 N -1.316103 -2.054845 -3.103414 0
M  V30 20 C -2.337285 -2.878512 -2.537965 0
M  V30 21 C -0.047887 -2.665045 -3.259963 0
M  V30 22 C 0.495790 -2.508917 -4.665592 0
M  V30 23 C -0.139344 -4.163922 -3.007653 0
M  V30 24 C 0.999247 -2.167827 -2.302869 0
M  V30 25 N 1.387652 1.039165 1.203008 0
M  V30 26 C -0.094331 1.074544 4.718756 0
M  V30 27 C -0.529672 0.025389 5.511850 0
M  V30 28 N -1.779129 0.064857 6.236876 0
M  V30 29 N -2.265978 -0.130883 7.436166 0
M  V30 30 N -3.580713 0.087742 7.390649 0
M  V30 31 N -3.942557 0.419691 6.185089 0
M  V30 32 C -2.822421 0.417417 5.415713 0
M  V30 33 C -2.940984 0.768642 3.970062 0
M  V30 34 C 0.248761 -1.116854 5.596824 0
M  V30 35 H 4.227994 -2.167842 5.037323 0
M  V30 36 H 3.638181 -3.614261 4.199833 0
M  V30 37 H 3.487401 -2.044779 3.378135 0
M  V30 38 H 2.758191 -0.160268 3.557305 0
M  V30 39 H 1.323147 3.060527 3.738295 0
M  V30 40 H 2.553040 4.012598 -0.750053 0
M  V30 41 H 0.931391 -1.170296 -0.030720 0
M  V30 42 H 1.997484 -0.325919 -2.622176 0
M  V30 43 H 0.175458 0.497781 -3.640863 0
M  V30 44 H -0.284381 0.969379 -1.998784 0
M  V30 45 H -2.091035 0.612808 -1.243734 0
M  V30 46 H -1.663145 -1.013122 -0.658841 0
M  V30 47 H -3.190908 -0.694458 -1.658833 0
M  V30 48 H -1.913383 -0.174074 -4.876324 0
M  V30 49 H -2.341360 1.061830 -3.654772 0
M  V30 50 H -3.285754 -0.491323 -3.821655 0
M  V30 51 H -2.329036 -2.973068 -1.451235 0
M  V30 52 H -2.325023 -3.875734 -3.001402 0
M  V30 53 H -3.335309 -2.447745 -2.826085 0
M  V30 54 H 0.653080 -1.460153 -4.934284 0
M  V30 55 H 1.492507 -3.019316 -4.743198 0
M  V30 56 H -0.145967 -3.055723 -5.392166 0
M  V30 57 H 0.905138 -4.593100 -3.040781 0
M  V30 58 H -0.658757 -4.647564 -3.873012 0
M  V30 59 H -0.566137 -4.424092 -2.042417 0
M  V30 60 H 1.986315 -2.550400 -2.645387 0
M  V30 61 H 0.806703 -2.664204 -1.307189 0
M  V30 62 H -0.765043 1.904925 4.725345 0
M  V30 63 H -3.839027 0.286856 3.562543 0
M  V30 64 H -2.061527 0.393907 3.382401 0
M  V30 65 H -3.070470 1.872742 3.826260 0
M  V30 66 H -0.074014 -1.941119 6.210032 0
M  V30 END ATOM
M  V30 BEGIN BOND
M  V30 1 1 1 2
M  V30 2 1 2 3
M  V30 3 2 3 4
M  V30 4 1 4 5
M  V30 5 1 5 6
M  V30 6 1 6 7
M  V30 7 2 7 8
M  V30 8 1 8 9
M  V30 9 2 9 10
M  V30 10 1 10 11
M  V30 11 1 10 12
M  V30 12 1 12 13
M  V30 13 1 13 14
M  V30 14 1 14 15
M  V30 15 1 15 16
M  V30 16 1 16 17
M  V30 17 1 16 18
M  V30 18 1 16 19
M  V30 19 1 19 20
M  V30 20 1 19 21
M  V30 21 1 21 22
M  V30 22 1 21 23
M  V30 23 1 21 24
M  V30 24 2 12 25
M  V30 25 2 5 26
M  V30 26 1 26 27
M  V30 27 1 27 28
M  V30 28 1 28 29
M  V30 29 2 29 30
M  V30 30 1 30 31
M  V30 31 2 31 32
M  V30 32 1 32 33
M  V30 33 2 27 34
M  V30 34 1 34 3
M  V30 35 1 25 7
M  V30 36 1 32 28
M  V30 37 1 24 14
M  V30 38 1 1 35
M  V30 39 1 1 36
M  V30 40 1 1 37
M  V30 41 1 4 38
M  V30 42 1 6 39
M  V30 43 1 9 40
M  V30 44 1 13 41
M  V30 45 1 14 42
M  V30 46 1 15 43
M  V30 47 1 15 44
M  V30 48 1 17 45
M  V30 49 1 17 46
M  V30 50 1 17 47
M  V30 51 1 18 48
M  V30 52 1 18 49
M  V30 53 1 18 50
M  V30 54 1 20 51
M  V30 55 1 20 52
M  V30 56 1 20 53
M  V30 57 1 22 54
M  V30 58 1 22 55
M  V30 59 1 22 56
M  V30 60 1 23 57
M  V30 61 1 23 58
M  V30 62 1 23 59
M  V30 63 1 24 60
M  V30 64 1 24 61
M  V30 65 1 26 62
M  V30 66 1 33 63
M  V30 67 1 33 64
M  V30 68 1 33 65
M  V30 69 1 34 66
M  V30 END BOND
M  V30 END CTAB
M  END
>  <Dataset>  (937) 
ChEMBL_Kinases

>  <Ligand_Instance>  (937) 
nan

>  <PDB_ID>  (937) 
nan

>  <Standardized_SMILES>  (937) 
COc1cc(Nc2ncc(F)c(NC3CC(C)(C)N(C)C(C)(C)C3)n2)cc(-n2nnnc2C)c1

>  <Name>  (937) 
nan

>  <Pocket>  (937) 
nan

>  <ATP_Site>  (937) 
nan

>  <Peripheral>  (937) 
nan

>  <Num_H_Atoms_ProtBoundConf>  (937) 
nan

>  <Num_Resolved_Atoms>  (937) 
nan

>  <Num_Not_Resolved_Atoms>  (937) 
nan

$$$$
CHEMBL3586035
     RDKit          3D

  0  0  0  0  0  0  0  0  0  0999 V3000
M  V30 BEGIN CTAB
M  V30 COUNTS 69 72 0 0 0
M  V30 BEGIN ATOM
M  V30 1 C 3.231951 -3.333187 5.717094 0
M  V30 2 O 3.439805 -2.054444 5.176175 0
M  V30 3 C 3.226431 -1.803242 3.835916 0
M  V30 4 C 3.438180 -0.543739 3.361118 0
M  V30 5 C 3.231514 -0.271089 2.038843 0
M  V30 6 N 3.400399 1.029736 1.473446 0
M  V30 7 C 3.196470 1.518277 0.158481 0
M  V30 8 N 4.073762 1.885367 -0.795345 0
M  V30 9 C 3.637451 2.328239 -2.006830 0
M  V30 10 C 2.275941 2.387709 -2.225067 0
M  V30 11 F 1.874007 2.831819 -3.440620 0
M  V30 12 C 1.348142 2.014858 -1.260442 0
M  V30 13 N -0.066728 2.099854 -1.516069 0
M  V30 14 C -0.906268 1.650938 -0.414354 0
M  V30 15 C -2.376833 1.861838 -0.653656 0
M  V30 16 C -2.941108 1.176874 -1.840305 0
M  V30 17 C -3.505767 -0.184946 -1.613106 0
M  V30 18 C -2.921536 -1.108830 -2.672042 0
M  V30 19 C -4.999927 -0.168974 -1.882900 0
M  V30 20 N -3.144201 -0.672741 -0.336048 0
M  V30 21 C -3.051498 -2.075994 -0.190582 0
M  V30 22 C -3.463685 0.093418 0.789920 0
M  V30 23 C -2.671778 -0.478773 1.976560 0
M  V30 24 C -4.925026 0.047803 1.212177 0
M  V30 25 C -3.078956 1.540690 0.645649 0
M  V30 26 N 1.875974 1.585856 -0.082185 0
M  V30 27 C 2.817826 -1.206236 1.138652 0
M  V30 28 C 2.597236 -2.501306 1.609463 0
M  V30 29 N 2.160469 -3.512484 0.689304 0
M  V30 30 N 0.955644 -3.985371 0.537791 0
M  V30 31 N 0.898870 -4.923311 -0.408808 0
M  V30 32 N 2.133370 -5.054606 -0.886627 0
M  V30 33 C 2.925222 -4.177587 -0.207216 0
M  V30 34 C 4.392697 -3.976668 -0.402942 0
M  V30 35 C 2.804623 -2.785812 2.959889 0
M  V30 36 H 3.595150 -4.147198 5.083114 0
M  V30 37 H 3.742741 -3.365668 6.707034 0
M  V30 38 H 2.128799 -3.414945 5.903663 0
M  V30 39 H 3.767122 0.280849 3.975692 0
M  V30 40 H 3.739964 1.824083 2.059379 0
M  V30 41 H 4.383289 2.609365 -2.729391 0
M  V30 42 H -0.345141 2.464523 -2.441416 0
M  V30 43 H -0.671706 0.585358 -0.170260 0
M  V30 44 H -0.618635 2.247453 0.471146 0
M  V30 45 H -2.486462 2.979203 -0.798007 0
M  V30 46 H -2.155736 1.192787 -2.649940 0
M  V30 47 H -3.745193 1.855827 -2.261082 0
M  V30 48 H -1.911878 -1.453483 -2.458113 0
M  V30 49 H -3.639204 -1.917550 -2.931079 0
M  V30 50 H -2.884468 -0.477178 -3.605703 0
M  V30 51 H -5.377428 -1.190742 -1.720109 0
M  V30 52 H -5.113708 0.105569 -2.949995 0
M  V30 53 H -5.539195 0.605904 -1.321032 0
M  V30 54 H -3.466082 -2.670444 -1.048999 0
M  V30 55 H -3.509489 -2.496799 0.721587 0
M  V30 56 H -1.974331 -2.356238 -0.150460 0
M  V30 57 H -1.920766 -1.198086 1.659586 0
M  V30 58 H -3.321289 -0.970734 2.717179 0
M  V30 59 H -2.138642 0.334602 2.510907 0
M  V30 60 H -5.417343 -0.769310 0.655717 0
M  V30 61 H -5.033127 -0.138249 2.298990 0
M  V30 62 H -5.411905 1.035732 1.046667 0
M  V30 63 H -3.958348 2.219319 0.732774 0
M  V30 64 H -2.395782 1.867194 1.464963 0
M  V30 65 H 2.642229 -1.044313 0.082526 0
M  V30 66 H 4.604081 -4.155045 -1.473392 0
M  V30 67 H 4.906951 -4.743000 0.209997 0
M  V30 68 H 4.620850 -2.934870 -0.096929 0
M  V30 69 H 2.630845 -3.803626 3.323978 0
M  V30 END ATOM
M  V30 BEGIN BOND
M  V30 1 1 1 2
M  V30 2 1 2 3
M  V30 3 2 3 4
M  V30 4 1 4 5
M  V30 5 1 5 6
M  V30 6 1 6 7
M  V30 7 2 7 8
M  V30 8 1 8 9
M  V30 9 2 9 10
M  V30 10 1 10 11
M  V30 11 1 10 12
M  V30 12 1 12 13
M  V30 13 1 13 14
M  V30 14 1 14 15
M  V30 15 1 15 16
M  V30 16 1 16 17
M  V30 17 1 17 18
M  V30 18 1 17 19
M  V30 19 1 17 20
M  V30 20 1 20 21
M  V30 21 1 20 22
M  V30 22 1 22 23
M  V30 23 1 22 24
M  V30 24 1 22 25
M  V30 25 2 12 26
M  V30 26 2 5 27
M  V30 27 1 27 28
M  V30 28 1 28 29
M  V30 29 1 29 30
M  V30 30 2 30 31
M  V30 31 1 31 32
M  V30 32 2 32 33
M  V30 33 1 33 34
M  V30 34 2 28 35
M  V30 35 1 35 3
M  V30 36 1 26 7
M  V30 37 1 33 29
M  V30 38 1 25 15
M  V30 39 1 1 36
M  V30 40 1 1 37
M  V30 41 1 1 38
M  V30 42 1 4 39
M  V30 43 1 6 40
M  V30 44 1 9 41
M  V30 45 1 13 42
M  V30 46 1 14 43
M  V30 47 1 14 44
M  V30 48 1 15 45
M  V30 49 1 16 46
M  V30 50 1 16 47
M  V30 51 1 18 48
M  V30 52 1 18 49
M  V30 53 1 18 50
M  V30 54 1 19 51
M  V30 55 1 19 52
M  V30 56 1 19 53
M  V30 57 1 21 54
M  V30 58 1 21 55
M  V30 59 1 21 56
M  V30 60 1 23 57
M  V30 61 1 23 58
M  V30 62 1 23 59
M  V30 63 1 24 60
M  V30 64 1 24 61
M  V30 65 1 24 62
M  V30 66 1 25 63
M  V30 67 1 25 64
M  V30 68 1 27 65
M  V30 69 1 34 66
M  V30 70 1 34 67
M  V30 71 1 34 68
M  V30 72 1 35 69
M  V30 END BOND
M  V30 END CTAB
M  END
>  <Dataset>  (938) 
ChEMBL_Kinases

>  <Ligand_Instance>  (938) 
nan

>  <PDB_ID>  (938) 
nan

>  <Standardized_SMILES>  (938) 
COc1cc(Nc2ncc(F)c(NCC3CC(C)(C)N(C)C(C)(C)C3)n2)cc(-n2nnnc2C)c1

>  <Name>  (938) 
nan

>  <Pocket>  (938) 
nan

>  <ATP_Site>  (938) 
nan

>  <Peripheral>  (938) 
nan

>  <Num_H_Atoms_ProtBoundConf>  (938) 
nan

>  <Num_Resolved_Atoms>  (938) 
nan

>  <Num_Not_Resolved_Atoms>  (938) 
nan

$$$$
CHEMBL3586036
     RDKit          3D

  0  0  0  0  0  0  0  0  0  0999 V3000
M  V30 BEGIN CTAB
M  V30 COUNTS 57 60 0 0 0
M  V30 BEGIN ATOM
M  V30 1 C -1.746810 -2.922436 3.396122 0
M  V30 2 O -0.783707 -2.190286 2.698326 0
M  V30 3 C 0.010532 -2.678115 1.698379 0
M  V30 4 C 0.940412 -1.889281 1.056280 0
M  V30 5 C 1.765332 -2.301288 0.054229 0
M  V30 6 N 2.718582 -1.513687 -0.623876 0
M  V30 7 C 2.960273 -0.119951 -0.499618 0
M  V30 8 N 3.956265 0.436313 -1.201885 0
M  V30 9 C 4.245277 1.733453 -1.145636 0
M  V30 10 C 3.519105 2.584448 -0.346060 0
M  V30 11 F 3.834036 3.893318 -0.308453 0
M  V30 12 C 2.491586 2.023043 0.380928 0
M  V30 13 N 1.712923 2.856768 1.229493 0
M  V30 14 C 0.601444 2.399630 2.040364 0
M  V30 15 C -0.471116 1.900413 1.118120 0
M  V30 16 C -0.968855 2.974270 0.175737 0
M  V30 17 C -2.387063 2.700947 -0.278066 0
M  V30 18 N -2.569761 1.290932 -0.396604 0
M  V30 19 C -3.721486 0.873149 -1.131273 0
M  V30 20 C -2.456065 0.553763 0.819080 0
M  V30 21 C -1.670856 1.350441 1.857923 0
M  V30 22 N 2.266948 0.711512 0.267927 0
M  V30 23 C 1.591847 -3.626829 -0.283719 0
M  V30 24 C 0.681109 -4.456720 0.323023 0
M  V30 25 N 0.569029 -5.817152 -0.091439 0
M  V30 26 N 0.981511 -7.001234 0.294930 0
M  V30 27 N 0.523968 -7.907362 -0.541692 0
M  V30 28 N -0.196390 -7.316510 -1.487993 0
M  V30 29 C -0.170601 -6.006877 -1.209435 0
M  V30 30 C -0.915192 -5.092036 -2.131605 0
M  V30 31 C -0.121959 -3.981936 1.326827 0
M  V30 32 H -2.496078 -2.292890 3.903436 0
M  V30 33 H -1.237888 -3.514899 4.184398 0
M  V30 34 H -2.282716 -3.654383 2.750016 0
M  V30 35 H 0.990816 -0.877950 1.404721 0
M  V30 36 H 3.330727 -2.036614 -1.313746 0
M  V30 37 H 5.066201 2.087719 -1.748143 0
M  V30 38 H 1.937924 3.882898 1.292097 0
M  V30 39 H 0.946451 1.536192 2.662339 0
M  V30 40 H 0.225581 3.181482 2.702164 0
M  V30 41 H -0.061127 1.066057 0.521926 0
M  V30 42 H -0.872495 3.938477 0.691391 0
M  V30 43 H -0.332758 3.015882 -0.732385 0
M  V30 44 H -2.512267 3.143874 -1.287394 0
M  V30 45 H -3.114975 3.203693 0.380302 0
M  V30 46 H -3.397814 -0.027168 -1.724262 0
M  V30 47 H -4.057536 1.615215 -1.889405 0
M  V30 48 H -4.571112 0.522525 -0.511306 0
M  V30 49 H -3.396263 0.148318 1.212742 0
M  V30 50 H -1.782742 -0.322003 0.585964 0
M  V30 51 H -1.324814 0.675705 2.673559 0
M  V30 52 H -2.340099 2.109468 2.264787 0
M  V30 53 H 2.202575 -4.076970 -1.081658 0
M  V30 54 H -0.495336 -5.245173 -3.130050 0
M  V30 55 H -0.742395 -4.041568 -1.844698 0
M  V30 56 H -1.991536 -5.335871 -2.103899 0
M  V30 57 H -0.818626 -4.676470 1.767863 0
M  V30 END ATOM
M  V30 BEGIN BOND
M  V30 1 1 1 2
M  V30 2 1 2 3
M  V30 3 2 3 4
M  V30 4 1 4 5
M  V30 5 1 5 6
M  V30 6 1 6 7
M  V30 7 2 7 8
M  V30 8 1 8 9
M  V30 9 2 9 10
M  V30 10 1 10 11
M  V30 11 1 10 12
M  V30 12 1 12 13
M  V30 13 1 13 14
M  V30 14 1 14 15
M  V30 15 1 15 16
M  V30 16 1 16 17
M  V30 17 1 17 18
M  V30 18 1 18 19
M  V30 19 1 18 20
M  V30 20 1 20 21
M  V30 21 2 12 22
M  V30 22 2 5 23
M  V30 23 1 23 24
M  V30 24 1 24 25
M  V30 25 1 25 26
M  V30 26 2 26 27
M  V30 27 1 27 28
M  V30 28 2 28 29
M  V30 29 1 29 30
M  V30 30 2 24 31
M  V30 31 1 31 3
M  V30 32 1 22 7
M  V30 33 1 29 25
M  V30 34 1 21 15
M  V30 35 1 1 32
M  V30 36 1 1 33
M  V30 37 1 1 34
M  V30 38 1 4 35
M  V30 39 1 6 36
M  V30 40 1 9 37
M  V30 41 1 13 38
M  V30 42 1 14 39
M  V30 43 1 14 40
M  V30 44 1 15 41
M  V30 45 1 16 42
M  V30 46 1 16 43
M  V30 47 1 17 44
M  V30 48 1 17 45
M  V30 49 1 19 46
M  V30 50 1 19 47
M  V30 51 1 19 48
M  V30 52 1 20 49
M  V30 53 1 20 50
M  V30 54 1 21 51
M  V30 55 1 21 52
M  V30 56 1 23 53
M  V30 57 1 30 54
M  V30 58 1 30 55
M  V30 59 1 30 56
M  V30 60 1 31 57
M  V30 END BOND
M  V30 END CTAB
M  END
>  <Dataset>  (939) 
ChEMBL_Kinases

>  <Ligand_Instance>  (939) 
nan

>  <PDB_ID>  (939) 
nan

>  <Standardized_SMILES>  (939) 
COc1cc(Nc2ncc(F)c(NCC3CCN(C)CC3)n2)cc(-n2nnnc2C)c1

>  <Name>  (939) 
nan

>  <Pocket>  (939) 
nan

>  <ATP_Site>  (939) 
nan

>  <Peripheral>  (939) 
nan

>  <Num_H_Atoms_ProtBoundConf>  (939) 
nan

>  <Num_Resolved_Atoms>  (939) 
nan

>  <Num_Not_Resolved_Atoms>  (939) 
nan

$$$$
CHEMBL3586037
     RDKit          3D

  0  0  0  0  0  0  0  0  0  0999 V3000
M  V30 BEGIN CTAB
M  V30 COUNTS 57 60 0 0 0
M  V30 BEGIN ATOM
M  V30 1 C 0.081718 -6.355750 3.920266 0
M  V30 2 O 0.813970 -5.152508 4.020160 0
M  V30 3 C 1.042743 -4.399590 2.887364 0
M  V30 4 C 1.751162 -3.221594 2.945514 0
M  V30 5 C 2.036833 -2.390594 1.871088 0
M  V30 6 N 2.773423 -1.199368 1.992363 0
M  V30 7 C 2.952939 -0.401492 0.804896 0
M  V30 8 N 3.933353 -0.567333 -0.100443 0
M  V30 9 C 3.990169 0.253421 -1.170972 0
M  V30 10 C 3.013467 1.247234 -1.284549 0
M  V30 11 F 3.085698 2.064654 -2.367051 0
M  V30 12 C 2.004502 1.397786 -0.327776 0
M  V30 13 N 1.020636 2.419425 -0.463067 0
M  V30 14 C -0.019885 2.602010 0.496677 0
M  V30 15 C -0.927091 1.439508 0.705401 0 CFG=1
M  V30 16 C -1.977708 1.773633 1.744456 0
M  V30 17 C -3.062022 2.676357 1.242964 0
M  V30 18 C -3.540850 2.350040 -0.145588 0
M  V30 19 N -2.377535 2.273229 -1.011118 0
M  V30 20 C -2.758883 2.038340 -2.392026 0
M  V30 21 C -1.631355 1.106285 -0.570097 0
M  V30 22 N 1.983692 0.557581 0.725580 0
M  V30 23 C 1.530594 -2.851016 0.650540 0
M  V30 24 C 0.810464 -4.026128 0.518902 0
M  V30 25 N 0.355285 -4.376926 -0.787798 0
M  V30 26 N 0.528050 -5.475830 -1.476949 0
M  V30 27 N -0.074103 -5.364576 -2.657201 0
M  V30 28 N -0.630338 -4.173285 -2.699070 0
M  V30 29 C -0.373339 -3.543128 -1.542363 0
M  V30 30 C -0.888096 -2.170460 -1.321429 0
M  V30 31 C 0.576638 -4.786669 1.649573 0
M  V30 32 H -0.824654 -6.143788 3.310759 0
M  V30 33 H 0.659726 -7.142277 3.422408 0
M  V30 34 H -0.251080 -6.704929 4.941568 0
M  V30 35 H 2.126264 -2.901389 3.918868 0
M  V30 36 H 3.142728 -0.965695 2.925942 0
M  V30 37 H 4.775379 0.122327 -1.899401 0
M  V30 38 H 1.074698 3.049447 -1.298027 0
M  V30 39 H 0.483071 2.861622 1.465332 0
M  V30 40 H -0.642038 3.474668 0.235361 0
M  V30 41 H -0.388159 0.533986 1.100443 0
M  V30 42 H -1.539469 2.266771 2.646716 0
M  V30 43 H -2.436642 0.812666 2.061081 0
M  V30 44 H -2.757326 3.749998 1.281728 0
M  V30 45 H -3.940248 2.561920 1.925325 0
M  V30 46 H -4.169120 3.187653 -0.505706 0
M  V30 47 H -4.132689 1.415717 -0.158977 0
M  V30 48 H -1.998628 1.413928 -2.930704 0
M  V30 49 H -3.713146 1.504033 -2.414984 0
M  V30 50 H -2.838410 2.982762 -2.956768 0
M  V30 51 H -2.349280 0.278194 -0.404595 0
M  V30 52 H -0.962242 0.795728 -1.369238 0
M  V30 53 H 1.730874 -2.228289 -0.223753 0
M  V30 54 H -0.381469 -1.450349 -1.995927 0
M  V30 55 H -0.655685 -1.928467 -0.260873 0
M  V30 56 H -1.988059 -2.110736 -1.493108 0
M  V30 57 H 0.013484 -5.692512 1.509373 0
M  V30 END ATOM
M  V30 BEGIN BOND
M  V30 1 1 1 2
M  V30 2 1 2 3
M  V30 3 2 3 4
M  V30 4 1 4 5
M  V30 5 1 5 6
M  V30 6 1 6 7
M  V30 7 2 7 8
M  V30 8 1 8 9
M  V30 9 2 9 10
M  V30 10 1 10 11
M  V30 11 1 10 12
M  V30 12 1 12 13
M  V30 13 1 13 14
M  V30 14 1 14 15
M  V30 15 1 15 16
M  V30 16 1 16 17
M  V30 17 1 17 18
M  V30 18 1 18 19
M  V30 19 1 19 20
M  V30 20 1 19 21
M  V30 21 2 12 22
M  V30 22 2 5 23
M  V30 23 1 23 24
M  V30 24 1 24 25
M  V30 25 1 25 26
M  V30 26 2 26 27
M  V30 27 1 27 28
M  V30 28 2 28 29
M  V30 29 1 29 30
M  V30 30 2 24 31
M  V30 31 1 31 3
M  V30 32 1 22 7
M  V30 33 1 29 25
M  V30 34 1 21 15
M  V30 35 1 1 32
M  V30 36 1 1 33
M  V30 37 1 1 34
M  V30 38 1 4 35
M  V30 39 1 6 36
M  V30 40 1 9 37
M  V30 41 1 13 38
M  V30 42 1 14 39
M  V30 43 1 14 40
M  V30 44 1 15 41 CFG=1
M  V30 45 1 16 42
M  V30 46 1 16 43
M  V30 47 1 17 44
M  V30 48 1 17 45
M  V30 49 1 18 46
M  V30 50 1 18 47
M  V30 51 1 20 48
M  V30 52 1 20 49
M  V30 53 1 20 50
M  V30 54 1 21 51
M  V30 55 1 21 52
M  V30 56 1 23 53
M  V30 57 1 30 54
M  V30 58 1 30 55
M  V30 59 1 30 56
M  V30 60 1 31 57
M  V30 END BOND
M  V30 END CTAB
M  END
>  <Dataset>  (940) 
ChEMBL_Kinases

>  <Ligand_Instance>  (940) 
nan

>  <PDB_ID>  (940) 
nan

>  <Standardized_SMILES>  (940) 
COc1cc(Nc2ncc(F)c(NC[C@H]3CCCN(C)C3)n2)cc(-n2nnnc2C)c1

>  <Name>  (940) 
nan

>  <Pocket>  (940) 
nan

>  <ATP_Site>  (940) 
nan

>  <Peripheral>  (940) 
nan

>  <Num_H_Atoms_ProtBoundConf>  (940) 
nan

>  <Num_Resolved_Atoms>  (940) 
nan

>  <Num_Not_Resolved_Atoms>  (940) 
nan

$$$$
CHEMBL3586038
     RDKit          3D

  0  0  0  0  0  0  0  0  0  0999 V3000
M  V30 BEGIN CTAB
M  V30 COUNTS 57 60 0 0 0
M  V30 BEGIN ATOM
M  V30 1 C -2.492754 -3.216945 2.347642 0
M  V30 2 O -1.419673 -2.367288 2.060746 0
M  V30 3 C -0.241969 -2.804151 1.512936 0
M  V30 4 C 0.817204 -1.972923 1.228666 0
M  V30 5 C 2.012927 -2.354224 0.683029 0
M  V30 6 N 3.094608 -1.502328 0.388280 0
M  V30 7 C 3.169083 -0.088546 0.487782 0
M  V30 8 N 4.329748 0.510740 0.207288 0
M  V30 9 C 4.529997 1.831190 0.259547 0
M  V30 10 C 3.473417 2.632802 0.626011 0
M  V30 11 F 3.596673 3.986453 0.702976 0
M  V30 12 C 2.258270 2.049148 0.922935 0
M  V30 13 N 1.137256 2.870104 1.315179 0
M  V30 14 C -0.164760 2.385074 1.637158 0
M  V30 15 C -0.872186 1.697037 0.510176 0 CFG=2
M  V30 16 C -1.088254 2.566634 -0.691534 0
M  V30 17 C -2.183756 3.536902 -0.391073 0
M  V30 18 C -3.477725 2.716066 -0.448858 0
M  V30 19 N -3.281719 1.382623 0.022793 0
M  V30 20 C -3.464143 0.358031 -0.937259 0
M  V30 21 C -2.218312 1.215507 0.959536 0
M  V30 22 N 2.160805 0.720428 0.840962 0
M  V30 23 C 2.079242 -3.701872 0.427060 0
M  V30 24 C 1.065527 -4.586516 0.684016 0
M  V30 25 N 1.213457 -5.966305 0.389212 0
M  V30 26 N 1.651878 -7.064774 0.989556 0
M  V30 27 N 1.533086 -8.093814 0.172397 0
M  V30 28 N 1.012690 -7.677815 -0.978063 0
M  V30 29 C 0.814655 -6.347886 -0.837962 0
M  V30 30 C 0.228965 -5.614825 -2.001525 0
M  V30 31 C -0.116241 -4.145640 1.234060 0
M  V30 32 H -3.373159 -2.586884 2.607851 0
M  V30 33 H -2.802668 -3.824413 1.476905 0
M  V30 34 H -2.303273 -3.872661 3.241453 0
M  V30 35 H 0.641401 -0.943698 1.477457 0
M  V30 36 H 3.963623 -1.999956 0.047475 0
M  V30 37 H 5.499967 2.253926 0.019027 0
M  V30 38 H 1.326242 3.917649 1.358858 0
M  V30 39 H -0.083202 1.691019 2.503347 0
M  V30 40 H -0.785785 3.220797 1.996018 0
M  V30 41 H -0.251465 0.845801 0.173717 0
M  V30 42 H -0.165892 3.033844 -1.073693 0
M  V30 43 H -1.435293 1.911708 -1.517848 0
M  V30 44 H -2.235517 4.370243 -1.146381 0
M  V30 45 H -2.058414 3.980223 0.597999 0
M  V30 46 H -3.748955 2.673545 -1.522401 0
M  V30 47 H -4.257436 3.257967 0.100950 0
M  V30 48 H -2.735601 -0.480676 -0.902813 0
M  V30 49 H -4.473652 -0.138487 -0.834540 0
M  V30 50 H -3.480611 0.746990 -1.989456 0
M  V30 51 H -2.180500 0.118353 1.191968 0
M  V30 52 H -2.531018 1.698228 1.921161 0
M  V30 53 H 2.987291 -4.130496 -0.010302 0
M  V30 54 H 0.866503 -5.807485 -2.875505 0
M  V30 55 H 0.211725 -4.535834 -1.745160 0
M  V30 56 H -0.791942 -6.007293 -2.155743 0
M  V30 57 H -0.898350 -4.859047 1.427078 0
M  V30 END ATOM
M  V30 BEGIN BOND
M  V30 1 1 1 2
M  V30 2 1 2 3
M  V30 3 2 3 4
M  V30 4 1 4 5
M  V30 5 1 5 6
M  V30 6 1 6 7
M  V30 7 2 7 8
M  V30 8 1 8 9
M  V30 9 2 9 10
M  V30 10 1 10 11
M  V30 11 1 10 12
M  V30 12 1 12 13
M  V30 13 1 13 14
M  V30 14 1 14 15
M  V30 15 1 15 16
M  V30 16 1 16 17
M  V30 17 1 17 18
M  V30 18 1 18 19
M  V30 19 1 19 20
M  V30 20 1 19 21
M  V30 21 2 12 22
M  V30 22 2 5 23
M  V30 23 1 23 24
M  V30 24 1 24 25
M  V30 25 1 25 26
M  V30 26 2 26 27
M  V30 27 1 27 28
M  V30 28 2 28 29
M  V30 29 1 29 30
M  V30 30 2 24 31
M  V30 31 1 31 3
M  V30 32 1 22 7
M  V30 33 1 29 25
M  V30 34 1 21 15
M  V30 35 1 1 32
M  V30 36 1 1 33
M  V30 37 1 1 34
M  V30 38 1 4 35
M  V30 39 1 6 36
M  V30 40 1 9 37
M  V30 41 1 13 38
M  V30 42 1 14 39
M  V30 43 1 14 40
M  V30 44 1 15 41 CFG=3
M  V30 45 1 16 42
M  V30 46 1 16 43
M  V30 47 1 17 44
M  V30 48 1 17 45
M  V30 49 1 18 46
M  V30 50 1 18 47
M  V30 51 1 20 48
M  V30 52 1 20 49
M  V30 53 1 20 50
M  V30 54 1 21 51
M  V30 55 1 21 52
M  V30 56 1 23 53
M  V30 57 1 30 54
M  V30 58 1 30 55
M  V30 59 1 30 56
M  V30 60 1 31 57
M  V30 END BOND
M  V30 END CTAB
M  END
>  <Dataset>  (941) 
ChEMBL_Kinases

>  <Ligand_Instance>  (941) 
nan

>  <PDB_ID>  (941) 
nan

>  <Standardized_SMILES>  (941) 
COc1cc(Nc2ncc(F)c(NC[C@@H]3CCCN(C)C3)n2)cc(-n2nnnc2C)c1

>  <Name>  (941) 
nan

>  <Pocket>  (941) 
nan

>  <ATP_Site>  (941) 
nan

>  <Peripheral>  (941) 
nan

>  <Num_H_Atoms_ProtBoundConf>  (941) 
nan

>  <Num_Resolved_Atoms>  (941) 
nan

>  <Num_Not_Resolved_Atoms>  (941) 
nan

$$$$
CHEMBL3586039
     RDKit          3D

  0  0  0  0  0  0  0  0  0  0999 V3000
M  V30 BEGIN CTAB
M  V30 COUNTS 60 63 0 0 0
M  V30 BEGIN ATOM
M  V30 1 C 4.446898 -0.138580 2.957047 0
M  V30 2 C 4.474701 -1.594918 2.626185 0
M  V30 3 N 3.169770 -2.215091 2.539884 0
M  V30 4 C 2.527448 -2.288664 3.804221 0
M  V30 5 C 1.076124 -2.598571 3.802662 0
M  V30 6 C 0.380980 -2.262965 2.504236 0
M  V30 7 C 1.072712 -1.119083 1.783744 0 CFG=1
M  V30 8 C 0.862879 0.131415 2.521775 0
M  V30 9 N 1.407986 1.342217 2.051858 0
M  V30 10 C 1.068209 2.002249 0.837716 0
M  V30 11 N 0.131400 1.471492 0.030361 0
M  V30 12 C -0.186270 2.103091 -1.097829 0
M  V30 13 N -1.163201 1.669157 -2.043619 0
M  V30 14 C -2.007293 0.553531 -1.984918 0
M  V30 15 C -2.864003 0.200955 -3.024312 0
M  V30 16 C -3.704382 -0.880520 -2.995418 0
M  V30 17 O -4.511378 -1.143456 -4.072782 0
M  V30 18 C -4.499692 -0.321850 -5.223242 0
M  V30 19 C -3.751385 -1.708910 -1.900193 0
M  V30 20 C -2.920241 -1.396835 -0.849247 0
M  V30 21 N -2.994264 -2.280964 0.276293 0
M  V30 22 N -3.297658 -2.217566 1.564197 0
M  V30 23 N -3.179332 -3.396541 2.105938 0
M  V30 24 N -2.795321 -4.270859 1.194491 0
M  V30 25 C -2.675925 -3.588342 0.047721 0
M  V30 26 C -2.251262 -4.299669 -1.191293 0
M  V30 27 C -2.099520 -0.310036 -0.919786 0
M  V30 28 N 0.445746 3.245655 -1.380498 0
M  V30 29 C 1.376400 3.847776 -0.657375 0
M  V30 30 C 1.703641 3.197371 0.505343 0
M  V30 31 F 2.647384 3.709641 1.341264 0
M  V30 32 C 2.434873 -1.599162 1.495180 0
M  V30 33 H 3.979334 0.134361 3.902347 0
M  V30 34 H 4.066383 0.465824 2.081984 0
M  V30 35 H 5.527769 0.179359 3.029353 0
M  V30 36 H 5.044315 -1.700702 1.678878 0
M  V30 37 H 5.067518 -2.138193 3.392802 0
M  V30 38 H 3.048896 -3.137759 4.351788 0
M  V30 39 H 2.792774 -1.410503 4.469478 0
M  V30 40 H 0.905738 -3.628263 4.123501 0
M  V30 41 H 0.606802 -1.933551 4.585043 0
M  V30 42 H 0.497841 -3.181593 1.858268 0
M  V30 43 H -0.687697 -2.079426 2.590679 0
M  V30 44 H 0.551342 -1.031362 0.784617 0
M  V30 45 H -0.261318 0.302388 2.537123 0
M  V30 46 H 1.093559 0.007209 3.596458 0
M  V30 47 H 2.149206 1.814654 2.661266 0
M  V30 48 H -1.304031 2.234678 -2.923559 0
M  V30 49 H -2.876188 0.823398 -3.932688 0
M  V30 50 H -4.766976 0.724208 -4.907035 0
M  V30 51 H -3.473072 -0.281485 -5.645255 0
M  V30 52 H -5.265782 -0.672769 -5.953142 0
M  V30 53 H -4.423449 -2.541223 -1.921966 0
M  V30 54 H -1.428563 -4.999677 -0.955372 0
M  V30 55 H -3.089415 -4.863848 -1.613967 0
M  V30 56 H -1.864152 -3.548462 -1.910875 0
M  V30 57 H -1.510255 -0.176978 -0.040383 0
M  V30 58 H 1.885124 4.761905 -0.880201 0
M  V30 59 H 2.295076 -2.426829 0.726610 0
M  V30 60 H 3.069871 -0.882292 0.929514 0
M  V30 END ATOM
M  V30 BEGIN BOND
M  V30 1 1 1 2
M  V30 2 1 2 3
M  V30 3 1 3 4
M  V30 4 1 4 5
M  V30 5 1 5 6
M  V30 6 1 6 7
M  V30 7 1 7 8
M  V30 8 1 8 9
M  V30 9 1 9 10
M  V30 10 2 10 11
M  V30 11 1 11 12
M  V30 12 1 12 13
M  V30 13 1 13 14
M  V30 14 2 14 15
M  V30 15 1 15 16
M  V30 16 1 16 17
M  V30 17 1 17 18
M  V30 18 2 16 19
M  V30 19 1 19 20
M  V30 20 1 20 21
M  V30 21 1 21 22
M  V30 22 2 22 23
M  V30 23 1 23 24
M  V30 24 2 24 25
M  V30 25 1 25 26
M  V30 26 2 20 27
M  V30 27 2 12 28
M  V30 28 1 28 29
M  V30 29 2 29 30
M  V30 30 1 30 31
M  V30 31 1 7 32
M  V30 32 1 32 3
M  V30 33 1 30 10
M  V30 34 1 27 14
M  V30 35 1 25 21
M  V30 36 1 1 33
M  V30 37 1 1 34
M  V30 38 1 1 35
M  V30 39 1 2 36
M  V30 40 1 2 37
M  V30 41 1 4 38
M  V30 42 1 4 39
M  V30 43 1 5 40
M  V30 44 1 5 41
M  V30 45 1 6 42
M  V30 46 1 6 43
M  V30 47 1 7 44 CFG=3
M  V30 48 1 8 45
M  V30 49 1 8 46
M  V30 50 1 9 47
M  V30 51 1 13 48
M  V30 52 1 15 49
M  V30 53 1 18 50
M  V30 54 1 18 51
M  V30 55 1 18 52
M  V30 56 1 19 53
M  V30 57 1 26 54
M  V30 58 1 26 55
M  V30 59 1 26 56
M  V30 60 1 27 57
M  V30 61 1 29 58
M  V30 62 1 32 59
M  V30 63 1 32 60
M  V30 END BOND
M  V30 END CTAB
M  END
>  <Dataset>  (942) 
ChEMBL_Kinases

>  <Ligand_Instance>  (942) 
nan

>  <PDB_ID>  (942) 
nan

>  <Standardized_SMILES>  (942) 
CCN1CCC[C@@H](CNc2nc(Nc3cc(OC)cc(-n4nnnc4C)c3)ncc2F)C1

>  <Name>  (942) 
nan

>  <Pocket>  (942) 
nan

>  <ATP_Site>  (942) 
nan

>  <Peripheral>  (942) 
nan

>  <Num_H_Atoms_ProtBoundConf>  (942) 
nan

>  <Num_Resolved_Atoms>  (942) 
nan

>  <Num_Not_Resolved_Atoms>  (942) 
nan

$$$$
CHEMBL3586040
     RDKit          3D

  0  0  0  0  0  0  0  0  0  0999 V3000
M  V30 BEGIN CTAB
M  V30 COUNTS 64 67 0 0 0
M  V30 BEGIN ATOM
M  V30 1 C 5.292560 -1.095474 2.334010 0
M  V30 2 O 5.665185 0.226528 2.452785 0
M  V30 3 C 4.657179 1.150591 2.256998 0
M  V30 4 C 4.064770 1.068569 0.898398 0
M  V30 5 N 3.011872 2.035026 0.675371 0
M  V30 6 C 1.829397 1.821089 1.424853 0
M  V30 7 C 1.230044 0.501024 1.008857 0
M  V30 8 C 1.226547 0.252569 -0.452617 0
M  V30 9 C 1.751527 1.316420 -1.319711 0 CFG=1
M  V30 10 C 0.637562 2.076258 -1.993692 0
M  V30 11 N -0.283910 2.744453 -1.144075 0
M  V30 12 C -1.379557 2.572272 -0.263533 0
M  V30 13 N -1.955608 1.395013 0.002908 0
M  V30 14 C -2.997113 1.171933 0.803796 0
M  V30 15 N -3.614321 -0.074195 1.074109 0
M  V30 16 C -3.319536 -1.327083 0.491433 0
M  V30 17 C -2.504098 -1.554912 -0.572411 0
M  V30 18 C -2.202792 -2.765516 -1.134800 0
M  V30 19 O -1.355662 -2.874383 -2.219394 0
M  V30 20 C -1.002167 -4.075966 -2.845901 0
M  V30 21 C -2.785138 -3.895924 -0.570508 0
M  V30 22 C -3.622396 -3.735296 0.509818 0
M  V30 23 N -4.222715 -4.883586 1.093755 0
M  V30 24 N -5.457568 -5.361012 1.056169 0
M  V30 25 N -5.543952 -6.482787 1.768715 0
M  V30 26 N -4.368348 -6.743818 2.274718 0
M  V30 27 C -3.551351 -5.759748 1.860442 0
M  V30 28 C -2.092955 -5.665938 2.213945 0
M  V30 29 C -3.877561 -2.483089 1.020702 0
M  V30 30 N -3.490832 2.273577 1.385914 0
M  V30 31 C -3.012819 3.507663 1.207812 0
M  V30 32 C -1.941439 3.685943 0.375065 0
M  V30 33 F -1.449475 4.942643 0.188407 0
M  V30 34 C 2.720609 2.265711 -0.702197 0
M  V30 35 H 4.895365 -1.402462 1.360216 0
M  V30 36 H 6.226629 -1.692821 2.544858 0
M  V30 37 H 4.544380 -1.374623 3.135884 0
M  V30 38 H 5.093910 2.170056 2.466070 0
M  V30 39 H 3.928830 0.990155 3.078624 0
M  V30 40 H 3.766676 0.048196 0.609940 0
M  V30 41 H 4.882958 1.340815 0.175733 0
M  V30 42 H 1.153801 2.681486 1.249190 0
M  V30 43 H 1.976489 1.786583 2.520856 0
M  V30 44 H 0.204844 0.384347 1.428662 0
M  V30 45 H 1.829869 -0.273711 1.564427 0
M  V30 46 H 1.839030 -0.704440 -0.593403 0
M  V30 47 H 0.217277 -0.083087 -0.765975 0
M  V30 48 H 2.288477 0.806280 -2.179933 0
M  V30 49 H 0.053174 1.305404 -2.619322 0
M  V30 50 H 1.102512 2.696909 -2.790195 0
M  V30 51 H 0.012415 3.771833 -1.237855 0
M  V30 52 H -4.392347 -0.075330 1.800475 0
M  V30 53 H -2.038655 -0.708588 -1.046768 0
M  V30 54 H -0.066766 -4.524625 -2.424472 0
M  V30 55 H -0.779179 -3.849805 -3.918042 0
M  V30 56 H -1.806085 -4.829940 -2.811714 0
M  V30 57 H -2.606492 -4.893891 -0.945196 0
M  V30 58 H -1.513159 -5.946870 1.320784 0
M  V30 59 H -1.845540 -6.362485 3.029841 0
M  V30 60 H -1.840418 -4.609275 2.484593 0
M  V30 61 H -4.550509 -2.419216 1.878993 0
M  V30 62 H -3.421085 4.386385 1.684024 0
M  V30 63 H 2.313092 3.294111 -0.777977 0
M  V30 64 H 3.685036 2.274677 -1.248744 0
M  V30 END ATOM
M  V30 BEGIN BOND
M  V30 1 1 1 2
M  V30 2 1 2 3
M  V30 3 1 3 4
M  V30 4 1 4 5
M  V30 5 1 5 6
M  V30 6 1 6 7
M  V30 7 1 7 8
M  V30 8 1 8 9
M  V30 9 1 9 10
M  V30 10 1 10 11
M  V30 11 1 11 12
M  V30 12 2 12 13
M  V30 13 1 13 14
M  V30 14 1 14 15
M  V30 15 1 15 16
M  V30 16 2 16 17
M  V30 17 1 17 18
M  V30 18 1 18 19
M  V30 19 1 19 20
M  V30 20 2 18 21
M  V30 21 1 21 22
M  V30 22 1 22 23
M  V30 23 1 23 24
M  V30 24 2 24 25
M  V30 25 1 25 26
M  V30 26 2 26 27
M  V30 27 1 27 28
M  V30 28 2 22 29
M  V30 29 2 14 30
M  V30 30 1 30 31
M  V30 31 2 31 32
M  V30 32 1 32 33
M  V30 33 1 9 34
M  V30 34 1 34 5
M  V30 35 1 32 12
M  V30 36 1 29 16
M  V30 37 1 27 23
M  V30 38 1 1 35
M  V30 39 1 1 36
M  V30 40 1 1 37
M  V30 41 1 3 38
M  V30 42 1 3 39
M  V30 43 1 4 40
M  V30 44 1 4 41
M  V30 45 1 6 42
M  V30 46 1 6 43
M  V30 47 1 7 44
M  V30 48 1 7 45
M  V30 49 1 8 46
M  V30 50 1 8 47
M  V30 51 1 9 48 CFG=3
M  V30 52 1 10 49
M  V30 53 1 10 50
M  V30 54 1 11 51
M  V30 55 1 15 52
M  V30 56 1 17 53
M  V30 57 1 20 54
M  V30 58 1 20 55
M  V30 59 1 20 56
M  V30 60 1 21 57
M  V30 61 1 28 58
M  V30 62 1 28 59
M  V30 63 1 28 60
M  V30 64 1 29 61
M  V30 65 1 31 62
M  V30 66 1 34 63
M  V30 67 1 34 64
M  V30 END BOND
M  V30 END CTAB
M  END
>  <Dataset>  (943) 
ChEMBL_Kinases

>  <Ligand_Instance>  (943) 
nan

>  <PDB_ID>  (943) 
nan

>  <Standardized_SMILES>  (943) 
COCCN1CCC[C@@H](CNc2nc(Nc3cc(OC)cc(-n4nnnc4C)c3)ncc2F)C1

>  <Name>  (943) 
nan

>  <Pocket>  (943) 
nan

>  <ATP_Site>  (943) 
nan

>  <Peripheral>  (943) 
nan

>  <Num_H_Atoms_ProtBoundConf>  (943) 
nan

>  <Num_Resolved_Atoms>  (943) 
nan

>  <Num_Not_Resolved_Atoms>  (943) 
nan

$$$$
CHEMBL3586041
     RDKit          3D

  0  0  0  0  0  0  0  0  0  0999 V3000
M  V30 BEGIN CTAB
M  V30 COUNTS 60 63 0 0 0
M  V30 BEGIN ATOM
M  V30 1 C 4.170547 -6.075452 4.274220 0
M  V30 2 O 2.817692 -5.827804 3.968456 0
M  V30 3 C 2.471860 -4.641919 3.365936 0
M  V30 4 C 3.294399 -3.607806 2.997190 0
M  V30 5 C 2.833660 -2.458455 2.396800 0
M  V30 6 N 3.737885 -1.426722 2.042502 0
M  V30 7 C 3.472374 -0.180015 1.420738 0
M  V30 8 N 4.465944 0.666649 1.171242 0
M  V30 9 C 4.303629 1.851907 0.593778 0
M  V30 10 C 3.064390 2.263286 0.219248 0
M  V30 11 F 2.868787 3.470584 -0.373221 0
M  V30 12 C 2.005951 1.430159 0.452587 0
M  V30 13 N 0.663370 1.795455 0.087111 0
M  V30 14 C -0.414745 0.892826 0.348444 0
M  V30 15 C -1.765578 1.449148 -0.115933 0 CFG=2
M  V30 16 C -2.842900 0.467950 0.191647 0
M  V30 17 C -3.882164 0.292016 -0.863468 0
M  V30 18 C -3.241643 0.239692 -2.238606 0
M  V30 19 N -2.438499 1.360661 -2.512930 0
M  V30 20 C -2.842088 2.168450 -3.613653 0
M  V30 21 C -4.109629 2.928287 -3.453546 0
M  V30 22 F -5.224987 2.180879 -3.229619 0
M  V30 23 F -3.981670 4.002476 -2.564386 0
M  V30 24 C -1.712674 1.990709 -1.492447 0
M  V30 25 N 2.270469 0.256728 1.039758 0
M  V30 26 C 1.473179 -2.434161 2.196691 0
M  V30 27 C 0.572706 -3.410255 2.527467 0
M  V30 28 N -0.823539 -3.296693 2.279448 0
M  V30 29 N -1.916361 -3.121960 3.003674 0
M  V30 30 N -2.985818 -3.088538 2.247115 0
M  V30 31 N -2.556099 -3.248775 0.989600 0
M  V30 32 C -1.203238 -3.380443 0.994792 0
M  V30 33 C -0.485208 -3.570413 -0.288319 0
M  V30 34 C 1.101077 -4.556606 3.135877 0
M  V30 35 H 4.283350 -6.873830 5.043875 0
M  V30 36 H 4.612544 -5.121166 4.632686 0
M  V30 37 H 4.674811 -6.367200 3.320470 0
M  V30 38 H 4.335895 -3.731720 3.196898 0
M  V30 39 H 4.754210 -1.617974 2.277043 0
M  V30 40 H 5.155631 2.475263 0.427959 0
M  V30 41 H 0.545869 2.742294 -0.365807 0
M  V30 42 H -0.474409 0.595094 1.414518 0
M  V30 43 H -0.167178 -0.057204 -0.204538 0
M  V30 44 H -1.936796 2.313460 0.601064 0
M  V30 45 H -3.331605 0.642970 1.175295 0
M  V30 46 H -2.353398 -0.542685 0.314134 0
M  V30 47 H -4.666694 1.066371 -0.838460 0
M  V30 48 H -4.420505 -0.676495 -0.762163 0
M  V30 49 H -2.736421 -0.740753 -2.344185 0
M  V30 50 H -4.075978 0.210913 -2.974670 0
M  V30 51 H -2.042401 2.885743 -3.867020 0
M  V30 52 H -2.966082 1.498843 -4.490587 0
M  V30 53 H -4.286151 3.443644 -4.443924 0
M  V30 54 H -1.869960 3.107517 -1.443072 0
M  V30 55 H -0.617312 1.936349 -1.802554 0
M  V30 56 H 1.020907 -1.571424 1.732196 0
M  V30 57 H -0.548249 -2.683373 -0.951446 0
M  V30 58 H 0.546911 -3.946291 -0.139911 0
M  V30 59 H -1.012760 -4.377670 -0.839740 0
M  V30 60 H 0.371367 -5.337488 3.398614 0
M  V30 END ATOM
M  V30 BEGIN BOND
M  V30 1 1 1 2
M  V30 2 1 2 3
M  V30 3 2 3 4
M  V30 4 1 4 5
M  V30 5 1 5 6
M  V30 6 1 6 7
M  V30 7 2 7 8
M  V30 8 1 8 9
M  V30 9 2 9 10
M  V30 10 1 10 11
M  V30 11 1 10 12
M  V30 12 1 12 13
M  V30 13 1 13 14
M  V30 14 1 14 15
M  V30 15 1 15 16
M  V30 16 1 16 17
M  V30 17 1 17 18
M  V30 18 1 18 19
M  V30 19 1 19 20
M  V30 20 1 20 21
M  V30 21 1 21 22
M  V30 22 1 21 23
M  V30 23 1 19 24
M  V30 24 2 12 25
M  V30 25 2 5 26
M  V30 26 1 26 27
M  V30 27 1 27 28
M  V30 28 1 28 29
M  V30 29 2 29 30
M  V30 30 1 30 31
M  V30 31 2 31 32
M  V30 32 1 32 33
M  V30 33 2 27 34
M  V30 34 1 34 3
M  V30 35 1 25 7
M  V30 36 1 32 28
M  V30 37 1 24 15
M  V30 38 1 1 35
M  V30 39 1 1 36
M  V30 40 1 1 37
M  V30 41 1 4 38
M  V30 42 1 6 39
M  V30 43 1 9 40
M  V30 44 1 13 41
M  V30 45 1 14 42
M  V30 46 1 14 43
M  V30 47 1 15 44 CFG=1
M  V30 48 1 16 45
M  V30 49 1 16 46
M  V30 50 1 17 47
M  V30 51 1 17 48
M  V30 52 1 18 49
M  V30 53 1 18 50
M  V30 54 1 20 51
M  V30 55 1 20 52
M  V30 56 1 21 53
M  V30 57 1 24 54
M  V30 58 1 24 55
M  V30 59 1 26 56
M  V30 60 1 33 57
M  V30 61 1 33 58
M  V30 62 1 33 59
M  V30 63 1 34 60
M  V30 END BOND
M  V30 END CTAB
M  END
>  <Dataset>  (944) 
ChEMBL_Kinases

>  <Ligand_Instance>  (944) 
nan

>  <PDB_ID>  (944) 
nan

>  <Standardized_SMILES>  (944) 
COc1cc(Nc2ncc(F)c(NC[C@@H]3CCCN(CC(F)F)C3)n2)cc(-n2nnnc2C)c1

>  <Name>  (944) 
nan

>  <Pocket>  (944) 
nan

>  <ATP_Site>  (944) 
nan

>  <Peripheral>  (944) 
nan

>  <Num_H_Atoms_ProtBoundConf>  (944) 
nan

>  <Num_Resolved_Atoms>  (944) 
nan

>  <Num_Not_Resolved_Atoms>  (944) 
nan

$$$$
CHEMBL3582401
     RDKit          3D

  0  0  0  0  0  0  0  0  0  0999 V3000
M  V30 BEGIN CTAB
M  V30 COUNTS 37 40 0 0 0
M  V30 BEGIN ATOM
M  V30 1 C -0.273197 -4.849547 1.537529 0 MASS=11
M  V30 2 N -0.131011 -3.408091 1.511011 0
M  V30 3 C -1.151155 -2.582801 1.276962 0
M  V30 4 C -0.674601 -1.290631 1.317210 0
M  V30 5 C -1.451698 -0.045263 1.148782 0
M  V30 6 C -1.169984 0.970587 0.352491 0
M  V30 7 C -0.097834 1.302349 -0.613360 0
M  V30 8 C 0.055058 0.240558 -1.516308 0
M  V30 9 C 1.026867 0.332972 -2.521505 0
M  V30 10 C 1.764187 1.497661 -2.527953 0
M  V30 11 Cl 3.008653 1.641898 -3.775709 0
M  V30 12 C 1.621183 2.542281 -1.647790 0
M  V30 13 C 0.661269 2.443060 -0.660219 0
M  V30 14 Cl 0.314225 3.633037 0.560604 0
M  V30 15 C -2.207390 2.013399 0.485862 0
M  V30 16 O -2.392930 3.128448 -0.034457 0
M  V30 17 N -3.173976 1.550949 1.449615 0
M  V30 18 C -2.688885 0.257711 1.858228 0
M  V30 19 O -3.269396 -0.476383 2.701563 0
M  V30 20 C 0.689746 -1.364572 1.587734 0
M  V30 21 C 1.676007 -0.393730 1.754584 0
M  V30 22 C 2.981517 -0.809931 2.040860 0
M  V30 23 C 3.311880 -2.156569 2.159721 0
M  V30 24 C 2.311777 -3.094291 1.988135 0
M  V30 25 C 0.997171 -2.716758 1.702858 0
M  V30 26 H -1.299662 -5.172516 1.335824 0
M  V30 27 H 0.357067 -5.281605 0.717316 0
M  V30 28 H 0.052493 -5.283732 2.494850 0
M  V30 29 H -2.175690 -2.832147 1.084323 0
M  V30 30 H -0.501421 -0.680864 -1.544732 0
M  V30 31 H 1.196937 -0.443697 -3.249564 0
M  V30 32 H 2.196380 3.450611 -1.651010 0
M  V30 33 H -4.058747 2.031553 1.801350 0
M  V30 34 H 1.472785 0.653603 1.680497 0
M  V30 35 H 3.766018 -0.092974 2.182194 0
M  V30 36 H 4.314786 -2.507037 2.383311 0
M  V30 37 H 2.539217 -4.163960 2.072167 0
M  V30 END ATOM
M  V30 BEGIN BOND
M  V30 1 1 1 2
M  V30 2 1 2 3
M  V30 3 2 3 4
M  V30 4 1 4 5
M  V30 5 2 5 6
M  V30 6 1 6 7
M  V30 7 2 7 8
M  V30 8 1 8 9
M  V30 9 2 9 10
M  V30 10 1 10 11
M  V30 11 1 10 12
M  V30 12 2 12 13
M  V30 13 1 13 14
M  V30 14 1 6 15
M  V30 15 2 15 16
M  V30 16 1 15 17
M  V30 17 1 17 18
M  V30 18 2 18 19
M  V30 19 1 4 20
M  V30 20 2 20 21
M  V30 21 1 21 22
M  V30 22 2 22 23
M  V30 23 1 23 24
M  V30 24 2 24 25
M  V30 25 1 25 2
M  V30 26 1 18 5
M  V30 27 1 25 20
M  V30 28 1 13 7
M  V30 29 1 1 26
M  V30 30 1 1 27
M  V30 31 1 1 28
M  V30 32 1 3 29
M  V30 33 1 8 30
M  V30 34 1 9 31
M  V30 35 1 12 32
M  V30 36 1 17 33
M  V30 37 1 21 34
M  V30 38 1 22 35
M  V30 39 1 23 36
M  V30 40 1 24 37
M  V30 END BOND
M  V30 END CTAB
M  END
>  <Dataset>  (945) 
ChEMBL_Kinases

>  <Ligand_Instance>  (945) 
nan

>  <PDB_ID>  (945) 
nan

>  <Standardized_SMILES>  (945) 
[11CH3]n1cc(C2=C(c3ccc(Cl)cc3Cl)C(=O)NC2=O)c2ccccc21

>  <Name>  (945) 
nan

>  <Pocket>  (945) 
nan

>  <ATP_Site>  (945) 
nan

>  <Peripheral>  (945) 
nan

>  <Num_H_Atoms_ProtBoundConf>  (945) 
nan

>  <Num_Resolved_Atoms>  (945) 
nan

>  <Num_Not_Resolved_Atoms>  (945) 
nan

$$$$
CHEMBL3596908
     RDKit          3D

  0  0  0  0  0  0  0  0  0  0999 V3000
M  V30 BEGIN CTAB
M  V30 COUNTS 49 53 0 0 0
M  V30 BEGIN ATOM
M  V30 1 O 0.419198 2.229660 -2.024947 0
M  V30 2 C 1.681245 2.138794 -2.127502 0
M  V30 3 C 2.403905 2.000195 -3.386555 0
M  V30 4 C 3.716286 1.590341 -3.443397 0
M  V30 5 C 4.382895 1.465224 -4.665055 0
M  V30 6 C 3.665445 1.770378 -5.803035 0
M  V30 7 Cl 4.571768 1.585537 -7.288204 0
M  V30 8 C 2.354156 2.178283 -5.725632 0
M  V30 9 C 1.670569 2.310438 -4.530022 0
M  V30 10 C 2.387312 2.185217 -0.833281 0
M  V30 11 C 3.502691 2.841005 -0.358879 0
M  V30 12 N 3.697170 2.510339 0.922454 0
M  V30 13 C 2.759017 1.651623 1.350349 0
M  V30 14 N 2.528092 1.042899 2.526134 0
M  V30 15 C 1.477128 0.192446 2.706016 0
M  V30 16 C 0.615778 -0.050105 1.628409 0
M  V30 17 C -0.540609 -0.945524 1.709255 0
M  V30 18 C -1.088279 -1.713355 0.700727 0
M  V30 19 N -2.138142 -2.379317 1.228875 0
M  V30 20 N -2.298430 -2.089321 2.505858 0
M  V30 21 C -3.326387 -2.626085 3.384947 0
M  V30 22 C -2.699333 -2.817039 4.741679 0
M  V30 23 C -2.691039 -4.299536 5.038415 0
M  V30 24 N -4.037881 -4.841248 5.072803 0
M  V30 25 C -4.709204 -4.681346 3.797373 0
M  V30 26 C -3.899271 -3.880986 2.819646 0
M  V30 27 C -1.327411 -1.211611 2.816467 0
M  V30 28 C 0.872545 0.586387 0.430266 0
M  V30 29 C 1.931251 1.446035 0.241228 0
M  V30 30 H 4.254705 1.357371 -2.523926 0
M  V30 31 H 5.405624 1.142262 -4.640443 0
M  V30 32 H 1.951859 2.374474 -6.719019 0
M  V30 33 H 0.645589 2.636724 -4.578792 0
M  V30 34 H 4.055583 3.500780 -1.027109 0
M  V30 35 H 4.498837 2.900302 1.481541 0
M  V30 36 H 1.250057 -0.321300 3.631999 0
M  V30 37 H -0.751998 -1.779419 -0.321746 0
M  V30 38 H -4.167447 -1.897934 3.497540 0
M  V30 39 H -3.273002 -2.311885 5.547229 0
M  V30 40 H -1.645945 -2.503274 4.707576 0
M  V30 41 H -2.260950 -4.435666 6.045299 0
M  V30 42 H -2.049848 -4.825506 4.320052 0
M  V30 43 H -3.927412 -5.867676 5.231299 0
M  V30 44 H -5.027071 -5.656712 3.380294 0
M  V30 45 H -5.650457 -4.119572 3.996930 0
M  V30 46 H -4.552729 -3.612804 1.962415 0
M  V30 47 H -3.082319 -4.516567 2.434183 0
M  V30 48 H -1.149697 -0.748767 3.793745 0
M  V30 49 H 0.189057 0.388387 -0.407859 0
M  V30 END ATOM
M  V30 BEGIN BOND
M  V30 1 2 1 2
M  V30 2 1 2 3
M  V30 3 2 3 4
M  V30 4 1 4 5
M  V30 5 2 5 6
M  V30 6 1 6 7
M  V30 7 1 6 8
M  V30 8 2 8 9
M  V30 9 1 2 10
M  V30 10 2 10 11
M  V30 11 1 11 12
M  V30 12 1 12 13
M  V30 13 2 13 14
M  V30 14 1 14 15
M  V30 15 2 15 16
M  V30 16 1 16 17
M  V30 17 1 17 18
M  V30 18 2 18 19
M  V30 19 1 19 20
M  V30 20 1 20 21
M  V30 21 1 21 22
M  V30 22 1 22 23
M  V30 23 1 23 24
M  V30 24 1 24 25
M  V30 25 1 25 26
M  V30 26 1 20 27
M  V30 27 1 16 28
M  V30 28 2 28 29
M  V30 29 1 9 3
M  V30 30 1 29 10
M  V30 31 1 29 13
M  V30 32 2 27 17
M  V30 33 1 26 21
M  V30 34 1 4 30
M  V30 35 1 5 31
M  V30 36 1 8 32
M  V30 37 1 9 33
M  V30 38 1 11 34
M  V30 39 1 12 35
M  V30 40 1 15 36
M  V30 41 1 18 37
M  V30 42 1 21 38
M  V30 43 1 22 39
M  V30 44 1 22 40
M  V30 45 1 23 41
M  V30 46 1 23 42
M  V30 47 1 24 43
M  V30 48 1 25 44
M  V30 49 1 25 45
M  V30 50 1 26 46
M  V30 51 1 26 47
M  V30 52 1 27 48
M  V30 53 1 28 49
M  V30 END BOND
M  V30 END CTAB
M  END
>  <Dataset>  (946) 
ChEMBL_Kinases

>  <Ligand_Instance>  (946) 
nan

>  <PDB_ID>  (946) 
nan

>  <Standardized_SMILES>  (946) 
O=C(c1ccc(Cl)cc1)c1c[nH]c2ncc(-c3cnn(C4CCNCC4)c3)cc12

>  <Name>  (946) 
nan

>  <Pocket>  (946) 
nan

>  <ATP_Site>  (946) 
nan

>  <Peripheral>  (946) 
nan

>  <Num_H_Atoms_ProtBoundConf>  (946) 
nan

>  <Num_Resolved_Atoms>  (946) 
nan

>  <Num_Not_Resolved_Atoms>  (946) 
nan

$$$$
CHEMBL3596907
     RDKit          3D

  0  0  0  0  0  0  0  0  0  0999 V3000
M  V30 BEGIN CTAB
M  V30 COUNTS 49 53 0 0 0
M  V30 BEGIN ATOM
M  V30 1 O 3.201714 4.276539 -0.346983 0
M  V30 2 C 2.835559 3.100205 -0.658032 0
M  V30 3 C 1.699262 2.961941 -1.566277 0
M  V30 4 C 1.469541 1.796165 -2.224116 0
M  V30 5 C 0.416046 1.617742 -3.094185 0
M  V30 6 C -0.447989 2.669702 -3.309581 0
M  V30 7 C -0.234079 3.878370 -2.645584 0
M  V30 8 Cl -1.371564 5.168373 -2.971932 0
M  V30 9 C 0.840584 4.033663 -1.769399 0
M  V30 10 C 3.562396 1.970319 -0.097737 0
M  V30 11 C 4.944187 1.981136 -0.121955 0
M  V30 12 N 5.431254 0.854316 0.428614 0
M  V30 13 C 4.390919 0.106523 0.812554 0
M  V30 14 N 4.236987 -1.084314 1.405253 0
M  V30 15 C 3.020508 -1.607823 1.682663 0
M  V30 16 C 1.867526 -0.920868 1.358501 0
M  V30 17 C 0.616867 -1.571999 1.699753 0
M  V30 18 C 0.490757 -2.409072 2.814948 0
M  V30 19 N -0.790412 -2.877591 2.878649 0
M  V30 20 N -1.474961 -2.372538 1.853839 0
M  V30 21 C -2.882371 -2.659816 1.596512 0
M  V30 22 C -3.765862 -2.187795 2.710323 0
M  V30 23 C -3.811757 -3.222894 3.807185 0
M  V30 24 N -4.358134 -4.434434 3.261777 0
M  V30 25 C -3.612447 -5.012623 2.189976 0
M  V30 26 C -3.076670 -4.074269 1.173974 0
M  V30 27 C -0.643255 -1.590861 1.143637 0
M  V30 28 C 1.953765 0.321324 0.741517 0
M  V30 29 C 3.226595 0.770711 0.499879 0
M  V30 30 H 2.103831 0.926534 -2.105036 0
M  V30 31 H 0.236279 0.682598 -3.618767 0
M  V30 32 H -1.274130 2.557519 -3.980899 0
M  V30 33 H 0.977192 4.992313 -1.267425 0
M  V30 34 H 5.655072 2.732633 -0.502007 0
M  V30 35 H 6.404041 0.493010 0.593305 0
M  V30 36 H 3.073281 -2.580635 2.164612 0
M  V30 37 H 1.282173 -2.645693 3.513458 0
M  V30 38 H -3.173600 -2.028296 0.704839 0
M  V30 39 H -3.296119 -1.285514 3.161098 0
M  V30 40 H -4.754545 -1.881536 2.359957 0
M  V30 41 H -4.544482 -2.861840 4.565116 0
M  V30 42 H -2.834059 -3.334965 4.272508 0
M  V30 43 H -4.341137 -5.131961 4.057585 0
M  V30 44 H -4.326040 -5.717519 1.666060 0
M  V30 45 H -2.823511 -5.719506 2.585143 0
M  V30 46 H -3.644478 -4.156504 0.200565 0
M  V30 47 H -2.056492 -4.469654 0.889083 0
M  V30 48 H -0.870546 -1.027652 0.247871 0
M  V30 49 H 1.065206 0.869088 0.484762 0
M  V30 END ATOM
M  V30 BEGIN BOND
M  V30 1 2 1 2
M  V30 2 1 2 3
M  V30 3 2 3 4
M  V30 4 1 4 5
M  V30 5 2 5 6
M  V30 6 1 6 7
M  V30 7 1 7 8
M  V30 8 2 7 9
M  V30 9 1 2 10
M  V30 10 2 10 11
M  V30 11 1 11 12
M  V30 12 1 12 13
M  V30 13 2 13 14
M  V30 14 1 14 15
M  V30 15 2 15 16
M  V30 16 1 16 17
M  V30 17 1 17 18
M  V30 18 2 18 19
M  V30 19 1 19 20
M  V30 20 1 20 21
M  V30 21 1 21 22
M  V30 22 1 22 23
M  V30 23 1 23 24
M  V30 24 1 24 25
M  V30 25 1 25 26
M  V30 26 1 20 27
M  V30 27 1 16 28
M  V30 28 2 28 29
M  V30 29 1 9 3
M  V30 30 1 29 10
M  V30 31 1 29 13
M  V30 32 2 27 17
M  V30 33 1 26 21
M  V30 34 1 4 30
M  V30 35 1 5 31
M  V30 36 1 6 32
M  V30 37 1 9 33
M  V30 38 1 11 34
M  V30 39 1 12 35
M  V30 40 1 15 36
M  V30 41 1 18 37
M  V30 42 1 21 38
M  V30 43 1 22 39
M  V30 44 1 22 40
M  V30 45 1 23 41
M  V30 46 1 23 42
M  V30 47 1 24 43
M  V30 48 1 25 44
M  V30 49 1 25 45
M  V30 50 1 26 46
M  V30 51 1 26 47
M  V30 52 1 27 48
M  V30 53 1 28 49
M  V30 END BOND
M  V30 END CTAB
M  END
>  <Dataset>  (947) 
ChEMBL_Kinases

>  <Ligand_Instance>  (947) 
nan

>  <PDB_ID>  (947) 
nan

>  <Standardized_SMILES>  (947) 
O=C(c1cccc(Cl)c1)c1c[nH]c2ncc(-c3cnn(C4CCNCC4)c3)cc12

>  <Name>  (947) 
nan

>  <Pocket>  (947) 
nan

>  <ATP_Site>  (947) 
nan

>  <Peripheral>  (947) 
nan

>  <Num_H_Atoms_ProtBoundConf>  (947) 
nan

>  <Num_Resolved_Atoms>  (947) 
nan

>  <Num_Not_Resolved_Atoms>  (947) 
nan

$$$$
CHEMBL3596906
     RDKit          3D

  0  0  0  0  0  0  0  0  0  0999 V3000
M  V30 BEGIN CTAB
M  V30 COUNTS 53 57 0 0 0
M  V30 BEGIN ATOM
M  V30 1 C 2.587306 1.606398 -2.657038 0
M  V30 2 O 2.890515 1.776184 -1.305491 0
M  V30 3 C 3.572868 0.872187 -0.518789 0
M  V30 4 C 4.063437 -0.344881 -0.947357 0
M  V30 5 C 4.736680 -1.196784 -0.100106 0
M  V30 6 C 4.951429 -0.861549 1.234217 0
M  V30 7 C 4.459553 0.359705 1.665122 0
M  V30 8 C 3.774556 1.228906 0.807737 0
M  V30 9 C 3.301002 2.481145 1.362130 0
M  V30 10 O 4.105456 3.121244 2.087372 0
M  V30 11 C 1.988697 3.103900 1.182909 0
M  V30 12 C 1.644632 4.406973 0.905388 0
M  V30 13 N 0.303201 4.478315 0.836096 0
M  V30 14 C -0.221479 3.260094 1.061069 0
M  V30 15 N -1.513799 2.879292 1.085027 0
M  V30 16 C -1.851217 1.599013 1.330014 0
M  V30 17 C -0.854701 0.671188 1.558435 0
M  V30 18 C -1.014522 -0.755150 1.838612 0
M  V30 19 C -0.270919 -1.641363 2.586791 0
M  V30 20 N -0.887401 -2.809334 2.483006 0
M  V30 21 N -1.967784 -2.744846 1.727771 0
M  V30 22 C -2.914127 -3.784368 1.363454 0
M  V30 23 C -4.323793 -3.264335 1.300170 0
M  V30 24 C -5.233572 -4.396155 0.887695 0
M  V30 25 N -4.896795 -4.830151 -0.454522 0
M  V30 26 C -3.526301 -5.269446 -0.558047 0
M  V30 27 C -2.529983 -4.321325 0.022978 0
M  V30 28 C -2.078137 -1.455418 1.302426 0
M  V30 29 C 0.475218 1.064633 1.533497 0
M  V30 30 C 0.815239 2.378708 1.281773 0
M  V30 31 H 3.341614 2.044489 -3.340639 0
M  V30 32 H 2.446848 0.516639 -2.847504 0
M  V30 33 H 1.599894 2.083390 -2.870341 0
M  V30 34 H 3.903785 -0.618960 -1.983150 0
M  V30 35 H 5.122727 -2.163796 -0.452643 0
M  V30 36 H 5.476956 -1.508203 1.927224 0
M  V30 37 H 4.606249 0.656060 2.695992 0
M  V30 38 H 2.404021 5.183094 0.779875 0
M  V30 39 H -0.146314 5.394881 0.632796 0
M  V30 40 H -2.842826 1.169915 1.376782 0
M  V30 41 H 0.625838 -1.339901 3.116744 0
M  V30 42 H -2.829592 -4.591245 2.116996 0
M  V30 43 H -4.654146 -2.859484 2.278875 0
M  V30 44 H -4.354341 -2.517495 0.483477 0
M  V30 45 H -6.299149 -4.057305 0.845389 0
M  V30 46 H -5.120524 -5.278486 1.567656 0
M  V30 47 H -5.096797 -4.053036 -1.140626 0
M  V30 48 H -3.307839 -5.327051 -1.662292 0
M  V30 49 H -3.437535 -6.310216 -0.181671 0
M  V30 50 H -2.325805 -3.485471 -0.680865 0
M  V30 51 H -1.568027 -4.879446 0.143423 0
M  V30 52 H -2.876096 -1.087527 0.657401 0
M  V30 53 H 1.331866 0.402392 1.702365 0
M  V30 END ATOM
M  V30 BEGIN BOND
M  V30 1 1 1 2
M  V30 2 1 2 3
M  V30 3 2 3 4
M  V30 4 1 4 5
M  V30 5 2 5 6
M  V30 6 1 6 7
M  V30 7 2 7 8
M  V30 8 1 8 9
M  V30 9 2 9 10
M  V30 10 1 9 11
M  V30 11 2 11 12
M  V30 12 1 12 13
M  V30 13 1 13 14
M  V30 14 2 14 15
M  V30 15 1 15 16
M  V30 16 2 16 17
M  V30 17 1 17 18
M  V30 18 1 18 19
M  V30 19 2 19 20
M  V30 20 1 20 21
M  V30 21 1 21 22
M  V30 22 1 22 23
M  V30 23 1 23 24
M  V30 24 1 24 25
M  V30 25 1 25 26
M  V30 26 1 26 27
M  V30 27 1 21 28
M  V30 28 1 17 29
M  V30 29 2 29 30
M  V30 30 1 8 3
M  V30 31 1 30 11
M  V30 32 1 30 14
M  V30 33 2 28 18
M  V30 34 1 27 22
M  V30 35 1 1 31
M  V30 36 1 1 32
M  V30 37 1 1 33
M  V30 38 1 4 34
M  V30 39 1 5 35
M  V30 40 1 6 36
M  V30 41 1 7 37
M  V30 42 1 12 38
M  V30 43 1 13 39
M  V30 44 1 16 40
M  V30 45 1 19 41
M  V30 46 1 22 42
M  V30 47 1 23 43
M  V30 48 1 23 44
M  V30 49 1 24 45
M  V30 50 1 24 46
M  V30 51 1 25 47
M  V30 52 1 26 48
M  V30 53 1 26 49
M  V30 54 1 27 50
M  V30 55 1 27 51
M  V30 56 1 28 52
M  V30 57 1 29 53
M  V30 END BOND
M  V30 END CTAB
M  END
>  <Dataset>  (948) 
ChEMBL_Kinases

>  <Ligand_Instance>  (948) 
nan

>  <PDB_ID>  (948) 
nan

>  <Standardized_SMILES>  (948) 
COc1ccccc1C(=O)c1c[nH]c2ncc(-c3cnn(C4CCNCC4)c3)cc12

>  <Name>  (948) 
nan

>  <Pocket>  (948) 
nan

>  <ATP_Site>  (948) 
nan

>  <Peripheral>  (948) 
nan

>  <Num_H_Atoms_ProtBoundConf>  (948) 
nan

>  <Num_Resolved_Atoms>  (948) 
nan

>  <Num_Not_Resolved_Atoms>  (948) 
nan

$$$$
CHEMBL3596905
     RDKit          3D

  0  0  0  0  0  0  0  0  0  0999 V3000
M  V30 BEGIN CTAB
M  V30 COUNTS 50 54 0 0 0
M  V30 BEGIN ATOM
M  V30 1 N 4.053051 -2.531342 -0.143055 0
M  V30 2 C 3.371562 -1.795945 -0.752527 0
M  V30 3 C 2.516913 -0.882369 -1.484214 0
M  V30 4 C 1.601479 -1.487680 -2.315221 0
M  V30 5 C 0.773891 -0.633918 -3.024737 0
M  V30 6 C 0.845200 0.748106 -2.920281 0
M  V30 7 C 1.783285 1.301128 -2.070777 0
M  V30 8 C 2.636884 0.500339 -1.336520 0
M  V30 9 C 3.668500 0.931903 -0.407344 0
M  V30 10 O 4.786909 0.353951 -0.499908 0
M  V30 11 C 3.488512 1.966082 0.597382 0
M  V30 12 C 4.263428 3.052243 1.006430 0
M  V30 13 N 3.593449 3.684893 1.996609 0
M  V30 14 C 2.427080 3.077810 2.259742 0
M  V30 15 N 1.454247 3.371288 3.163153 0
M  V30 16 C 0.350182 2.591426 3.236793 0
M  V30 17 C 0.194835 1.492788 2.401513 0
M  V30 18 C -0.946903 0.592034 2.397275 0
M  V30 19 C -2.304665 0.791659 2.671864 0
M  V30 20 N -2.953774 -0.349589 2.530583 0
M  V30 21 N -2.098402 -1.297057 2.176556 0
M  V30 22 C -2.571092 -2.633809 1.961688 0
M  V30 23 C -1.535763 -3.653425 1.720324 0
M  V30 24 C -1.498541 -4.250930 0.355981 0
M  V30 25 N -2.770047 -4.548819 -0.224544 0
M  V30 26 C -3.893172 -4.040348 0.525017 0
M  V30 27 C -3.557631 -2.591121 0.813328 0
M  V30 28 C -0.886536 -0.753647 2.090514 0
M  V30 29 C 1.219825 1.238064 1.496287 0
M  V30 30 C 2.360249 2.008442 1.390202 0
M  V30 31 H 1.519562 -2.545607 -2.419445 0
M  V30 32 H 0.036191 -1.089137 -3.693539 0
M  V30 33 H 0.197953 1.416350 -3.475156 0
M  V30 34 H 1.921849 2.364328 -1.916299 0
M  V30 35 H 5.217358 3.254071 0.539409 0
M  V30 36 H 3.997037 4.532098 2.450447 0
M  V30 37 H -0.460648 2.785374 3.946317 0
M  V30 38 H -2.661226 1.787669 2.951908 0
M  V30 39 H -3.196210 -2.911122 2.861087 0
M  V30 40 H -0.535614 -3.230266 1.945064 0
M  V30 41 H -1.643222 -4.492075 2.470000 0
M  V30 42 H -0.940122 -3.595930 -0.349498 0
M  V30 43 H -0.916168 -5.195339 0.403561 0
M  V30 44 H -2.866793 -4.171093 -1.194093 0
M  V30 45 H -4.803627 -4.083301 -0.075829 0
M  V30 46 H -3.991076 -4.628329 1.457895 0
M  V30 47 H -2.991274 -2.156081 -0.041289 0
M  V30 48 H -4.487494 -2.045582 1.044497 0
M  V30 49 H 0.004227 -1.273999 1.824228 0
M  V30 50 H 1.127865 0.384372 0.827888 0
M  V30 END ATOM
M  V30 BEGIN BOND
M  V30 1 3 1 2
M  V30 2 1 2 3
M  V30 3 2 3 4
M  V30 4 1 4 5
M  V30 5 2 5 6
M  V30 6 1 6 7
M  V30 7 2 7 8
M  V30 8 1 8 9
M  V30 9 2 9 10
M  V30 10 1 9 11
M  V30 11 2 11 12
M  V30 12 1 12 13
M  V30 13 1 13 14
M  V30 14 2 14 15
M  V30 15 1 15 16
M  V30 16 2 16 17
M  V30 17 1 17 18
M  V30 18 1 18 19
M  V30 19 2 19 20
M  V30 20 1 20 21
M  V30 21 1 21 22
M  V30 22 1 22 23
M  V30 23 1 23 24
M  V30 24 1 24 25
M  V30 25 1 25 26
M  V30 26 1 26 27
M  V30 27 1 21 28
M  V30 28 1 17 29
M  V30 29 2 29 30
M  V30 30 1 8 3
M  V30 31 1 30 11
M  V30 32 1 30 14
M  V30 33 2 28 18
M  V30 34 1 27 22
M  V30 35 1 4 31
M  V30 36 1 5 32
M  V30 37 1 6 33
M  V30 38 1 7 34
M  V30 39 1 12 35
M  V30 40 1 13 36
M  V30 41 1 16 37
M  V30 42 1 19 38
M  V30 43 1 22 39
M  V30 44 1 23 40
M  V30 45 1 23 41
M  V30 46 1 24 42
M  V30 47 1 24 43
M  V30 48 1 25 44
M  V30 49 1 26 45
M  V30 50 1 26 46
M  V30 51 1 27 47
M  V30 52 1 27 48
M  V30 53 1 28 49
M  V30 54 1 29 50
M  V30 END BOND
M  V30 END CTAB
M  END
>  <Dataset>  (949) 
ChEMBL_Kinases

>  <Ligand_Instance>  (949) 
nan

>  <PDB_ID>  (949) 
nan

>  <Standardized_SMILES>  (949) 
N#Cc1ccccc1C(=O)c1c[nH]c2ncc(-c3cnn(C4CCNCC4)c3)cc12

>  <Name>  (949) 
nan

>  <Pocket>  (949) 
nan

>  <ATP_Site>  (949) 
nan

>  <Peripheral>  (949) 
nan

>  <Num_H_Atoms_ProtBoundConf>  (949) 
nan

>  <Num_Resolved_Atoms>  (949) 
nan

>  <Num_Not_Resolved_Atoms>  (949) 
nan

$$$$
CHEMBL3596904
     RDKit          3D

  0  0  0  0  0  0  0  0  0  0999 V3000
M  V30 BEGIN CTAB
M  V30 COUNTS 49 53 0 0 0
M  V30 BEGIN ATOM
M  V30 1 O 1.900619 4.215602 -1.451424 0
M  V30 2 C 2.038470 2.950888 -1.414974 0
M  V30 3 C 1.178792 2.058525 -2.205926 0
M  V30 4 C -0.189749 2.121264 -2.364524 0
M  V30 5 C -0.823891 1.185923 -3.155609 0
M  V30 6 C -0.120186 0.177319 -3.800552 0
M  V30 7 C 1.247422 0.078308 -3.669230 0
M  V30 8 C 1.862331 1.034046 -2.865832 0
M  V30 9 F 3.215182 0.895789 -2.765516 0
M  V30 10 C 3.064705 2.299247 -0.581885 0
M  V30 11 C 4.398165 2.713201 -0.490896 0
M  V30 12 N 5.027118 1.887481 0.351164 0
M  V30 13 C 4.183142 0.945904 0.825515 0
M  V30 14 N 4.328301 -0.091520 1.682053 0
M  V30 15 C 3.265844 -0.883555 1.971057 0
M  V30 16 C 2.003331 -0.667575 1.409643 0
M  V30 17 C 0.877754 -1.534161 1.736517 0
M  V30 18 C 0.742352 -2.868209 2.056393 0
M  V30 19 N -0.562211 -3.118940 2.268880 0
M  V30 20 N -1.291865 -2.033033 2.108479 0
M  V30 21 C -2.726882 -1.854030 2.240968 0
M  V30 22 C -3.149999 -1.644792 3.667490 0
M  V30 23 C -3.151301 -2.911451 4.482249 0
M  V30 24 N -3.880978 -3.982620 3.866981 0
M  V30 25 C -3.596103 -4.182567 2.486728 0
M  V30 26 C -3.537519 -2.954027 1.644891 0
M  V30 27 C -0.420370 -1.035816 1.777481 0
M  V30 28 C 1.885586 0.390168 0.545428 0
M  V30 29 C 2.967618 1.201441 0.247325 0
M  V30 30 H -0.660138 2.932848 -1.831355 0
M  V30 31 H -1.889886 1.258241 -3.261434 0
M  V30 32 H -0.623926 -0.554537 -4.420684 0
M  V30 33 H 1.794398 -0.692549 -4.160670 0
M  V30 34 H 4.774957 3.572203 -1.045991 0
M  V30 35 H 6.036047 1.977719 0.594620 0
M  V30 36 H 3.440672 -1.697321 2.661356 0
M  V30 37 H 1.615504 -3.506151 2.097956 0
M  V30 38 H -3.020533 -0.909481 1.698461 0
M  V30 39 H -4.103415 -1.093060 3.731871 0
M  V30 40 H -2.380375 -0.977332 4.144090 0
M  V30 41 H -3.653628 -2.678210 5.450295 0
M  V30 42 H -2.139516 -3.248687 4.712531 0
M  V30 43 H -4.852089 -4.078810 4.170358 0
M  V30 44 H -4.448130 -4.802241 2.078363 0
M  V30 45 H -2.669096 -4.769791 2.322127 0
M  V30 46 H -4.530233 -2.569366 1.337210 0
M  V30 47 H -3.027080 -3.237953 0.679520 0
M  V30 48 H -0.745458 -0.005974 1.581551 0
M  V30 49 H 0.939148 0.580191 0.102550 0
M  V30 END ATOM
M  V30 BEGIN BOND
M  V30 1 2 1 2
M  V30 2 1 2 3
M  V30 3 2 3 4
M  V30 4 1 4 5
M  V30 5 2 5 6
M  V30 6 1 6 7
M  V30 7 2 7 8
M  V30 8 1 8 9
M  V30 9 1 2 10
M  V30 10 2 10 11
M  V30 11 1 11 12
M  V30 12 1 12 13
M  V30 13 2 13 14
M  V30 14 1 14 15
M  V30 15 2 15 16
M  V30 16 1 16 17
M  V30 17 1 17 18
M  V30 18 2 18 19
M  V30 19 1 19 20
M  V30 20 1 20 21
M  V30 21 1 21 22
M  V30 22 1 22 23
M  V30 23 1 23 24
M  V30 24 1 24 25
M  V30 25 1 25 26
M  V30 26 1 20 27
M  V30 27 1 16 28
M  V30 28 2 28 29
M  V30 29 1 8 3
M  V30 30 1 29 10
M  V30 31 1 29 13
M  V30 32 2 27 17
M  V30 33 1 26 21
M  V30 34 1 4 30
M  V30 35 1 5 31
M  V30 36 1 6 32
M  V30 37 1 7 33
M  V30 38 1 11 34
M  V30 39 1 12 35
M  V30 40 1 15 36
M  V30 41 1 18 37
M  V30 42 1 21 38
M  V30 43 1 22 39
M  V30 44 1 22 40
M  V30 45 1 23 41
M  V30 46 1 23 42
M  V30 47 1 24 43
M  V30 48 1 25 44
M  V30 49 1 25 45
M  V30 50 1 26 46
M  V30 51 1 26 47
M  V30 52 1 27 48
M  V30 53 1 28 49
M  V30 END BOND
M  V30 END CTAB
M  END
>  <Dataset>  (950) 
ChEMBL_Kinases

>  <Ligand_Instance>  (950) 
nan

>  <PDB_ID>  (950) 
nan

>  <Standardized_SMILES>  (950) 
O=C(c1ccccc1F)c1c[nH]c2ncc(-c3cnn(C4CCNCC4)c3)cc12

>  <Name>  (950) 
nan

>  <Pocket>  (950) 
nan

>  <ATP_Site>  (950) 
nan

>  <Peripheral>  (950) 
nan

>  <Num_H_Atoms_ProtBoundConf>  (950) 
nan

>  <Num_Resolved_Atoms>  (950) 
nan

>  <Num_Not_Resolved_Atoms>  (950) 
nan

$$$$
CHEMBL3596903
     RDKit          3D

  0  0  0  0  0  0  0  0  0  0999 V3000
M  V30 BEGIN CTAB
M  V30 COUNTS 52 56 0 0 0
M  V30 BEGIN ATOM
M  V30 1 C 3.500877 0.846484 3.172636 0
M  V30 2 C 4.109435 0.126154 2.026305 0
M  V30 3 C 4.637819 -1.146269 2.105912 0
M  V30 4 C 5.191460 -1.757642 0.992330 0
M  V30 5 C 5.202603 -1.062283 -0.204690 0
M  V30 6 C 4.663974 0.227286 -0.272593 0
M  V30 7 C 4.110727 0.833192 0.849176 0
M  V30 8 C 3.614959 2.150045 0.569214 0
M  V30 9 O 4.290955 2.976025 -0.110803 0
M  V30 10 C 2.362241 2.762866 0.961473 0
M  V30 11 C 2.111932 4.032635 1.477203 0
M  V30 12 N 0.793437 4.172430 1.697352 0
M  V30 13 C 0.141035 3.040579 1.348572 0
M  V30 14 N -1.163020 2.705479 1.386587 0
M  V30 15 C -1.582091 1.493371 0.978558 0
M  V30 16 C -0.633238 0.603642 0.519254 0
M  V30 17 C -0.907562 -0.766849 0.034144 0
M  V30 18 C -0.338777 -1.608751 -0.899529 0
M  V30 19 N -1.062357 -2.764539 -0.886253 0
M  V30 20 N -2.033164 -2.631927 0.019574 0
M  V30 21 C -2.967024 -3.717830 0.251756 0
M  V30 22 C -4.157140 -3.277397 1.050953 0
M  V30 23 C -5.142251 -2.495933 0.229068 0
M  V30 24 N -5.579840 -3.355219 -0.866612 0
M  V30 25 C -4.446582 -3.499153 -1.758871 0
M  V30 26 C -3.372273 -4.303867 -1.063962 0
M  V30 27 C -1.992785 -1.418877 0.624305 0
M  V30 28 C 0.729650 0.914695 0.464568 0
M  V30 29 C 1.113246 2.172288 0.894639 0
M  V30 30 H 3.979570 0.410655 4.095011 0
M  V30 31 H 2.421453 0.575460 3.295226 0
M  V30 32 H 3.712815 1.913501 3.202614 0
M  V30 33 H 4.599938 -1.640504 3.072524 0
M  V30 34 H 5.602270 -2.756578 1.069969 0
M  V30 35 H 5.636188 -1.553511 -1.057224 0
M  V30 36 H 4.735698 0.664778 -1.276740 0
M  V30 37 H 2.888969 4.773271 1.661369 0
M  V30 38 H 0.289434 5.002769 2.077524 0
M  V30 39 H -2.599409 1.122022 0.965791 0
M  V30 40 H 0.511136 -1.148984 -1.387457 0
M  V30 41 H -2.437901 -4.516608 0.830246 0
M  V30 42 H -4.663981 -4.204475 1.431636 0
M  V30 43 H -3.881578 -2.688400 1.927431 0
M  V30 44 H -4.608472 -1.611861 -0.161468 0
M  V30 45 H -5.982359 -2.216140 0.902813 0
M  V30 46 H -5.884768 -4.278074 -0.467181 0
M  V30 47 H -4.695499 -4.020474 -2.701835 0
M  V30 48 H -4.041535 -2.473773 -1.927485 0
M  V30 49 H -2.480002 -4.291780 -1.730096 0
M  V30 50 H -3.724735 -5.348937 -0.938949 0
M  V30 51 H -2.698974 -1.116570 1.390886 0
M  V30 52 H 1.489840 0.257035 0.118817 0
M  V30 END ATOM
M  V30 BEGIN BOND
M  V30 1 1 1 2
M  V30 2 2 2 3
M  V30 3 1 3 4
M  V30 4 2 4 5
M  V30 5 1 5 6
M  V30 6 2 6 7
M  V30 7 1 7 8
M  V30 8 2 8 9
M  V30 9 1 8 10
M  V30 10 2 10 11
M  V30 11 1 11 12
M  V30 12 1 12 13
M  V30 13 2 13 14
M  V30 14 1 14 15
M  V30 15 2 15 16
M  V30 16 1 16 17
M  V30 17 1 17 18
M  V30 18 2 18 19
M  V30 19 1 19 20
M  V30 20 1 20 21
M  V30 21 1 21 22
M  V30 22 1 22 23
M  V30 23 1 23 24
M  V30 24 1 24 25
M  V30 25 1 25 26
M  V30 26 1 20 27
M  V30 27 1 16 28
M  V30 28 2 28 29
M  V30 29 1 7 2
M  V30 30 1 29 10
M  V30 31 1 29 13
M  V30 32 2 27 17
M  V30 33 1 26 21
M  V30 34 1 1 30
M  V30 35 1 1 31
M  V30 36 1 1 32
M  V30 37 1 3 33
M  V30 38 1 4 34
M  V30 39 1 5 35
M  V30 40 1 6 36
M  V30 41 1 11 37
M  V30 42 1 12 38
M  V30 43 1 15 39
M  V30 44 1 18 40
M  V30 45 1 21 41
M  V30 46 1 22 42
M  V30 47 1 22 43
M  V30 48 1 23 44
M  V30 49 1 23 45
M  V30 50 1 24 46
M  V30 51 1 25 47
M  V30 52 1 25 48
M  V30 53 1 26 49
M  V30 54 1 26 50
M  V30 55 1 27 51
M  V30 56 1 28 52
M  V30 END BOND
M  V30 END CTAB
M  END
>  <Dataset>  (951) 
ChEMBL_Kinases

>  <Ligand_Instance>  (951) 
nan

>  <PDB_ID>  (951) 
nan

>  <Standardized_SMILES>  (951) 
Cc1ccccc1C(=O)c1c[nH]c2ncc(-c3cnn(C4CCNCC4)c3)cc12

>  <Name>  (951) 
nan

>  <Pocket>  (951) 
nan

>  <ATP_Site>  (951) 
nan

>  <Peripheral>  (951) 
nan

>  <Num_H_Atoms_ProtBoundConf>  (951) 
nan

>  <Num_Resolved_Atoms>  (951) 
nan

>  <Num_Not_Resolved_Atoms>  (951) 
nan

$$$$
CHEMBL3596902
     RDKit          3D

  0  0  0  0  0  0  0  0  0  0999 V3000
M  V30 BEGIN CTAB
M  V30 COUNTS 49 53 0 0 0
M  V30 BEGIN ATOM
M  V30 1 O 5.631539 -1.518095 0.905092 0
M  V30 2 C 4.672897 -1.155230 0.162418 0
M  V30 3 C 4.039775 -2.270929 -0.556005 0
M  V30 4 C 4.080512 -3.560098 -0.071119 0
M  V30 5 C 3.453043 -4.519850 -0.834796 0
M  V30 6 C 2.806797 -4.267579 -2.020867 0
M  V30 7 C 2.764046 -2.980793 -2.508484 0
M  V30 8 C 3.386781 -1.995740 -1.761111 0
M  V30 9 C 4.216899 0.222433 0.011471 0
M  V30 10 C 4.930090 1.396032 -0.185367 0
M  V30 11 N 4.087626 2.443503 -0.274756 0
M  V30 12 C 2.832414 1.987740 -0.141138 0
M  V30 13 N 1.698028 2.734002 -0.173251 0
M  V30 14 C 0.517496 2.095420 -0.019200 0
M  V30 15 C 0.486882 0.719726 0.164968 0
M  V30 16 C -0.821383 0.070823 0.325923 0
M  V30 17 C -1.254897 -1.203603 -0.028926 0
M  V30 18 N -2.545588 -1.303445 0.337106 0
M  V30 19 N -2.979526 -0.189579 0.902068 0
M  V30 20 C -4.336603 -0.034666 1.387376 0
M  V30 21 C -4.390850 1.023201 2.468859 0
M  V30 22 C -3.757259 0.517203 3.755152 0
M  V30 23 N -4.460379 -0.670225 4.190286 0
M  V30 24 C -4.198604 -1.718781 3.233332 0
M  V30 25 C -4.814864 -1.374799 1.895306 0
M  V30 26 C -1.935925 0.655650 0.900478 0
M  V30 27 C 1.665822 0.004338 0.190340 0
M  V30 28 C 2.894235 0.612608 0.037221 0
M  V30 29 H 4.585200 -3.769300 0.859536 0
M  V30 30 H 3.454367 -5.537982 -0.504412 0
M  V30 31 H 2.314512 -5.035849 -2.614889 0
M  V30 32 H 2.264074 -2.751916 -3.437181 0
M  V30 33 H 3.327134 -1.001682 -2.183128 0
M  V30 34 H 6.026645 1.345644 -0.242863 0
M  V30 35 H 4.422359 3.438821 -0.425921 0
M  V30 36 H -0.438234 2.632286 -0.034419 0
M  V30 37 H -0.600053 -1.918302 -0.509474 0
M  V30 38 H -4.977469 0.304136 0.551595 0
M  V30 39 H -5.423432 1.389359 2.632370 0
M  V30 40 H -3.792219 1.888838 2.122809 0
M  V30 41 H -2.724207 0.218557 3.511974 0
M  V30 42 H -3.817367 1.338011 4.497555 0
M  V30 43 H -4.104791 -0.964972 5.127743 0
M  V30 44 H -4.682623 -2.651318 3.587440 0
M  V30 45 H -3.105346 -1.888544 3.174450 0
M  V30 46 H -4.574884 -2.137130 1.154541 0
M  V30 47 H -5.909316 -1.306095 2.060542 0
M  V30 48 H -1.954597 1.647171 1.288461 0
M  V30 49 H 1.634143 -1.066452 0.336493 0
M  V30 END ATOM
M  V30 BEGIN BOND
M  V30 1 2 1 2
M  V30 2 1 2 3
M  V30 3 2 3 4
M  V30 4 1 4 5
M  V30 5 2 5 6
M  V30 6 1 6 7
M  V30 7 2 7 8
M  V30 8 1 2 9
M  V30 9 2 9 10
M  V30 10 1 10 11
M  V30 11 1 11 12
M  V30 12 2 12 13
M  V30 13 1 13 14
M  V30 14 2 14 15
M  V30 15 1 15 16
M  V30 16 1 16 17
M  V30 17 2 17 18
M  V30 18 1 18 19
M  V30 19 1 19 20
M  V30 20 1 20 21
M  V30 21 1 21 22
M  V30 22 1 22 23
M  V30 23 1 23 24
M  V30 24 1 24 25
M  V30 25 1 19 26
M  V30 26 1 15 27
M  V30 27 2 27 28
M  V30 28 1 8 3
M  V30 29 1 28 9
M  V30 30 1 28 12
M  V30 31 2 26 16
M  V30 32 1 25 20
M  V30 33 1 4 29
M  V30 34 1 5 30
M  V30 35 1 6 31
M  V30 36 1 7 32
M  V30 37 1 8 33
M  V30 38 1 10 34
M  V30 39 1 11 35
M  V30 40 1 14 36
M  V30 41 1 17 37
M  V30 42 1 20 38
M  V30 43 1 21 39
M  V30 44 1 21 40
M  V30 45 1 22 41
M  V30 46 1 22 42
M  V30 47 1 23 43
M  V30 48 1 24 44
M  V30 49 1 24 45
M  V30 50 1 25 46
M  V30 51 1 25 47
M  V30 52 1 26 48
M  V30 53 1 27 49
M  V30 END BOND
M  V30 END CTAB
M  END
>  <Dataset>  (952) 
ChEMBL_Kinases

>  <Ligand_Instance>  (952) 
nan

>  <PDB_ID>  (952) 
nan

>  <Standardized_SMILES>  (952) 
O=C(c1ccccc1)c1c[nH]c2ncc(-c3cnn(C4CCNCC4)c3)cc12

>  <Name>  (952) 
nan

>  <Pocket>  (952) 
nan

>  <ATP_Site>  (952) 
nan

>  <Peripheral>  (952) 
nan

>  <Num_H_Atoms_ProtBoundConf>  (952) 
nan

>  <Num_Resolved_Atoms>  (952) 
nan

>  <Num_Not_Resolved_Atoms>  (952) 
nan

$$$$
CHEMBL3596901
     RDKit          3D

  0  0  0  0  0  0  0  0  0  0999 V3000
M  V30 BEGIN CTAB
M  V30 COUNTS 50 54 0 0 0
M  V30 BEGIN ATOM
M  V30 1 O 3.584001 -1.426111 0.669210 0
M  V30 2 S 3.909061 -0.200672 -0.133872 0
M  V30 3 O 5.299402 -0.296845 -0.644651 0
M  V30 4 C 2.751772 -0.067610 -1.440053 0
M  V30 5 C 1.790059 -1.054192 -1.641847 0
M  V30 6 C 0.835339 -1.043725 -2.638213 0
M  V30 7 C 0.868268 0.045501 -3.480149 0
M  V30 8 C 1.796910 1.060344 -3.335384 0
M  V30 9 C 2.732130 0.990108 -2.311073 0
M  V30 10 Cl 3.939133 2.235478 -2.064208 0
M  V30 11 C 3.754846 1.170805 0.963777 0
M  V30 12 C 4.648991 2.148981 1.348380 0
M  V30 13 N 4.032078 2.962353 2.207431 0
M  V30 14 C 2.759181 2.590163 2.430732 0
M  V30 15 N 1.726070 3.033187 3.174408 0
M  V30 16 C 0.520241 2.418756 3.187890 0
M  V30 17 C 0.283927 1.290184 2.429066 0
M  V30 18 C -0.982003 0.566060 2.383113 0
M  V30 19 C -2.282426 1.007168 2.508729 0
M  V30 20 N -3.105723 -0.058565 2.392200 0
M  V30 21 N -2.368658 -1.158064 2.197085 0
M  V30 22 C -3.067445 -2.439114 2.042786 0
M  V30 23 C -2.076207 -3.560328 2.040818 0
M  V30 24 C -1.685387 -4.110766 0.721128 0
M  V30 25 N -2.550557 -3.868133 -0.374548 0
M  V30 26 C -3.911547 -3.594838 -0.028315 0
M  V30 27 C -3.902550 -2.345134 0.820037 0
M  V30 28 C -1.067181 -0.797788 2.188261 0
M  V30 29 C 1.352702 0.838782 1.664897 0
M  V30 30 C 2.585311 1.463255 1.648362 0
M  V30 31 H 1.762631 -1.924514 -0.970009 0
M  V30 32 H 0.123319 -1.855484 -2.722575 0
M  V30 33 H 0.133344 0.097151 -4.282104 0
M  V30 34 H 1.845846 1.911236 -3.969024 0
M  V30 35 H 5.656856 2.160571 0.957900 0
M  V30 36 H 4.495191 3.801701 2.658104 0
M  V30 37 H -0.298440 2.796650 3.797459 0
M  V30 38 H -2.547060 2.041586 2.671701 0
M  V30 39 H -3.727314 -2.519108 2.930409 0
M  V30 40 H -1.201100 -3.273315 2.659153 0
M  V30 41 H -2.543938 -4.412452 2.617513 0
M  V30 42 H -1.527395 -5.228638 0.777477 0
M  V30 43 H -0.681478 -3.719320 0.452299 0
M  V30 44 H -2.186159 -3.328615 -1.166780 0
M  V30 45 H -4.443798 -4.427151 0.424560 0
M  V30 46 H -4.442853 -3.318803 -0.976366 0
M  V30 47 H -4.960981 -2.161797 1.091946 0
M  V30 48 H -3.605715 -1.486790 0.184635 0
M  V30 49 H -0.301804 -1.548619 2.042511 0
M  V30 50 H 1.182631 -0.044964 1.064460 0
M  V30 END ATOM
M  V30 BEGIN BOND
M  V30 1 2 1 2
M  V30 2 2 2 3
M  V30 3 1 2 4
M  V30 4 2 4 5
M  V30 5 1 5 6
M  V30 6 2 6 7
M  V30 7 1 7 8
M  V30 8 2 8 9
M  V30 9 1 9 10
M  V30 10 1 2 11
M  V30 11 2 11 12
M  V30 12 1 12 13
M  V30 13 1 13 14
M  V30 14 2 14 15
M  V30 15 1 15 16
M  V30 16 2 16 17
M  V30 17 1 17 18
M  V30 18 1 18 19
M  V30 19 2 19 20
M  V30 20 1 20 21
M  V30 21 1 21 22
M  V30 22 1 22 23
M  V30 23 1 23 24
M  V30 24 1 24 25
M  V30 25 1 25 26
M  V30 26 1 26 27
M  V30 27 1 21 28
M  V30 28 1 17 29
M  V30 29 2 29 30
M  V30 30 1 9 4
M  V30 31 1 30 11
M  V30 32 1 30 14
M  V30 33 2 28 18
M  V30 34 1 27 22
M  V30 35 1 5 31
M  V30 36 1 6 32
M  V30 37 1 7 33
M  V30 38 1 8 34
M  V30 39 1 12 35
M  V30 40 1 13 36
M  V30 41 1 16 37
M  V30 42 1 19 38
M  V30 43 1 22 39
M  V30 44 1 23 40
M  V30 45 1 23 41
M  V30 46 1 24 42
M  V30 47 1 24 43
M  V30 48 1 25 44
M  V30 49 1 26 45
M  V30 50 1 26 46
M  V30 51 1 27 47
M  V30 52 1 27 48
M  V30 53 1 28 49
M  V30 54 1 29 50
M  V30 END BOND
M  V30 END CTAB
M  END
>  <Dataset>  (953) 
ChEMBL_Kinases

>  <Ligand_Instance>  (953) 
nan

>  <PDB_ID>  (953) 
nan

>  <Standardized_SMILES>  (953) 
O=S(=O)(c1ccccc1Cl)c1c[nH]c2ncc(-c3cnn(C4CCNCC4)c3)cc12

>  <Name>  (953) 
nan

>  <Pocket>  (953) 
nan

>  <ATP_Site>  (953) 
nan

>  <Peripheral>  (953) 
nan

>  <Num_H_Atoms_ProtBoundConf>  (953) 
nan

>  <Num_Resolved_Atoms>  (953) 
nan

>  <Num_Not_Resolved_Atoms>  (953) 
nan

$$$$
CHEMBL3594174
     RDKit          3D

  0  0  0  0  0  0  0  0  0  0999 V3000
M  V30 BEGIN CTAB
M  V30 COUNTS 54 58 0 0 0
M  V30 BEGIN ATOM
M  V30 1 C 1.926309 0.052196 4.758154 0
M  V30 2 N 2.649480 -0.999082 4.073932 0
M  V30 3 C 1.940800 -2.189093 3.626623 0
M  V30 4 C 2.798535 -2.791770 2.551368 0
M  V30 5 C 4.058057 -1.965340 2.472026 0 CFG=1
M  V30 6 C 4.052113 -1.071533 1.285618 0
M  V30 7 C 3.216739 0.043245 1.180282 0
M  V30 8 C 3.422120 0.660379 -0.039023 0
M  V30 9 N 2.759080 1.832085 -0.494986 0
M  V30 10 C 1.464286 2.112102 -1.011332 0
M  V30 11 C 1.195289 3.396474 -1.430448 0
M  V30 12 C -0.082172 3.613778 -1.892359 0
M  V30 13 N -1.016731 2.648165 -1.937421 0
M  V30 14 C -0.729358 1.388219 -1.517977 0
M  V30 15 N -1.768333 0.417200 -1.570448 0
M  V30 16 C -3.067189 0.836275 -2.040172 0
M  V30 17 C -1.372253 -0.916977 -1.134064 0
M  V30 18 C -2.546613 -1.821186 -1.132120 0
M  V30 19 C -2.933089 -2.800446 -2.018629 0
M  V30 20 C -4.094505 -3.502338 -1.773144 0
M  V30 21 C -4.905923 -3.281998 -0.678743 0
M  V30 22 N -6.051770 -3.864696 -0.293095 0
M  V30 23 C -6.415949 -3.251797 0.866150 0
M  V30 24 N -5.485126 -2.319560 1.149522 0
M  V30 25 C -4.516406 -2.305458 0.201573 0
M  V30 26 C -3.345333 -1.567386 -0.006224 0
M  V30 27 Cl -3.032395 -0.373445 1.245904 0
M  V30 28 N 0.506203 1.184929 -1.073642 0
M  V30 29 N 4.368315 -0.073192 -0.656689 0
M  V30 30 N 4.728961 -1.084124 0.129447 0
M  V30 31 C 4.029332 -1.150696 3.696873 0
M  V30 32 O 4.916112 -0.597214 4.432577 0
M  V30 33 H 0.961791 0.201118 4.257777 0
M  V30 34 H 1.717718 -0.244449 5.821798 0
M  V30 35 H 2.551706 0.966578 4.791786 0
M  V30 36 H 1.809835 -2.832095 4.520818 0
M  V30 37 H 0.925289 -1.947991 3.230204 0
M  V30 38 H 2.292494 -2.949682 1.595542 0
M  V30 39 H 3.111351 -3.807681 2.916770 0
M  V30 40 H 4.962516 -2.585099 2.425430 0
M  V30 41 H 2.524970 0.373337 1.921682 0
M  V30 42 H 3.461941 2.580198 -0.380602 0
M  V30 43 H 1.962549 4.155141 -1.383817 0
M  V30 44 H -0.344905 4.592187 -2.227441 0
M  V30 45 H -3.672896 1.207612 -1.189725 0
M  V30 46 H -3.577428 0.013965 -2.588412 0
M  V30 47 H -2.926912 1.711950 -2.722640 0
M  V30 48 H -0.908771 -0.849226 -0.116256 0
M  V30 49 H -0.594717 -1.332674 -1.796912 0
M  V30 50 H -2.251808 -2.899571 -2.827222 0
M  V30 51 H -4.354075 -4.257151 -2.496672 0
M  V30 52 H -6.596487 -4.634308 -0.748238 0
M  V30 53 H -7.278843 -3.414732 1.509362 0
M  V30 54 H 5.447052 -1.828595 -0.074065 0
M  V30 END ATOM
M  V30 BEGIN BOND
M  V30 1 1 1 2
M  V30 2 1 2 3
M  V30 3 1 3 4
M  V30 4 1 4 5
M  V30 5 1 5 6
M  V30 6 2 6 7
M  V30 7 1 7 8
M  V30 8 1 8 9
M  V30 9 1 9 10
M  V30 10 2 10 11
M  V30 11 1 11 12
M  V30 12 2 12 13
M  V30 13 1 13 14
M  V30 14 1 14 15
M  V30 15 1 15 16
M  V30 16 1 15 17
M  V30 17 1 17 18
M  V30 18 2 18 19
M  V30 19 1 19 20
M  V30 20 2 20 21
M  V30 21 1 21 22
M  V30 22 1 22 23
M  V30 23 2 23 24
M  V30 24 1 24 25
M  V30 25 2 25 26
M  V30 26 1 26 27
M  V30 27 2 14 28
M  V30 28 2 8 29
M  V30 29 1 29 30
M  V30 30 1 5 31
M  V30 31 2 31 32
M  V30 32 1 31 2
M  V30 33 1 30 6
M  V30 34 1 28 10
M  V30 35 1 26 18
M  V30 36 1 25 21
M  V30 37 1 1 33
M  V30 38 1 1 34
M  V30 39 1 1 35
M  V30 40 1 3 36
M  V30 41 1 3 37
M  V30 42 1 4 38
M  V30 43 1 4 39
M  V30 44 1 5 40 CFG=1
M  V30 45 1 7 41
M  V30 46 1 9 42
M  V30 47 1 11 43
M  V30 48 1 12 44
M  V30 49 1 16 45
M  V30 50 1 16 46
M  V30 51 1 16 47
M  V30 52 1 17 48
M  V30 53 1 17 49
M  V30 54 1 19 50
M  V30 55 1 20 51
M  V30 56 1 22 52
M  V30 57 1 23 53
M  V30 58 1 30 54
M  V30 END BOND
M  V30 END CTAB
M  END
>  <Dataset>  (954) 
ChEMBL_Kinases

>  <Ligand_Instance>  (954) 
nan

>  <PDB_ID>  (954) 
nan

>  <Standardized_SMILES>  (954) 
CN1CC[C@@H](c2cc(Nc3ccnc(N(C)Cc4ccc5[nH]cnc5c4Cl)n3)n[nH]2)C1=O

>  <Name>  (954) 
nan

>  <Pocket>  (954) 
nan

>  <ATP_Site>  (954) 
nan

>  <Peripheral>  (954) 
nan

>  <Num_H_Atoms_ProtBoundConf>  (954) 
nan

>  <Num_Resolved_Atoms>  (954) 
nan

>  <Num_Not_Resolved_Atoms>  (954) 
nan

$$$$
CHEMBL3593296
     RDKit          3D

  0  0  0  0  0  0  0  0  0  0999 V3000
M  V30 BEGIN CTAB
M  V30 COUNTS 67 71 0 0 0
M  V30 BEGIN ATOM
M  V30 1 C 10.696420 -3.052772 8.573656 0
M  V30 2 C 9.905071 -2.494536 7.454034 0
M  V30 3 C 10.233730 -2.597623 6.118896 0
M  V30 4 C 9.213413 -1.931751 5.437360 0
M  V30 5 N 9.103323 -1.763057 4.029813 0
M  V30 6 C 8.013708 -1.064428 3.459412 0
M  V30 7 O 7.091902 -0.563163 4.166462 0
M  V30 8 N 7.854768 -0.861665 2.047010 0
M  V30 9 C 6.686645 -0.133876 1.694832 0
M  V30 10 C 5.586408 -0.964705 1.464713 0
M  V30 11 C 4.377671 -0.383627 1.115727 0
M  V30 12 C 4.313760 0.987749 1.011519 0
M  V30 13 C 3.008923 1.642608 0.640359 0
M  V30 14 C 2.614423 2.888062 0.469370 0
M  V30 15 N 1.364422 3.069790 0.139375 0
M  V30 16 C 0.518970 2.304055 -0.033657 0
M  V30 17 N -0.847545 1.884410 -0.342193 0
M  V30 18 C -1.290416 1.583174 -1.628299 0
M  V30 19 O -0.441128 1.684195 -2.574131 0
M  V30 20 C -2.662036 1.162432 -1.932560 0
M  V30 21 C -3.655369 1.137592 -0.946054 0
M  V30 22 C -4.912383 0.712510 -1.342856 0
M  V30 23 C -5.226303 0.321234 -2.634459 0
M  V30 24 O -6.547838 -0.055958 -2.758674 0
M  V30 25 C -7.181252 -0.508573 -3.924296 0
M  V30 26 C -8.619411 -0.790778 -3.548824 0
M  V30 27 N -8.631812 -1.775140 -2.510310 0
M  V30 28 C -8.211167 -3.066815 -2.932122 0
M  V30 29 C -7.988732 -3.886218 -1.647922 0
M  V30 30 O -9.188646 -3.965926 -0.981883 0
M  V30 31 C -9.516315 -2.677087 -0.513814 0
M  V30 32 C -9.857806 -1.877073 -1.774403 0
M  V30 33 C -4.229699 0.351462 -3.603746 0
M  V30 34 C -2.970755 0.773268 -3.220203 0
M  V30 35 S 1.519931 0.769065 0.308096 0
M  V30 36 C 5.372167 1.839611 1.229349 0
M  V30 37 C 6.562827 1.233657 1.575111 0
M  V30 38 N 8.350425 -1.476662 6.367257 0
M  V30 39 O 8.786351 -1.824862 7.546448 0
M  V30 40 H 11.783683 -3.012153 8.435904 0
M  V30 41 H 10.471893 -2.553910 9.547799 0
M  V30 42 H 10.435749 -4.126310 8.670260 0
M  V30 43 H 11.070156 -3.070641 5.657303 0
M  V30 44 H 9.821289 -2.146276 3.385610 0
M  V30 45 H 8.602251 -1.263796 1.436656 0
M  V30 46 H 5.603806 -2.041328 1.537282 0
M  V30 47 H 3.521183 -1.005326 0.934592 0
M  V30 48 H 3.310908 3.736568 0.599427 0
M  V30 49 H -1.478250 1.826419 0.485272 0
M  V30 50 H -3.421798 1.441412 0.063514 0
M  V30 51 H -5.626923 0.723620 -0.506331 0
M  V30 52 H -7.183546 0.336206 -4.684967 0
M  V30 53 H -6.751254 -1.395828 -4.390195 0
M  V30 54 H -9.132432 0.136788 -3.208344 0
M  V30 55 H -9.169283 -1.247753 -4.423377 0
M  V30 56 H -9.075196 -3.535696 -3.486834 0
M  V30 57 H -7.300501 -3.100987 -3.539499 0
M  V30 58 H -7.278085 -3.309196 -1.027134 0
M  V30 59 H -7.561379 -4.875589 -1.887648 0
M  V30 60 H -10.348387 -2.676666 0.190273 0
M  V30 61 H -8.629129 -2.190001 -0.067775 0
M  V30 62 H -10.590933 -2.446529 -2.414739 0
M  V30 63 H -10.209045 -0.858795 -1.543279 0
M  V30 64 H -4.562153 0.033751 -4.570520 0
M  V30 65 H -2.234347 0.779780 -3.994037 0
M  V30 66 H 5.300119 2.910381 1.142429 0
M  V30 67 H 7.445718 1.803060 1.764739 0
M  V30 END ATOM
M  V30 BEGIN BOND
M  V30 1 1 1 2
M  V30 2 2 2 3
M  V30 3 1 3 4
M  V30 4 1 4 5
M  V30 5 1 5 6
M  V30 6 2 6 7
M  V30 7 1 6 8
M  V30 8 1 8 9
M  V30 9 2 9 10
M  V30 10 1 10 11
M  V30 11 2 11 12
M  V30 12 1 12 13
M  V30 13 2 13 14
M  V30 14 1 14 15
M  V30 15 2 15 16
M  V30 16 1 16 17
M  V30 17 1 17 18
M  V30 18 2 18 19
M  V30 19 1 18 20
M  V30 20 2 20 21
M  V30 21 1 21 22
M  V30 22 2 22 23
M  V30 23 1 23 24
M  V30 24 1 24 25
M  V30 25 1 25 26
M  V30 26 1 26 27
M  V30 27 1 27 28
M  V30 28 1 28 29
M  V30 29 1 29 30
M  V30 30 1 30 31
M  V30 31 1 31 32
M  V30 32 1 23 33
M  V30 33 2 33 34
M  V30 34 1 16 35
M  V30 35 1 12 36
M  V30 36 2 36 37
M  V30 37 2 4 38
M  V30 38 1 38 39
M  V30 39 1 39 2
M  V30 40 1 37 9
M  V30 41 1 35 13
M  V30 42 1 34 20
M  V30 43 1 32 27
M  V30 44 1 1 40
M  V30 45 1 1 41
M  V30 46 1 1 42
M  V30 47 1 3 43
M  V30 48 1 5 44
M  V30 49 1 8 45
M  V30 50 1 10 46
M  V30 51 1 11 47
M  V30 52 1 14 48
M  V30 53 1 17 49
M  V30 54 1 21 50
M  V30 55 1 22 51
M  V30 56 1 25 52
M  V30 57 1 25 53
M  V30 58 1 26 54
M  V30 59 1 26 55
M  V30 60 1 28 56
M  V30 61 1 28 57
M  V30 62 1 29 58
M  V30 63 1 29 59
M  V30 64 1 31 60
M  V30 65 1 31 61
M  V30 66 1 32 62
M  V30 67 1 32 63
M  V30 68 1 33 64
M  V30 69 1 34 65
M  V30 70 1 36 66
M  V30 71 1 37 67
M  V30 END BOND
M  V30 END CTAB
M  END
>  <Dataset>  (955) 
ChEMBL_Kinases

>  <Ligand_Instance>  (955) 
nan

>  <PDB_ID>  (955) 
nan

>  <Standardized_SMILES>  (955) 
Cc1cc(NC(=O)Nc2ccc(-c3cnc(NC(=O)c4ccc(OCCN5CCOCC5)cc4)s3)cc2)no1

>  <Name>  (955) 
nan

>  <Pocket>  (955) 
nan

>  <ATP_Site>  (955) 
nan

>  <Peripheral>  (955) 
nan

>  <Num_H_Atoms_ProtBoundConf>  (955) 
nan

>  <Num_Resolved_Atoms>  (955) 
nan

>  <Num_Not_Resolved_Atoms>  (955) 
nan

$$$$
CHEMBL3593295
     RDKit          3D

  0  0  0  0  0  0  0  0  0  0999 V3000
M  V30 BEGIN CTAB
M  V30 COUNTS 65 69 0 0 0
M  V30 BEGIN ATOM
M  V30 1 C 0.362526 -0.072746 5.401586 0
M  V30 2 C 0.821253 0.830949 4.277587 0
M  V30 3 N 0.882232 2.203409 4.660479 0
M  V30 4 C -0.345544 2.859911 4.923648 0
M  V30 5 C -0.973739 3.605086 3.795846 0
M  V30 6 N 0.040871 3.979069 2.838430 0
M  V30 7 C -0.314215 4.112281 1.475406 0
M  V30 8 C 0.659013 3.849103 0.540959 0
M  V30 9 C 0.486778 3.938557 -0.820799 0
M  V30 10 N 1.589152 3.639982 -1.690410 0
M  V30 11 C 1.732403 2.144344 -1.575642 0
M  V30 12 N 2.338463 1.424671 -0.972532 0
M  V30 13 C 2.380916 0.113228 -0.933361 0
M  V30 14 C 1.553779 -0.526280 -1.762415 0
M  V30 15 C 1.197845 -1.922650 -2.120965 0
M  V30 16 C 0.251884 -2.118699 -3.122462 0
M  V30 17 C -0.036418 -3.440447 -3.393564 0
M  V30 18 C 0.626986 -4.452687 -2.663258 0
M  V30 19 N 0.336373 -5.846717 -2.945808 0
M  V30 20 C -0.828606 -5.933435 -2.080839 0
M  V30 21 O -0.995576 -4.785355 -1.538844 0
M  V30 22 C -1.691540 -7.121899 -1.847801 0
M  V30 23 C -1.493842 -8.389423 -2.296543 0
M  V30 24 C -2.402411 -9.376444 -2.002306 0
M  V30 25 C -3.502941 -9.052089 -1.250344 0
M  V30 26 C -3.745772 -7.756311 -0.765248 0
M  V30 27 C -2.819863 -6.787778 -1.074734 0
M  V30 28 C 1.550267 -4.152134 -1.686912 0
M  V30 29 C 1.871960 -2.848512 -1.378439 0
M  V30 30 S 0.701749 0.895437 -2.612667 0
M  V30 31 N -0.743871 4.317951 -1.237259 0
M  V30 32 C -1.730613 4.587408 -0.332215 0
M  V30 33 C -2.995264 5.004435 -0.928179 0
M  V30 34 N -1.548431 4.494608 1.013800 0
M  V30 35 C 1.359544 4.212397 3.344434 0
M  V30 36 C 1.902231 2.935328 4.003491 0
M  V30 37 H 0.638843 -1.113556 5.123393 0
M  V30 38 H -0.737529 0.026128 5.447381 0
M  V30 39 H 0.875769 0.145982 6.349919 0
M  V30 40 H 0.104860 0.731075 3.443684 0
M  V30 41 H 1.839109 0.530292 3.931831 0
M  V30 42 H -0.165407 3.590226 5.762121 0
M  V30 43 H -1.061645 2.063218 5.287507 0
M  V30 44 H -1.430294 4.549766 4.187848 0
M  V30 45 H -1.816259 3.036282 3.323408 0
M  V30 46 H 1.636008 3.550501 0.870770 0
M  V30 47 H 2.189977 4.259055 -2.287206 0
M  V30 48 H 2.966928 -0.594685 -0.347876 0
M  V30 49 H -0.225843 -1.326737 -3.649509 0
M  V30 50 H -0.753592 -3.719690 -4.146695 0
M  V30 51 H 0.571855 -6.726889 -3.438792 0
M  V30 52 H -0.589752 -8.538218 -2.880851 0
M  V30 53 H -2.229698 -10.383845 -2.366781 0
M  V30 54 H -4.271003 -9.778282 -0.976165 0
M  V30 55 H -4.619203 -7.493380 -0.168416 0
M  V30 56 H -3.022678 -5.778628 -0.686618 0
M  V30 57 H 2.009136 -5.013918 -1.173287 0
M  V30 58 H 2.593821 -2.609839 -0.612050 0
M  V30 59 H -3.869168 4.691646 -0.289081 0
M  V30 60 H -3.196051 4.595192 -1.939630 0
M  V30 61 H -3.102661 6.125377 -0.970288 0
M  V30 62 H 1.339960 4.963189 4.177408 0
M  V30 63 H 2.114807 4.494828 2.590922 0
M  V30 64 H 2.287313 2.318767 3.152674 0
M  V30 65 H 2.763754 3.233788 4.647052 0
M  V30 END ATOM
M  V30 BEGIN BOND
M  V30 1 1 1 2
M  V30 2 1 2 3
M  V30 3 1 3 4
M  V30 4 1 4 5
M  V30 5 1 5 6
M  V30 6 1 6 7
M  V30 7 2 7 8
M  V30 8 1 8 9
M  V30 9 1 9 10
M  V30 10 1 10 11
M  V30 11 2 11 12
M  V30 12 1 12 13
M  V30 13 2 13 14
M  V30 14 1 14 15
M  V30 15 2 15 16
M  V30 16 1 16 17
M  V30 17 2 17 18
M  V30 18 1 18 19
M  V30 19 1 19 20
M  V30 20 2 20 21
M  V30 21 1 20 22
M  V30 22 2 22 23
M  V30 23 1 23 24
M  V30 24 2 24 25
M  V30 25 1 25 26
M  V30 26 2 26 27
M  V30 27 1 18 28
M  V30 28 2 28 29
M  V30 29 1 14 30
M  V30 30 2 9 31
M  V30 31 1 31 32
M  V30 32 1 32 33
M  V30 33 2 32 34
M  V30 34 1 6 35
M  V30 35 1 35 36
M  V30 36 1 36 3
M  V30 37 1 34 7
M  V30 38 1 30 11
M  V30 39 1 29 15
M  V30 40 1 27 22
M  V30 41 1 1 37
M  V30 42 1 1 38
M  V30 43 1 1 39
M  V30 44 1 2 40
M  V30 45 1 2 41
M  V30 46 1 4 42
M  V30 47 1 4 43
M  V30 48 1 5 44
M  V30 49 1 5 45
M  V30 50 1 8 46
M  V30 51 1 10 47
M  V30 52 1 13 48
M  V30 53 1 16 49
M  V30 54 1 17 50
M  V30 55 1 19 51
M  V30 56 1 23 52
M  V30 57 1 24 53
M  V30 58 1 25 54
M  V30 59 1 26 55
M  V30 60 1 27 56
M  V30 61 1 28 57
M  V30 62 1 29 58
M  V30 63 1 33 59
M  V30 64 1 33 60
M  V30 65 1 33 61
M  V30 66 1 35 62
M  V30 67 1 35 63
M  V30 68 1 36 64
M  V30 69 1 36 65
M  V30 END BOND
M  V30 END CTAB
M  END
>  <Dataset>  (956) 
ChEMBL_Kinases

>  <Ligand_Instance>  (956) 
nan

>  <PDB_ID>  (956) 
nan

>  <Standardized_SMILES>  (956) 
CCN1CCN(c2cc(Nc3ncc(-c4ccc(NC(=O)c5ccccc5)cc4)s3)nc(C)n2)CC1

>  <Name>  (956) 
nan

>  <Pocket>  (956) 
nan

>  <ATP_Site>  (956) 
nan

>  <Peripheral>  (956) 
nan

>  <Num_H_Atoms_ProtBoundConf>  (956) 
nan

>  <Num_Resolved_Atoms>  (956) 
nan

>  <Num_Not_Resolved_Atoms>  (956) 
nan

$$$$
CHEMBL3593294
     RDKit          3D

  0  0  0  0  0  0  0  0  0  0999 V3000
M  V30 BEGIN CTAB
M  V30 COUNTS 69 73 0 0 0
M  V30 BEGIN ATOM
M  V30 1 C 4.434783 -1.669273 4.824912 0
M  V30 2 C 3.411533 -0.769462 5.438984 0
M  V30 3 N 3.135798 0.429996 4.728683 0
M  V30 4 C 4.163787 1.404171 4.673503 0
M  V30 5 C 4.702773 1.672425 3.294581 0
M  V30 6 N 3.695678 1.746050 2.281657 0
M  V30 7 C 3.554245 2.883094 1.449594 0
M  V30 8 C 2.594921 3.045563 0.482975 0
M  V30 9 C 2.469080 4.147130 -0.324846 0
M  V30 10 N 1.498486 4.359608 -1.324368 0
M  V30 11 C 0.405998 3.648600 -1.770964 0
M  V30 12 N -0.460750 3.758819 -2.678862 0
M  V30 13 C -1.403202 2.871161 -2.817048 0
M  V30 14 C -1.564649 1.779977 -2.049400 0
M  V30 15 C -2.510309 0.676172 -1.998985 0
M  V30 16 C -2.341618 -0.257318 -0.999247 0
M  V30 17 C -3.268548 -1.281610 -1.001862 0
M  V30 18 C -4.276201 -1.333715 -1.952290 0
M  V30 19 N -5.188330 -2.422670 -1.868133 0
M  V30 20 C -5.122722 -3.709905 -2.433415 0
M  V30 21 O -4.195059 -4.148094 -3.150765 0
M  V30 22 O -6.209544 -4.459465 -2.110747 0
M  V30 23 C -6.475229 -5.792766 -2.496036 0
M  V30 24 C -5.460711 -6.762179 -2.029700 0
M  V30 25 C -4.317626 -7.244171 -2.619092 0
M  V30 26 C -3.522309 -8.147569 -1.969020 0
M  V30 27 C -3.808921 -8.624104 -0.706333 0
M  V30 28 C -4.967413 -8.141573 -0.097975 0
M  V30 29 C -5.775549 -7.219173 -0.767283 0
M  V30 30 C -4.397069 -0.356166 -2.944829 0
M  V30 31 C -3.476499 0.702060 -2.978227 0
M  V30 32 S -0.158692 2.037222 -0.944356 0
M  V30 33 N 3.386728 5.103414 -0.100898 0
M  V30 34 C 4.340450 5.011382 0.816757 0
M  V30 35 C 5.295227 6.122302 0.977881 0
M  V30 36 N 4.445298 3.902995 1.609893 0
M  V30 37 C 2.930647 0.545569 2.270506 0
M  V30 38 C 2.286727 0.337992 3.601235 0
M  V30 39 H 5.466709 -1.376610 5.084401 0
M  V30 40 H 4.265617 -1.808976 3.757005 0
M  V30 41 H 4.282986 -2.686618 5.283401 0
M  V30 42 H 3.706475 -0.568375 6.493934 0
M  V30 43 H 2.460542 -1.353908 5.511366 0
M  V30 44 H 3.821239 2.331190 5.172117 0
M  V30 45 H 5.033706 1.038880 5.279371 0
M  V30 46 H 5.220551 2.653619 3.337610 0
M  V30 47 H 5.515543 0.950318 3.017420 0
M  V30 48 H 1.919981 2.239996 0.380782 0
M  V30 49 H 1.580172 5.245216 -1.885022 0
M  V30 50 H -2.101137 3.078127 -3.648093 0
M  V30 51 H -1.529366 -0.145010 -0.295733 0
M  V30 52 H -3.154740 -2.035327 -0.217026 0
M  V30 53 H -5.903164 -1.974505 -1.269283 0
M  V30 54 H -7.504764 -6.093252 -2.319423 0
M  V30 55 H -6.362662 -5.786659 -3.623003 0
M  V30 56 H -4.155635 -6.835693 -3.607133 0
M  V30 57 H -2.634159 -8.498703 -2.472557 0
M  V30 58 H -3.161987 -9.339648 -0.210261 0
M  V30 59 H -5.152606 -8.540776 0.888822 0
M  V30 60 H -6.620943 -6.959050 -0.152473 0
M  V30 61 H -5.194137 -0.432783 -3.665557 0
M  V30 62 H -3.538688 1.464004 -3.720097 0
M  V30 63 H 5.655408 6.524795 0.001012 0
M  V30 64 H 6.201510 5.807683 1.538815 0
M  V30 65 H 4.772178 6.978935 1.470826 0
M  V30 66 H 3.519752 -0.355816 1.997993 0
M  V30 67 H 2.097703 0.566461 1.514512 0
M  V30 68 H 1.383372 0.971051 3.769333 0
M  V30 69 H 1.868170 -0.710829 3.574784 0
M  V30 END ATOM
M  V30 BEGIN BOND
M  V30 1 1 1 2
M  V30 2 1 2 3
M  V30 3 1 3 4
M  V30 4 1 4 5
M  V30 5 1 5 6
M  V30 6 1 6 7
M  V30 7 2 7 8
M  V30 8 1 8 9
M  V30 9 1 9 10
M  V30 10 1 10 11
M  V30 11 2 11 12
M  V30 12 1 12 13
M  V30 13 2 13 14
M  V30 14 1 14 15
M  V30 15 2 15 16
M  V30 16 1 16 17
M  V30 17 2 17 18
M  V30 18 1 18 19
M  V30 19 1 19 20
M  V30 20 2 20 21
M  V30 21 1 20 22
M  V30 22 1 22 23
M  V30 23 1 23 24
M  V30 24 2 24 25
M  V30 25 1 25 26
M  V30 26 2 26 27
M  V30 27 1 27 28
M  V30 28 2 28 29
M  V30 29 1 18 30
M  V30 30 2 30 31
M  V30 31 1 14 32
M  V30 32 2 9 33
M  V30 33 1 33 34
M  V30 34 1 34 35
M  V30 35 2 34 36
M  V30 36 1 6 37
M  V30 37 1 37 38
M  V30 38 1 38 3
M  V30 39 1 36 7
M  V30 40 1 32 11
M  V30 41 1 31 15
M  V30 42 1 29 24
M  V30 43 1 1 39
M  V30 44 1 1 40
M  V30 45 1 1 41
M  V30 46 1 2 42
M  V30 47 1 2 43
M  V30 48 1 4 44
M  V30 49 1 4 45
M  V30 50 1 5 46
M  V30 51 1 5 47
M  V30 52 1 8 48
M  V30 53 1 10 49
M  V30 54 1 13 50
M  V30 55 1 16 51
M  V30 56 1 17 52
M  V30 57 1 19 53
M  V30 58 1 23 54
M  V30 59 1 23 55
M  V30 60 1 25 56
M  V30 61 1 26 57
M  V30 62 1 27 58
M  V30 63 1 28 59
M  V30 64 1 29 60
M  V30 65 1 30 61
M  V30 66 1 31 62
M  V30 67 1 35 63
M  V30 68 1 35 64
M  V30 69 1 35 65
M  V30 70 1 37 66
M  V30 71 1 37 67
M  V30 72 1 38 68
M  V30 73 1 38 69
M  V30 END BOND
M  V30 END CTAB
M  END
>  <Dataset>  (957) 
ChEMBL_Kinases

>  <Ligand_Instance>  (957) 
nan

>  <PDB_ID>  (957) 
nan

>  <Standardized_SMILES>  (957) 
CCN1CCN(c2cc(Nc3ncc(-c4ccc(NC(=O)OCc5ccccc5)cc4)s3)nc(C)n2)CC1

>  <Name>  (957) 
nan

>  <Pocket>  (957) 
nan

>  <ATP_Site>  (957) 
nan

>  <Peripheral>  (957) 
nan

>  <Num_H_Atoms_ProtBoundConf>  (957) 
nan

>  <Num_Resolved_Atoms>  (957) 
nan

>  <Num_Not_Resolved_Atoms>  (957) 
nan

$$$$
CHEMBL3593293
     RDKit          3D

  0  0  0  0  0  0  0  0  0  0999 V3000
M  V30 BEGIN CTAB
M  V30 COUNTS 66 70 0 0 0
M  V30 BEGIN ATOM
M  V30 1 C 1.664624 -4.306603 0.894180 0
M  V30 2 C 3.134339 -4.021363 1.070491 0
M  V30 3 N 3.752537 -3.353410 -0.023545 0
M  V30 4 C 3.880359 -4.097951 -1.231985 0
M  V30 5 C 4.158853 -3.211949 -2.427178 0
M  V30 6 N 4.297622 -1.843897 -1.902273 0
M  V30 7 C 3.510214 -0.745724 -2.359013 0
M  V30 8 C 3.528986 0.507084 -1.781275 0
M  V30 9 C 2.715497 1.467927 -2.345559 0
M  V30 10 N 2.743167 2.752252 -1.733451 0
M  V30 11 C 1.788485 3.146204 -0.680584 0
M  V30 12 N 1.485765 3.975751 0.013210 0
M  V30 13 C 0.538962 4.095739 0.907867 0
M  V30 14 C -0.276485 3.029912 1.075937 0
M  V30 15 C -1.462883 2.569699 1.869874 0
M  V30 16 C -1.948913 1.306817 1.628571 0
M  V30 17 C -3.046735 0.995441 2.413404 0
M  V30 18 C -3.623851 1.835081 3.350877 0
M  V30 19 N -4.747506 1.510852 4.152287 0
M  V30 20 S -6.256602 0.815710 3.757582 0
M  V30 21 O -6.915258 1.743762 2.750899 0
M  V30 22 O -7.103018 0.812356 5.019479 0
M  V30 23 C -6.150051 -0.788665 3.091745 0
M  V30 24 C -6.151540 -1.822945 4.019486 0
M  V30 25 C -6.078900 -3.152955 3.613026 0
M  V30 26 C -6.003680 -3.464641 2.267569 0
M  V30 27 C -6.001888 -2.448514 1.352487 0
M  V30 28 C -6.073602 -1.117202 1.740066 0
M  V30 29 C -3.005578 3.086563 3.472615 0
M  V30 30 C -1.908076 3.498740 2.740934 0
M  V30 31 S 0.482067 1.851417 -0.197590 0
M  V30 32 N 1.945424 1.178353 -3.411081 0
M  V30 33 C 1.937235 -0.061552 -3.970024 0
M  V30 34 C 1.081470 -0.369685 -5.148246 0
M  V30 35 N 2.730140 -1.008703 -3.424551 0
M  V30 36 C 5.334688 -1.786699 -0.882236 0
M  V30 37 C 4.898937 -2.575414 0.321293 0
M  V30 38 H 1.361924 -5.013894 1.705513 0
M  V30 39 H 1.415266 -4.781354 -0.061655 0
M  V30 40 H 1.074890 -3.381636 1.073667 0
M  V30 41 H 3.624021 -4.980669 1.342408 0
M  V30 42 H 3.251517 -3.355392 1.962919 0
M  V30 43 H 3.049766 -4.804948 -1.405208 0
M  V30 44 H 4.782188 -4.764853 -1.091327 0
M  V30 45 H 5.064339 -3.526702 -2.943708 0
M  V30 46 H 3.322114 -3.287667 -3.155338 0
M  V30 47 H 4.161196 0.683138 -0.932640 0
M  V30 48 H 3.368862 3.532260 -1.908848 0
M  V30 49 H 0.286115 4.923526 1.556543 0
M  V30 50 H -1.544130 0.607796 0.912985 0
M  V30 51 H -3.485606 0.013972 2.283094 0
M  V30 52 H -4.518329 1.779323 5.155053 0
M  V30 53 H -6.207285 -1.699689 5.109683 0
M  V30 54 H -6.079477 -3.978429 4.341584 0
M  V30 55 H -5.947821 -4.495987 1.954013 0
M  V30 56 H -5.944142 -2.629356 0.271366 0
M  V30 57 H -6.077877 -0.250932 1.084767 0
M  V30 58 H -3.465868 3.755773 4.219421 0
M  V30 59 H -1.462192 4.472507 2.866188 0
M  V30 60 H 0.610707 0.585371 -5.481792 0
M  V30 61 H 0.235850 -1.042231 -4.899854 0
M  V30 62 H 1.638402 -0.808353 -5.996406 0
M  V30 63 H 5.548467 -0.749664 -0.551654 0
M  V30 64 H 6.240401 -2.271516 -1.315400 0
M  V30 65 H 5.734159 -3.227413 0.642429 0
M  V30 66 H 4.664521 -1.879070 1.174141 0
M  V30 END ATOM
M  V30 BEGIN BOND
M  V30 1 1 1 2
M  V30 2 1 2 3
M  V30 3 1 3 4
M  V30 4 1 4 5
M  V30 5 1 5 6
M  V30 6 1 6 7
M  V30 7 2 7 8
M  V30 8 1 8 9
M  V30 9 1 9 10
M  V30 10 1 10 11
M  V30 11 2 11 12
M  V30 12 1 12 13
M  V30 13 2 13 14
M  V30 14 1 14 15
M  V30 15 2 15 16
M  V30 16 1 16 17
M  V30 17 2 17 18
M  V30 18 1 18 19
M  V30 19 1 19 20
M  V30 20 2 20 21
M  V30 21 2 20 22
M  V30 22 1 20 23
M  V30 23 2 23 24
M  V30 24 1 24 25
M  V30 25 2 25 26
M  V30 26 1 26 27
M  V30 27 2 27 28
M  V30 28 1 18 29
M  V30 29 2 29 30
M  V30 30 1 14 31
M  V30 31 2 9 32
M  V30 32 1 32 33
M  V30 33 1 33 34
M  V30 34 2 33 35
M  V30 35 1 6 36
M  V30 36 1 36 37
M  V30 37 1 37 3
M  V30 38 1 35 7
M  V30 39 1 31 11
M  V30 40 1 30 15
M  V30 41 1 28 23
M  V30 42 1 1 38
M  V30 43 1 1 39
M  V30 44 1 1 40
M  V30 45 1 2 41
M  V30 46 1 2 42
M  V30 47 1 4 43
M  V30 48 1 4 44
M  V30 49 1 5 45
M  V30 50 1 5 46
M  V30 51 1 8 47
M  V30 52 1 10 48
M  V30 53 1 13 49
M  V30 54 1 16 50
M  V30 55 1 17 51
M  V30 56 1 19 52
M  V30 57 1 24 53
M  V30 58 1 25 54
M  V30 59 1 26 55
M  V30 60 1 27 56
M  V30 61 1 28 57
M  V30 62 1 29 58
M  V30 63 1 30 59
M  V30 64 1 34 60
M  V30 65 1 34 61
M  V30 66 1 34 62
M  V30 67 1 36 63
M  V30 68 1 36 64
M  V30 69 1 37 65
M  V30 70 1 37 66
M  V30 END BOND
M  V30 END CTAB
M  END
>  <Dataset>  (958) 
ChEMBL_Kinases

>  <Ligand_Instance>  (958) 
nan

>  <PDB_ID>  (958) 
nan

>  <Standardized_SMILES>  (958) 
CCN1CCN(c2cc(Nc3ncc(-c4ccc(NS(=O)(=O)c5ccccc5)cc4)s3)nc(C)n2)CC1

>  <Name>  (958) 
nan

>  <Pocket>  (958) 
nan

>  <ATP_Site>  (958) 
nan

>  <Peripheral>  (958) 
nan

>  <Num_H_Atoms_ProtBoundConf>  (958) 
nan

>  <Num_Resolved_Atoms>  (958) 
nan

>  <Num_Not_Resolved_Atoms>  (958) 
nan

$$$$
CHEMBL3593292
     RDKit          3D

  0  0  0  0  0  0  0  0  0  0999 V3000
M  V30 BEGIN CTAB
M  V30 COUNTS 70 75 0 0 0
M  V30 BEGIN ATOM
M  V30 1 C 2.700032 -0.299491 6.479493 0
M  V30 2 C 1.871817 -1.340835 5.803425 0
M  V30 3 N 2.010750 -1.398606 4.397989 0
M  V30 4 C 3.235039 -1.834163 3.856750 0
M  V30 5 C 4.017471 -0.863417 3.049585 0
M  V30 6 N 3.218089 0.077916 2.287217 0
M  V30 7 C 3.877712 1.160067 1.647002 0
M  V30 8 C 3.217413 2.084932 0.837261 0
M  V30 9 C 3.909224 3.113829 0.239438 0
M  V30 10 N 3.264346 4.062850 -0.593720 0
M  V30 11 C 1.791858 3.850940 -0.726013 0
M  V30 12 N 0.755420 4.097961 -0.399883 0
M  V30 13 C -0.415777 3.658971 -0.772690 0
M  V30 14 C -0.430552 2.728407 -1.732093 0
M  V30 15 C -1.529027 1.971116 -2.435065 0
M  V30 16 C -2.802887 2.302217 -2.014572 0
M  V30 17 C -3.826667 1.611537 -2.634959 0
M  V30 18 C -3.518086 0.655122 -3.614722 0
M  V30 19 N -4.628787 -0.048542 -4.222159 0
M  V30 20 C -4.932956 -1.225757 -3.499287 0
M  V30 21 O -4.175546 -1.417597 -2.483832 0
M  V30 22 N -5.941855 -2.239747 -3.706904 0
M  V30 23 C -6.019516 -3.354539 -2.791452 0
M  V30 24 C -5.340838 -4.570864 -2.959385 0
M  V30 25 C -5.717440 -5.306903 -1.829138 0
M  V30 26 C -5.179168 -6.685057 -1.658731 0
M  V30 27 C -4.563429 -7.043051 -0.331907 0
M  V30 28 C -5.913505 -7.577067 -0.695276 0
M  V30 29 O -6.523991 -4.594583 -1.091996 0
M  V30 30 N -6.721670 -3.423619 -1.643585 0
M  V30 31 C -2.216517 0.373976 -3.988177 0
M  V30 32 C -1.180634 1.058339 -3.374713 0
M  V30 33 S 1.356282 2.531407 -2.058528 0
M  V30 34 N 5.237522 3.227290 0.440562 0
M  V30 35 C 5.902008 2.332731 1.229671 0
M  V30 36 C 7.383216 2.440516 1.467808 0
M  V30 37 N 5.194605 1.358197 1.784315 0
M  V30 38 C 1.821868 -0.195380 2.265698 0
M  V30 39 C 1.236444 -0.514255 3.611880 0
M  V30 40 H 2.771030 0.641456 5.908728 0
M  V30 41 H 2.181806 -0.029843 7.445402 0
M  V30 42 H 3.696415 -0.700176 6.800123 0
M  V30 43 H 0.806418 -1.178484 6.056635 0
M  V30 44 H 2.158111 -2.330116 6.257787 0
M  V30 45 H 3.887879 -2.173514 4.714480 0
M  V30 46 H 3.027664 -2.756070 3.241941 0
M  V30 47 H 4.599582 -1.434057 2.264701 0
M  V30 48 H 4.799588 -0.376191 3.660591 0
M  V30 49 H 2.170519 1.994524 0.679256 0
M  V30 50 H 3.765374 4.826909 -1.063512 0
M  V30 51 H -1.341732 4.017067 -0.340829 0
M  V30 52 H -2.987669 3.053332 -1.249528 0
M  V30 53 H -4.834652 1.835344 -2.340163 0
M  V30 54 H -5.283430 0.063306 -5.057224 0
M  V30 55 H -6.515879 -2.007898 -4.554088 0
M  V30 56 H -4.698784 -4.813115 -3.784733 0
M  V30 57 H -4.638524 -7.118254 -2.518125 0
M  V30 58 H -3.704611 -7.721034 -0.299731 0
M  V30 59 H -4.474288 -6.178688 0.371299 0
M  V30 60 H -5.934408 -8.679996 -0.842064 0
M  V30 61 H -6.821232 -7.204172 -0.191679 0
M  V30 62 H -1.996730 -0.368480 -4.749426 0
M  V30 63 H -0.134370 0.886442 -3.619931 0
M  V30 64 H 7.678723 3.478557 1.252021 0
M  V30 65 H 7.861114 1.690103 0.813210 0
M  V30 66 H 7.534749 2.243413 2.544854 0
M  V30 67 H 1.233804 0.563248 1.754044 0
M  V30 68 H 1.706192 -1.146140 1.665629 0
M  V30 69 H 1.136274 0.445602 4.166990 0
M  V30 70 H 0.210571 -0.922250 3.492546 0
M  V30 END ATOM
M  V30 BEGIN BOND
M  V30 1 1 1 2
M  V30 2 1 2 3
M  V30 3 1 3 4
M  V30 4 1 4 5
M  V30 5 1 5 6
M  V30 6 1 6 7
M  V30 7 2 7 8
M  V30 8 1 8 9
M  V30 9 1 9 10
M  V30 10 1 10 11
M  V30 11 2 11 12
M  V30 12 1 12 13
M  V30 13 2 13 14
M  V30 14 1 14 15
M  V30 15 2 15 16
M  V30 16 1 16 17
M  V30 17 2 17 18
M  V30 18 1 18 19
M  V30 19 1 19 20
M  V30 20 2 20 21
M  V30 21 1 20 22
M  V30 22 1 22 23
M  V30 23 1 23 24
M  V30 24 2 24 25
M  V30 25 1 25 26
M  V30 26 1 26 27
M  V30 27 1 27 28
M  V30 28 1 25 29
M  V30 29 1 29 30
M  V30 30 1 18 31
M  V30 31 2 31 32
M  V30 32 1 14 33
M  V30 33 2 9 34
M  V30 34 1 34 35
M  V30 35 1 35 36
M  V30 36 2 35 37
M  V30 37 1 6 38
M  V30 38 1 38 39
M  V30 39 1 39 3
M  V30 40 1 37 7
M  V30 41 1 33 11
M  V30 42 1 32 15
M  V30 43 2 30 23
M  V30 44 1 28 26
M  V30 45 1 1 40
M  V30 46 1 1 41
M  V30 47 1 1 42
M  V30 48 1 2 43
M  V30 49 1 2 44
M  V30 50 1 4 45
M  V30 51 1 4 46
M  V30 52 1 5 47
M  V30 53 1 5 48
M  V30 54 1 8 49
M  V30 55 1 10 50
M  V30 56 1 13 51
M  V30 57 1 16 52
M  V30 58 1 17 53
M  V30 59 1 19 54
M  V30 60 1 22 55
M  V30 61 1 24 56
M  V30 62 1 26 57
M  V30 63 1 27 58
M  V30 64 1 27 59
M  V30 65 1 28 60
M  V30 66 1 28 61
M  V30 67 1 31 62
M  V30 68 1 32 63
M  V30 69 1 36 64
M  V30 70 1 36 65
M  V30 71 1 36 66
M  V30 72 1 38 67
M  V30 73 1 38 68
M  V30 74 1 39 69
M  V30 75 1 39 70
M  V30 END BOND
M  V30 END CTAB
M  END
>  <Dataset>  (959) 
ChEMBL_Kinases

>  <Ligand_Instance>  (959) 
nan

>  <PDB_ID>  (959) 
nan

>  <Standardized_SMILES>  (959) 
CCN1CCN(c2cc(Nc3ncc(-c4ccc(NC(=O)Nc5cc(C6CC6)on5)cc4)s3)nc(C)n2)CC1

>  <Name>  (959) 
nan

>  <Pocket>  (959) 
nan

>  <ATP_Site>  (959) 
nan

>  <Peripheral>  (959) 
nan

>  <Num_H_Atoms_ProtBoundConf>  (959) 
nan

>  <Num_Resolved_Atoms>  (959) 
nan

>  <Num_Not_Resolved_Atoms>  (959) 
nan

$$$$
CHEMBL3593291
     RDKit          3D

  0  0  0  0  0  0  0  0  0  0999 V3000
M  V30 BEGIN CTAB
M  V30 COUNTS 63 67 0 0 0
M  V30 BEGIN ATOM
M  V30 1 C 8.173943 0.848759 3.128881 0
M  V30 2 C 8.758994 1.918547 2.214675 0
M  V30 3 C 7.728100 2.951680 1.913053 0
M  V30 4 C 6.816966 2.982934 0.873549 0
M  V30 5 C 6.071942 4.154147 1.027781 0
M  V30 6 N 5.061451 4.400327 0.059542 0
M  V30 7 C 3.759086 3.891435 0.314219 0
M  V30 8 O 3.551596 3.239155 1.393676 0
M  V30 9 N 2.619018 4.035187 -0.534490 0
M  V30 10 C 1.399696 3.441027 -0.083347 0
M  V30 11 C 1.179082 2.118370 -0.479113 0
M  V30 12 C 0.028302 1.426232 -0.104695 0
M  V30 13 C -0.828880 2.178799 0.672426 0
M  V30 14 C -2.066341 1.446944 1.079855 0
M  V30 15 C -3.084006 1.902655 1.831973 0
M  V30 16 N -4.131535 1.187798 2.139501 0
M  V30 17 C -4.217905 0.014302 1.725555 0
M  V30 18 N -5.189099 -1.070002 1.844944 0
M  V30 19 C -5.184880 -2.373708 1.324876 0
M  V30 20 C -4.245566 -2.994353 0.544138 0
M  V30 21 C -4.365049 -4.290684 0.097551 0
M  V30 22 N -3.363346 -4.887392 -0.709936 0
M  V30 23 C -2.122348 -4.325691 -1.196928 0
M  V30 24 C -2.193669 -4.768631 -2.661718 0
M  V30 25 C -2.599630 -6.209321 -2.518929 0
M  V30 26 N -3.476407 -6.651204 -3.576838 0
M  V30 27 C -3.391233 -6.239941 -1.227640 0
M  V30 28 N -5.469418 -4.965310 0.458086 0
M  V30 29 C -6.396930 -4.363917 1.224439 0
M  V30 30 C -7.586528 -5.175566 1.579341 0
M  V30 31 N -6.254864 -3.112573 1.640313 0
M  V30 32 S -2.597603 -0.153834 0.747751 0
M  V30 33 C -0.692286 3.460617 1.099297 0
M  V30 34 C 0.468498 4.096755 0.697302 0
M  V30 35 N 6.569515 4.762221 2.143409 0
M  V30 36 O 7.527393 4.039017 2.631150 0
M  V30 37 H 8.739668 -0.084171 2.905511 0
M  V30 38 H 7.094338 0.757131 2.898376 0
M  V30 39 H 8.371495 1.121911 4.178410 0
M  V30 40 H 9.066887 1.428739 1.266654 0
M  V30 41 H 9.671210 2.348478 2.673187 0
M  V30 42 H 6.784348 2.189671 0.140204 0
M  V30 43 H 5.161004 4.924845 -0.843176 0
M  V30 44 H 2.841005 4.583264 -1.415768 0
M  V30 45 H 1.924481 1.606834 -1.098702 0
M  V30 46 H -0.177628 0.408487 -0.388916 0
M  V30 47 H -3.127010 2.922765 2.258153 0
M  V30 48 H -5.956006 -0.707370 2.423157 0
M  V30 49 H -3.382488 -2.447074 0.270374 0
M  V30 50 H -2.037163 -3.245132 -1.084605 0
M  V30 51 H -1.238168 -4.859356 -0.755023 0
M  V30 52 H -1.256979 -4.598377 -3.195587 0
M  V30 53 H -3.061334 -4.183587 -3.075420 0
M  V30 54 H -1.712004 -6.846633 -2.462941 0
M  V30 55 H -3.209659 -6.277326 -4.512031 0
M  V30 56 H -4.477003 -6.470009 -3.343871 0
M  V30 57 H -2.932536 -6.917248 -0.480071 0
M  V30 58 H -4.444747 -6.548082 -1.366384 0
M  V30 59 H -7.376003 -5.847455 2.444323 0
M  V30 60 H -8.002196 -5.711491 0.698430 0
M  V30 61 H -8.390568 -4.451309 1.872323 0
M  V30 62 H -1.444652 3.938845 1.709664 0
M  V30 63 H 0.660184 5.116301 0.990372 0
M  V30 END ATOM
M  V30 BEGIN BOND
M  V30 1 1 1 2
M  V30 2 1 2 3
M  V30 3 2 3 4
M  V30 4 1 4 5
M  V30 5 1 5 6
M  V30 6 1 6 7
M  V30 7 2 7 8
M  V30 8 1 7 9
M  V30 9 1 9 10
M  V30 10 2 10 11
M  V30 11 1 11 12
M  V30 12 2 12 13
M  V30 13 1 13 14
M  V30 14 2 14 15
M  V30 15 1 15 16
M  V30 16 2 16 17
M  V30 17 1 17 18
M  V30 18 1 18 19
M  V30 19 2 19 20
M  V30 20 1 20 21
M  V30 21 1 21 22
M  V30 22 1 22 23
M  V30 23 1 23 24
M  V30 24 1 24 25
M  V30 25 1 25 26
M  V30 26 1 25 27
M  V30 27 2 21 28
M  V30 28 1 28 29
M  V30 29 1 29 30
M  V30 30 2 29 31
M  V30 31 1 17 32
M  V30 32 1 13 33
M  V30 33 2 33 34
M  V30 34 2 5 35
M  V30 35 1 35 36
M  V30 36 1 36 3
M  V30 37 1 34 10
M  V30 38 1 32 14
M  V30 39 1 31 19
M  V30 40 1 27 22
M  V30 41 1 1 37
M  V30 42 1 1 38
M  V30 43 1 1 39
M  V30 44 1 2 40
M  V30 45 1 2 41
M  V30 46 1 4 42
M  V30 47 1 6 43
M  V30 48 1 9 44
M  V30 49 1 11 45
M  V30 50 1 12 46
M  V30 51 1 15 47
M  V30 52 1 18 48
M  V30 53 1 20 49
M  V30 54 1 23 50
M  V30 55 1 23 51
M  V30 56 1 24 52
M  V30 57 1 24 53
M  V30 58 1 25 54
M  V30 59 1 26 55
M  V30 60 1 26 56
M  V30 61 1 27 57
M  V30 62 1 27 58
M  V30 63 1 30 59
M  V30 64 1 30 60
M  V30 65 1 30 61
M  V30 66 1 33 62
M  V30 67 1 34 63
M  V30 END BOND
M  V30 END CTAB
M  END
>  <Dataset>  (960) 
ChEMBL_Kinases

>  <Ligand_Instance>  (960) 
nan

>  <PDB_ID>  (960) 
nan

>  <Standardized_SMILES>  (960) 
CCc1cc(NC(=O)Nc2ccc(-c3cnc(Nc4cc(N5CCC(N)C5)nc(C)n4)s3)cc2)no1

>  <Name>  (960) 
nan

>  <Pocket>  (960) 
nan

>  <ATP_Site>  (960) 
nan

>  <Peripheral>  (960) 
nan

>  <Num_H_Atoms_ProtBoundConf>  (960) 
nan

>  <Num_Resolved_Atoms>  (960) 
nan

>  <Num_Not_Resolved_Atoms>  (960) 
nan

$$$$
CHEMBL3590116
     RDKit          3D

  0  0  0  0  0  0  0  0  0  0999 V3000
M  V30 BEGIN CTAB
M  V30 COUNTS 49 51 0 0 0
M  V30 BEGIN ATOM
M  V30 1 C 2.045410 -2.046754 -3.224929 0
M  V30 2 N 3.017389 -1.426136 -2.346810 0
M  V30 3 C 2.718576 -1.552738 -0.964147 0
M  V30 4 O 1.663519 -2.187068 -0.916357 0
M  V30 5 C 3.608916 -0.977221 0.026204 0
M  V30 6 C 4.785020 -0.387117 -0.361694 0
M  V30 7 C 5.649221 0.122991 0.576352 0
M  V30 8 C 5.398177 0.076554 1.931131 0
M  V30 9 F 6.191717 0.552029 2.917324 0
M  V30 10 C 4.196395 -0.530304 2.252524 0
M  V30 11 C 3.264220 -1.072507 1.355820 0
M  V30 12 N 2.088902 -1.656661 1.889166 0
M  V30 13 C 0.715048 -1.388762 1.818817 0
M  V30 14 C 0.121960 -0.342704 1.148258 0
M  V30 15 C -1.224599 -0.066064 1.069155 0
M  V30 16 N -1.700157 1.055149 0.339746 0
M  V30 17 C -3.116707 1.346230 0.252372 0
M  V30 18 C -3.854061 0.233022 -0.400278 0
M  V30 19 C -5.327374 0.224857 -0.139030 0
M  V30 20 O -5.710601 1.082156 0.887238 0
M  V30 21 C -4.862792 0.965547 1.974477 0
M  V30 22 C -3.582520 1.663321 1.652721 0
M  V30 23 N -2.018155 -0.923228 1.724271 0
M  V30 24 C -1.496097 -1.963535 2.396745 0
M  V30 25 C -0.147909 -2.236356 2.473095 0
M  V30 26 C 0.337999 -3.394302 3.229767 0
M  V30 27 F 1.191580 -3.082906 4.267572 0
M  V30 28 F 0.939124 -4.307876 2.356096 0
M  V30 29 F -0.730185 -4.071495 3.785565 0
M  V30 30 H 1.035987 -1.626338 -2.965491 0
M  V30 31 H 2.077123 -3.146006 -3.213826 0
M  V30 32 H 2.247160 -1.737523 -4.266967 0
M  V30 33 H 3.861198 -0.932583 -2.766494 0
M  V30 34 H 5.122267 -0.274917 -1.376291 0
M  V30 35 H 6.593804 0.598312 0.287673 0
M  V30 36 H 3.953794 -0.589921 3.325715 0
M  V30 37 H 2.442032 -2.468322 2.444839 0
M  V30 38 H 0.799361 0.339711 0.622924 0
M  V30 39 H -1.005349 1.670246 -0.135807 0
M  V30 40 H -3.258936 2.269654 -0.362789 0
M  V30 41 H -3.464737 -0.756053 -0.145593 0
M  V30 42 H -3.691961 0.344748 -1.512368 0
M  V30 43 H -5.892875 0.480100 -1.058420 0
M  V30 44 H -5.699470 -0.787525 0.157227 0
M  V30 45 H -5.349419 1.424518 2.866677 0
M  V30 46 H -4.646261 -0.097302 2.221357 0
M  V30 47 H -3.699357 2.760352 1.797361 0
M  V30 48 H -2.820637 1.362873 2.430155 0
M  V30 49 H -2.172841 -2.649597 2.924546 0
M  V30 END ATOM
M  V30 BEGIN BOND
M  V30 1 1 1 2
M  V30 2 1 2 3
M  V30 3 2 3 4
M  V30 4 1 3 5
M  V30 5 2 5 6
M  V30 6 1 6 7
M  V30 7 2 7 8
M  V30 8 1 8 9
M  V30 9 1 8 10
M  V30 10 2 10 11
M  V30 11 1 11 12
M  V30 12 1 12 13
M  V30 13 2 13 14
M  V30 14 1 14 15
M  V30 15 1 15 16
M  V30 16 1 16 17
M  V30 17 1 17 18
M  V30 18 1 18 19
M  V30 19 1 19 20
M  V30 20 1 20 21
M  V30 21 1 21 22
M  V30 22 2 15 23
M  V30 23 1 23 24
M  V30 24 2 24 25
M  V30 25 1 25 26
M  V30 26 1 26 27
M  V30 27 1 26 28
M  V30 28 1 26 29
M  V30 29 1 11 5
M  V30 30 1 25 13
M  V30 31 1 22 17
M  V30 32 1 1 30
M  V30 33 1 1 31
M  V30 34 1 1 32
M  V30 35 1 2 33
M  V30 36 1 6 34
M  V30 37 1 7 35
M  V30 38 1 10 36
M  V30 39 1 12 37
M  V30 40 1 14 38
M  V30 41 1 16 39
M  V30 42 1 17 40
M  V30 43 1 18 41
M  V30 44 1 18 42
M  V30 45 1 19 43
M  V30 46 1 19 44
M  V30 47 1 21 45
M  V30 48 1 21 46
M  V30 49 1 22 47
M  V30 50 1 22 48
M  V30 51 1 24 49
M  V30 END BOND
M  V30 END CTAB
M  END
>  <Dataset>  (961) 
ChEMBL_Kinases

>  <Ligand_Instance>  (961) 
nan

>  <PDB_ID>  (961) 
nan

>  <Standardized_SMILES>  (961) 
CNC(=O)c1ccc(F)cc1Nc1cc(NC2CCOCC2)ncc1C(F)(F)F

>  <Name>  (961) 
nan

>  <Pocket>  (961) 
nan

>  <ATP_Site>  (961) 
nan

>  <Peripheral>  (961) 
nan

>  <Num_H_Atoms_ProtBoundConf>  (961) 
nan

>  <Num_Resolved_Atoms>  (961) 
nan

>  <Num_Not_Resolved_Atoms>  (961) 
nan

$$$$
CHEMBL3590117
     RDKit          3D

  0  0  0  0  0  0  0  0  0  0999 V3000
M  V30 BEGIN CTAB
M  V30 COUNTS 47 49 0 0 0
M  V30 BEGIN ATOM
M  V30 1 C 1.908303 -3.297389 1.998822 0
M  V30 2 C 2.655943 -3.965947 1.145536 0
M  V30 3 C 3.099598 -3.331059 -0.085550 0
M  V30 4 O 3.798956 -4.025244 -0.834798 0
M  V30 5 N 2.774670 -2.000861 -0.445709 0
M  V30 6 C 3.138904 -1.287835 -1.591076 0
M  V30 7 C 3.913396 -1.738573 -2.633085 0
M  V30 8 C 4.261868 -1.023425 -3.751366 0
M  V30 9 C 3.800114 0.280680 -3.862661 0
M  V30 10 C 3.020118 0.771948 -2.839734 0
M  V30 11 C 2.701789 -0.004783 -1.730934 0
M  V30 12 N 1.882908 0.725947 -0.812876 0
M  V30 13 C 0.610550 0.642626 -0.228755 0
M  V30 14 C 0.472558 0.574354 1.132098 0
M  V30 15 C -0.736608 0.489451 1.785990 0
M  V30 16 N -0.901090 0.426783 3.175627 0
M  V30 17 C -2.115351 0.322417 3.965014 0
M  V30 18 C -2.888019 -0.929964 3.763782 0
M  V30 19 C -4.019726 -0.901269 2.805008 0
M  V30 20 O -4.554708 0.322031 2.504107 0
M  V30 21 C -4.439462 1.231520 3.556897 0
M  V30 22 C -2.983199 1.521822 3.860723 0
M  V30 23 N -1.816965 0.476397 0.992981 0
M  V30 24 C -1.688473 0.542991 -0.338965 0
M  V30 25 C -0.504350 0.628820 -1.039164 0
M  V30 26 Cl -0.433447 0.711452 -2.781417 0
M  V30 27 H 1.395326 -3.354601 2.946635 0
M  V30 28 H 1.308909 -2.625178 2.587502 0
M  V30 29 H 2.894013 -4.967157 1.427779 0
M  V30 30 H 2.189190 -1.557832 0.280384 0
M  V30 31 H 4.309398 -2.740738 -2.619713 0
M  V30 32 H 4.878220 -1.432553 -4.545003 0
M  V30 33 H 4.069108 0.851503 -4.738927 0
M  V30 34 H 2.704269 1.784004 -3.000790 0
M  V30 35 H 2.329097 1.598376 -0.434627 0
M  V30 36 H 1.382524 0.587690 1.749056 0
M  V30 37 H 0.044156 0.466196 3.673394 0
M  V30 38 H -1.755891 0.285512 5.049423 0
M  V30 39 H -2.175941 -1.780545 3.555964 0
M  V30 40 H -3.348281 -1.209240 4.767793 0
M  V30 41 H -3.674312 -1.375947 1.839720 0
M  V30 42 H -4.832788 -1.629889 3.135930 0
M  V30 43 H -4.999338 0.932247 4.463723 0
M  V30 44 H -4.884977 2.187096 3.203254 0
M  V30 45 H -2.577712 2.288106 3.137571 0
M  V30 46 H -2.988854 2.060347 4.830778 0
M  V30 47 H -2.634307 0.525444 -0.898742 0
M  V30 END ATOM
M  V30 BEGIN BOND
M  V30 1 2 1 2
M  V30 2 1 2 3
M  V30 3 2 3 4
M  V30 4 1 3 5
M  V30 5 1 5 6
M  V30 6 2 6 7
M  V30 7 1 7 8
M  V30 8 2 8 9
M  V30 9 1 9 10
M  V30 10 2 10 11
M  V30 11 1 11 12
M  V30 12 1 12 13
M  V30 13 2 13 14
M  V30 14 1 14 15
M  V30 15 1 15 16
M  V30 16 1 16 17
M  V30 17 1 17 18
M  V30 18 1 18 19
M  V30 19 1 19 20
M  V30 20 1 20 21
M  V30 21 1 21 22
M  V30 22 2 15 23
M  V30 23 1 23 24
M  V30 24 2 24 25
M  V30 25 1 25 26
M  V30 26 1 11 6
M  V30 27 1 25 13
M  V30 28 1 22 17
M  V30 29 1 1 27
M  V30 30 1 1 28
M  V30 31 1 2 29
M  V30 32 1 5 30
M  V30 33 1 7 31
M  V30 34 1 8 32
M  V30 35 1 9 33
M  V30 36 1 10 34
M  V30 37 1 12 35
M  V30 38 1 14 36
M  V30 39 1 16 37
M  V30 40 1 17 38
M  V30 41 1 18 39
M  V30 42 1 18 40
M  V30 43 1 19 41
M  V30 44 1 19 42
M  V30 45 1 21 43
M  V30 46 1 21 44
M  V30 47 1 22 45
M  V30 48 1 22 46
M  V30 49 1 24 47
M  V30 END BOND
M  V30 END CTAB
M  END
>  <Dataset>  (962) 
ChEMBL_Kinases

>  <Ligand_Instance>  (962) 
nan

>  <PDB_ID>  (962) 
nan

>  <Standardized_SMILES>  (962) 
C=CC(=O)Nc1ccccc1Nc1cc(NC2CCOCC2)ncc1Cl

>  <Name>  (962) 
nan

>  <Pocket>  (962) 
nan

>  <ATP_Site>  (962) 
nan

>  <Peripheral>  (962) 
nan

>  <Num_H_Atoms_ProtBoundConf>  (962) 
nan

>  <Num_Resolved_Atoms>  (962) 
nan

>  <Num_Not_Resolved_Atoms>  (962) 
nan

$$$$
CHEMBL3590118
     RDKit          3D

  0  0  0  0  0  0  0  0  0  0999 V3000
M  V30 BEGIN CTAB
M  V30 COUNTS 46 48 0 0 0
M  V30 BEGIN ATOM
M  V30 1 C 1.954112 -4.258304 3.052532 0
M  V30 2 C 0.684130 -4.306179 2.634558 0
M  V30 3 C 0.892244 -3.437371 1.456185 0
M  V30 4 O 2.131470 -3.173627 1.552020 0
M  V30 5 N 0.046410 -2.941251 0.411912 0
M  V30 6 C 0.909023 -2.156855 -0.396741 0
M  V30 7 C 1.617173 -2.733366 -1.423461 0
M  V30 8 C 2.452178 -1.952865 -2.193186 0
M  V30 9 C 2.525506 -0.597559 -1.872288 0
M  V30 10 C 1.802419 -0.037296 -0.832523 0
M  V30 11 C 0.963798 -0.827546 -0.061906 0
M  V30 12 N 0.304162 -0.072271 0.940116 0
M  V30 13 C -1.130319 -0.093118 0.816450 0
M  V30 14 N -1.528943 0.560680 -0.316309 0
M  V30 15 C -2.831732 0.639874 -0.580786 0
M  V30 16 N -3.287078 1.307525 -1.744743 0
M  V30 17 C -2.368073 1.925271 -2.668105 0
M  V30 18 C -1.355604 1.001822 -3.267979 0
M  V30 19 C -0.691646 1.804205 -4.399013 0
M  V30 20 O -1.534351 1.877218 -5.506213 0
M  V30 21 C -2.878511 1.855743 -5.137084 0
M  V30 22 C -3.120733 2.579872 -3.818272 0
M  V30 23 N -3.765505 0.094174 0.235806 0
M  V30 24 C -3.415121 -0.555148 1.355844 0
M  V30 25 C -2.076591 -0.648007 1.647360 0
M  V30 26 Cl -1.436848 -1.440183 3.068682 0
M  V30 27 H 2.360611 -4.753085 3.924856 0
M  V30 28 H 3.006483 -4.187288 3.353555 0
M  V30 29 H 0.048072 -4.907738 3.261453 0
M  V30 30 H -0.908023 -3.318834 0.590690 0
M  V30 31 H 1.474844 -3.789132 -1.571821 0
M  V30 32 H 2.976856 -2.464306 -2.978795 0
M  V30 33 H 3.187372 -0.029459 -2.498131 0
M  V30 34 H 1.984186 1.037916 -0.725839 0
M  V30 35 H 0.919794 0.407202 1.643589 0
M  V30 36 H -4.325585 1.370659 -1.969038 0
M  V30 37 H -1.825484 2.725756 -2.128634 0
M  V30 38 H -0.504818 0.859641 -2.540061 0
M  V30 39 H -1.738886 0.075522 -3.693569 0
M  V30 40 H -0.536733 2.826047 -3.983959 0
M  V30 41 H 0.280650 1.321896 -4.624200 0
M  V30 42 H -3.309780 0.839938 -5.090707 0
M  V30 43 H -3.442173 2.417988 -5.908450 0
M  V30 44 H -2.892120 3.647553 -3.896630 0
M  V30 45 H -4.210064 2.453601 -3.621389 0
M  V30 46 H -4.115146 -1.007267 2.039675 0
M  V30 END ATOM
M  V30 BEGIN BOND
M  V30 1 2 1 2
M  V30 2 1 2 3
M  V30 3 2 3 4
M  V30 4 1 3 5
M  V30 5 1 5 6
M  V30 6 2 6 7
M  V30 7 1 7 8
M  V30 8 2 8 9
M  V30 9 1 9 10
M  V30 10 2 10 11
M  V30 11 1 11 12
M  V30 12 1 12 13
M  V30 13 2 13 14
M  V30 14 1 14 15
M  V30 15 1 15 16
M  V30 16 1 16 17
M  V30 17 1 17 18
M  V30 18 1 18 19
M  V30 19 1 19 20
M  V30 20 1 20 21
M  V30 21 1 21 22
M  V30 22 2 15 23
M  V30 23 1 23 24
M  V30 24 2 24 25
M  V30 25 1 25 26
M  V30 26 1 11 6
M  V30 27 1 25 13
M  V30 28 1 22 17
M  V30 29 1 1 27
M  V30 30 1 1 28
M  V30 31 1 2 29
M  V30 32 1 5 30
M  V30 33 1 7 31
M  V30 34 1 8 32
M  V30 35 1 9 33
M  V30 36 1 10 34
M  V30 37 1 12 35
M  V30 38 1 16 36
M  V30 39 1 17 37
M  V30 40 1 18 38
M  V30 41 1 18 39
M  V30 42 1 19 40
M  V30 43 1 19 41
M  V30 44 1 21 42
M  V30 45 1 21 43
M  V30 46 1 22 44
M  V30 47 1 22 45
M  V30 48 1 24 46
M  V30 END BOND
M  V30 END CTAB
M  END
>  <Dataset>  (963) 
ChEMBL_Kinases

>  <Ligand_Instance>  (963) 
nan

>  <PDB_ID>  (963) 
nan

>  <Standardized_SMILES>  (963) 
C=CC(=O)Nc1ccccc1Nc1nc(NC2CCOCC2)ncc1Cl

>  <Name>  (963) 
nan

>  <Pocket>  (963) 
nan

>  <ATP_Site>  (963) 
nan

>  <Peripheral>  (963) 
nan

>  <Num_H_Atoms_ProtBoundConf>  (963) 
nan

>  <Num_Resolved_Atoms>  (963) 
nan

>  <Num_Not_Resolved_Atoms>  (963) 
nan

$$$$
CHEMBL3590119
     RDKit          3D

  0  0  0  0  0  0  0  0  0  0999 V3000
M  V30 BEGIN CTAB
M  V30 COUNTS 48 50 0 0 0
M  V30 BEGIN ATOM
M  V30 1 C 1.477719 -4.928884 1.753506 0
M  V30 2 C 1.114237 -3.453168 1.760391 0
M  V30 3 C 2.171767 -2.673984 1.050843 0
M  V30 4 O 3.249498 -2.915741 0.458755 0
M  V30 5 N 1.860541 -1.285692 1.055280 0
M  V30 6 C 2.683539 -0.294757 0.454814 0
M  V30 7 C 3.638079 0.248692 1.271912 0
M  V30 8 C 4.467429 1.212914 0.729436 0
M  V30 9 C 4.347496 1.625082 -0.595866 0
M  V30 10 C 3.352670 1.009003 -1.320697 0
M  V30 11 C 2.478730 0.039254 -0.866571 0
M  V30 12 N 1.484138 -0.544358 -1.693517 0
M  V30 13 C 0.070935 -0.601570 -1.659182 0
M  V30 14 N -0.702105 -0.030142 -0.731510 0
M  V30 15 C -2.059379 -0.137491 -0.789178 0
M  V30 16 N -2.895436 0.468392 0.188090 0
M  V30 17 C -2.355630 1.223843 1.299331 0
M  V30 18 C -1.490814 0.361329 2.184704 0
M  V30 19 C -2.119950 0.163561 3.549121 0
M  V30 20 O -3.453375 -0.230323 3.452732 0
M  V30 21 C -4.240876 0.705914 2.814612 0
M  V30 22 C -3.461348 1.798151 2.150795 0
M  V30 23 N -2.641414 -0.827516 -1.790910 0
M  V30 24 C -1.885473 -1.399747 -2.718036 0
M  V30 25 C -0.523412 -1.301686 -2.675364 0
M  V30 26 Cl 0.351926 -2.104717 -3.962184 0
M  V30 27 H 1.021632 -5.449791 0.866894 0
M  V30 28 H 2.589084 -5.067274 1.753154 0
M  V30 29 H 1.128544 -5.399818 2.685323 0
M  V30 30 H 0.162871 -3.333717 1.188466 0
M  V30 31 H 0.981742 -3.040892 2.772288 0
M  V30 32 H 1.088861 -0.697234 1.427324 0
M  V30 33 H 3.756066 -0.054691 2.315758 0
M  V30 34 H 5.239006 1.665593 1.356352 0
M  V30 35 H 4.989768 2.372088 -1.017031 0
M  V30 36 H 3.278758 1.347205 -2.352115 0
M  V30 37 H 2.049960 -0.987979 -2.433831 0
M  V30 38 H -3.919100 0.381292 0.125156 0
M  V30 39 H -1.748811 2.054503 0.869349 0
M  V30 40 H -1.286986 -0.610405 1.687688 0
M  V30 41 H -0.521274 0.870863 2.335243 0
M  V30 42 H -1.575627 -0.679071 4.034105 0
M  V30 43 H -1.999184 1.042635 4.196648 0
M  V30 44 H -5.022072 1.163361 3.465240 0
M  V30 45 H -4.806565 0.179806 2.013330 0
M  V30 46 H -3.001064 2.528169 2.839245 0
M  V30 47 H -4.179072 2.361185 1.491427 0
M  V30 48 H -2.402007 -1.939398 -3.496592 0
M  V30 END ATOM
M  V30 BEGIN BOND
M  V30 1 1 1 2
M  V30 2 1 2 3
M  V30 3 2 3 4
M  V30 4 1 3 5
M  V30 5 1 5 6
M  V30 6 2 6 7
M  V30 7 1 7 8
M  V30 8 2 8 9
M  V30 9 1 9 10
M  V30 10 2 10 11
M  V30 11 1 11 12
M  V30 12 1 12 13
M  V30 13 2 13 14
M  V30 14 1 14 15
M  V30 15 1 15 16
M  V30 16 1 16 17
M  V30 17 1 17 18
M  V30 18 1 18 19
M  V30 19 1 19 20
M  V30 20 1 20 21
M  V30 21 1 21 22
M  V30 22 2 15 23
M  V30 23 1 23 24
M  V30 24 2 24 25
M  V30 25 1 25 26
M  V30 26 1 11 6
M  V30 27 1 25 13
M  V30 28 1 22 17
M  V30 29 1 1 27
M  V30 30 1 1 28
M  V30 31 1 1 29
M  V30 32 1 2 30
M  V30 33 1 2 31
M  V30 34 1 5 32
M  V30 35 1 7 33
M  V30 36 1 8 34
M  V30 37 1 9 35
M  V30 38 1 10 36
M  V30 39 1 12 37
M  V30 40 1 16 38
M  V30 41 1 17 39
M  V30 42 1 18 40
M  V30 43 1 18 41
M  V30 44 1 19 42
M  V30 45 1 19 43
M  V30 46 1 21 44
M  V30 47 1 21 45
M  V30 48 1 22 46
M  V30 49 1 22 47
M  V30 50 1 24 48
M  V30 END BOND
M  V30 END CTAB
M  END
>  <Dataset>  (964) 
ChEMBL_Kinases

>  <Ligand_Instance>  (964) 
nan

>  <PDB_ID>  (964) 
nan

>  <Standardized_SMILES>  (964) 
CCC(=O)Nc1ccccc1Nc1nc(NC2CCOCC2)ncc1Cl

>  <Name>  (964) 
nan

>  <Pocket>  (964) 
nan

>  <ATP_Site>  (964) 
nan

>  <Peripheral>  (964) 
nan

>  <Num_H_Atoms_ProtBoundConf>  (964) 
nan

>  <Num_Resolved_Atoms>  (964) 
nan

>  <Num_Not_Resolved_Atoms>  (964) 
nan

$$$$
CHEMBL3590120
     RDKit          3D

  0  0  0  0  0  0  0  0  0  0999 V3000
M  V30 BEGIN CTAB
M  V30 COUNTS 45 47 0 0 0
M  V30 BEGIN ATOM
M  V30 1 C 3.641572 -2.364276 -0.095088 0
M  V30 2 C 2.487065 -2.782620 0.397649 0
M  V30 3 C 1.594300 -2.276100 -0.669981 0
M  V30 4 O 2.717996 -1.912366 -1.083644 0
M  V30 5 N 0.196565 -2.260225 -0.979267 0
M  V30 6 C 0.148620 -1.577762 -2.204173 0
M  V30 7 C 0.294179 -2.320398 -3.343039 0
M  V30 8 N 0.254643 -1.634073 -4.495498 0
M  V30 9 C 0.086252 -0.308345 -4.559596 0
M  V30 10 C -0.060552 0.440971 -3.404457 0
M  V30 11 C -0.029365 -0.220286 -2.169105 0
M  V30 12 N -0.202417 0.655308 -1.101070 0
M  V30 13 C -0.988443 0.999358 0.000331 0
M  V30 14 N -0.890528 0.696915 1.306079 0
M  V30 15 C -1.771497 1.140745 2.219296 0
M  V30 16 N -1.643593 0.813693 3.598610 0
M  V30 17 C -0.618775 0.002804 4.175957 0
M  V30 18 C -0.628746 -1.411779 3.650436 0
M  V30 19 C 0.750318 -1.730524 3.132470 0
M  V30 20 O 1.702680 -1.604368 4.131091 0
M  V30 21 C 1.829037 -0.285881 4.560510 0
M  V30 22 C 0.765651 0.577013 3.946413 0
M  V30 23 N -2.791254 1.917275 1.815641 0
M  V30 24 C -2.976659 2.276271 0.533789 0
M  V30 25 C -2.054103 1.808755 -0.409478 0
M  V30 26 Cl -2.470669 2.382678 -2.010243 0
M  V30 27 H 4.657399 -2.470216 0.301311 0
M  V30 28 H 4.559254 -1.999259 -0.543319 0
M  V30 29 H 2.574813 -3.316922 1.346409 0
M  V30 30 H -0.210646 -2.752829 -0.182751 0
M  V30 31 H 0.431677 -3.392248 -3.289829 0
M  V30 32 H 0.086330 0.047110 -5.588296 0
M  V30 33 H -0.179620 1.487709 -3.685611 0
M  V30 34 H 0.538334 1.413007 -1.021145 0
M  V30 35 H -2.386213 1.216823 4.245504 0
M  V30 36 H -0.770764 -0.045409 5.270630 0
M  V30 37 H -0.831995 -2.152170 4.463941 0
M  V30 38 H -1.365804 -1.574204 2.858588 0
M  V30 39 H 0.768507 -2.810284 2.832810 0
M  V30 40 H 0.971128 -1.164068 2.220916 0
M  V30 41 H 2.813520 0.079697 4.190088 0
M  V30 42 H 1.876542 -0.194286 5.667676 0
M  V30 43 H 1.017203 0.748086 2.896252 0
M  V30 44 H 0.774690 1.582494 4.429353 0
M  V30 45 H -3.837800 2.901183 0.363986 0
M  V30 END ATOM
M  V30 BEGIN BOND
M  V30 1 2 1 2
M  V30 2 1 2 3
M  V30 3 2 3 4
M  V30 4 1 3 5
M  V30 5 1 5 6
M  V30 6 2 6 7
M  V30 7 1 7 8
M  V30 8 2 8 9
M  V30 9 1 9 10
M  V30 10 2 10 11
M  V30 11 1 11 12
M  V30 12 1 12 13
M  V30 13 2 13 14
M  V30 14 1 14 15
M  V30 15 1 15 16
M  V30 16 1 16 17
M  V30 17 1 17 18
M  V30 18 1 18 19
M  V30 19 1 19 20
M  V30 20 1 20 21
M  V30 21 1 21 22
M  V30 22 2 15 23
M  V30 23 1 23 24
M  V30 24 2 24 25
M  V30 25 1 25 26
M  V30 26 1 11 6
M  V30 27 1 25 13
M  V30 28 1 22 17
M  V30 29 1 1 27
M  V30 30 1 1 28
M  V30 31 1 2 29
M  V30 32 1 5 30
M  V30 33 1 7 31
M  V30 34 1 9 32
M  V30 35 1 10 33
M  V30 36 1 12 34
M  V30 37 1 16 35
M  V30 38 1 17 36
M  V30 39 1 18 37
M  V30 40 1 18 38
M  V30 41 1 19 39
M  V30 42 1 19 40
M  V30 43 1 21 41
M  V30 44 1 21 42
M  V30 45 1 22 43
M  V30 46 1 22 44
M  V30 47 1 24 45
M  V30 END BOND
M  V30 END CTAB
M  END
>  <Dataset>  (965) 
ChEMBL_Kinases

>  <Ligand_Instance>  (965) 
nan

>  <PDB_ID>  (965) 
nan

>  <Standardized_SMILES>  (965) 
C=CC(=O)Nc1cnccc1Nc1nc(NC2CCOCC2)ncc1Cl

>  <Name>  (965) 
nan

>  <Pocket>  (965) 
nan

>  <ATP_Site>  (965) 
nan

>  <Peripheral>  (965) 
nan

>  <Num_H_Atoms_ProtBoundConf>  (965) 
nan

>  <Num_Resolved_Atoms>  (965) 
nan

>  <Num_Not_Resolved_Atoms>  (965) 
nan

$$$$
CHEMBL3590121
     RDKit          3D

  0  0  0  0  0  0  0  0  0  0999 V3000
M  V30 BEGIN CTAB
M  V30 COUNTS 49 51 0 0 0
M  V30 BEGIN ATOM
M  V30 1 C 0.436975 -1.374854 4.707883 0
M  V30 2 C 1.658486 -1.870606 4.570562 0
M  V30 3 C 2.511761 -1.408992 3.466624 0
M  V30 4 O 3.680776 -1.834017 3.273541 0
M  V30 5 N 2.056022 -0.423345 2.518891 0
M  V30 6 C 3.122724 -0.196253 1.575424 0
M  V30 7 C 3.968539 0.819164 1.981124 0
M  V30 8 C 5.051468 1.189654 1.220543 0
M  V30 9 C 5.247844 0.498212 0.038032 0
M  V30 10 C 4.406395 -0.514852 -0.369592 0
M  V30 11 C 3.325330 -0.880013 0.396072 0
M  V30 12 N 2.389212 -1.905774 0.085673 0
M  V30 13 C 0.989913 -1.735792 -0.097549 0
M  V30 14 N 0.467019 -0.503339 0.020200 0
M  V30 15 C -0.870269 -0.266981 -0.143097 0
M  V30 16 N -1.440237 1.009937 -0.025864 0
M  V30 17 C -2.836968 1.336974 -0.182967 0
M  V30 18 C -3.409716 1.008778 -1.503100 0
M  V30 19 C -4.905588 1.151169 -1.581227 0
M  V30 20 O -5.518654 0.751621 -0.391067 0
M  V30 21 C -4.680513 -0.174138 0.250294 0
M  V30 22 C -3.594556 0.634824 0.909613 0
M  V30 23 N -1.582069 -1.371118 -0.425947 0
M  V30 24 C -1.110911 -2.603879 -0.551520 0
M  V30 25 C 0.232219 -2.823183 -0.384628 0
M  V30 26 C 0.825226 -4.159356 -0.508336 0
M  V30 27 F 1.770936 -4.194777 -1.511940 0
M  V30 28 F 1.380530 -4.624824 0.654969 0
M  V30 29 F -0.168626 -5.047843 -0.871245 0
M  V30 30 H -0.213448 -1.700019 5.516060 0
M  V30 31 H -0.167986 -1.734351 5.530766 0
M  V30 32 H 2.092267 -2.607491 5.221570 0
M  V30 33 H 1.066343 -0.091922 2.718750 0
M  V30 34 H 3.856016 1.394888 2.905963 0
M  V30 35 H 5.739418 1.982982 1.505666 0
M  V30 36 H 6.095715 0.775181 -0.575499 0
M  V30 37 H 4.556057 -1.059265 -1.294832 0
M  V30 38 H 2.849963 -2.838224 0.001497 0
M  V30 39 H -0.752271 1.793240 0.201367 0
M  V30 40 H -2.962698 2.458688 -0.055500 0
M  V30 41 H -2.992556 1.767204 -2.226416 0
M  V30 42 H -3.116769 0.040745 -1.948616 0
M  V30 43 H -5.139075 2.224776 -1.710427 0
M  V30 44 H -5.386095 0.608093 -2.402817 0
M  V30 45 H -4.304131 -0.828705 -0.556270 0
M  V30 46 H -5.259688 -0.781079 0.969813 0
M  V30 47 H -4.060836 1.424533 1.576292 0
M  V30 48 H -2.925096 -0.008530 1.528902 0
M  V30 49 H -1.785500 -3.414591 -0.782037 0
M  V30 END ATOM
M  V30 BEGIN BOND
M  V30 1 2 1 2
M  V30 2 1 2 3
M  V30 3 2 3 4
M  V30 4 1 3 5
M  V30 5 1 5 6
M  V30 6 2 6 7
M  V30 7 1 7 8
M  V30 8 2 8 9
M  V30 9 1 9 10
M  V30 10 2 10 11
M  V30 11 1 11 12
M  V30 12 1 12 13
M  V30 13 2 13 14
M  V30 14 1 14 15
M  V30 15 1 15 16
M  V30 16 1 16 17
M  V30 17 1 17 18
M  V30 18 1 18 19
M  V30 19 1 19 20
M  V30 20 1 20 21
M  V30 21 1 21 22
M  V30 22 2 15 23
M  V30 23 1 23 24
M  V30 24 2 24 25
M  V30 25 1 25 26
M  V30 26 1 26 27
M  V30 27 1 26 28
M  V30 28 1 26 29
M  V30 29 1 11 6
M  V30 30 1 25 13
M  V30 31 1 22 17
M  V30 32 1 1 30
M  V30 33 1 1 31
M  V30 34 1 2 32
M  V30 35 1 5 33
M  V30 36 1 7 34
M  V30 37 1 8 35
M  V30 38 1 9 36
M  V30 39 1 10 37
M  V30 40 1 12 38
M  V30 41 1 16 39
M  V30 42 1 17 40
M  V30 43 1 18 41
M  V30 44 1 18 42
M  V30 45 1 19 43
M  V30 46 1 19 44
M  V30 47 1 21 45
M  V30 48 1 21 46
M  V30 49 1 22 47
M  V30 50 1 22 48
M  V30 51 1 24 49
M  V30 END BOND
M  V30 END CTAB
M  END
>  <Dataset>  (966) 
ChEMBL_Kinases

>  <Ligand_Instance>  (966) 
nan

>  <PDB_ID>  (966) 
nan

>  <Standardized_SMILES>  (966) 
C=CC(=O)Nc1ccccc1Nc1nc(NC2CCOCC2)ncc1C(F)(F)F

>  <Name>  (966) 
nan

>  <Pocket>  (966) 
nan

>  <ATP_Site>  (966) 
nan

>  <Peripheral>  (966) 
nan

>  <Num_H_Atoms_ProtBoundConf>  (966) 
nan

>  <Num_Resolved_Atoms>  (966) 
nan

>  <Num_Not_Resolved_Atoms>  (966) 
nan

$$$$
CHEMBL3590122
     RDKit          3D

  0  0  0  0  0  0  0  0  0  0999 V3000
M  V30 BEGIN CTAB
M  V30 COUNTS 49 51 0 0 0
M  V30 BEGIN ATOM
M  V30 1 C 0.619846 -5.052472 -1.090602 0
M  V30 2 C 1.430811 -4.085183 -0.991718 0
M  V30 3 C 2.450505 -3.111180 -0.797618 0
M  V30 4 O 3.569124 -3.152415 -0.258032 0
M  V30 5 N 2.185841 -1.795424 -1.310024 0
M  V30 6 C 3.263072 -0.906845 -1.056971 0
M  V30 7 C 4.223274 -0.946597 -2.074027 0
M  V30 8 C 5.396713 -0.167255 -2.056873 0
M  V30 9 C 5.550808 0.664512 -0.946832 0
M  V30 10 C 4.618072 0.714890 0.056958 0
M  V30 11 C 3.482795 -0.043515 0.034601 0
M  V30 12 N 2.403897 -0.186462 0.943631 0
M  V30 13 C 1.020474 0.050910 0.966708 0
M  V30 14 N 0.397132 -0.460750 2.034765 0
M  V30 15 C -0.918302 -0.286853 2.167732 0
M  V30 16 N -1.684088 -0.765143 3.244470 0
M  V30 17 C -3.111460 -0.627039 3.432976 0
M  V30 18 C -3.811116 -1.322129 2.326257 0
M  V30 19 C -5.145647 -0.684689 2.063213 0
M  V30 20 O -5.639204 -0.204608 3.260998 0
M  V30 21 C -5.002839 0.984746 3.632528 0
M  V30 22 C -3.507767 0.822345 3.591748 0
M  V30 23 N -1.578478 0.400318 1.219671 0
M  V30 24 C -0.976059 0.923519 0.137703 0
M  V30 25 C 0.410910 0.763136 -0.043742 0
M  V30 26 C 1.093228 1.351156 -1.218626 0
M  V30 27 H 0.379652 -6.105193 -0.902146 0
M  V30 28 H 0.467879 -6.123802 -0.866922 0
M  V30 29 H 0.485764 -3.834018 -1.499541 0
M  V30 30 H 1.268329 -1.606971 -1.809884 0
M  V30 31 H 4.147794 -1.589235 -2.963837 0
M  V30 32 H 6.115969 -0.228250 -2.857824 0
M  V30 33 H 6.425068 1.295314 -0.861237 0
M  V30 34 H 4.659371 1.326656 0.938050 0
M  V30 35 H 2.966623 -0.572206 1.709073 0
M  V30 36 H -1.096788 -1.276388 3.965236 0
M  V30 37 H -3.351019 -1.182684 4.389792 0
M  V30 38 H -4.013977 -2.389734 2.644973 0
M  V30 39 H -3.176392 -1.329213 1.403976 0
M  V30 40 H -4.961347 0.169054 1.375207 0
M  V30 41 H -5.906425 -1.392667 1.669587 0
M  V30 42 H -5.378812 1.264770 4.620910 0
M  V30 43 H -5.309085 1.751851 2.906781 0
M  V30 44 H -3.090816 1.191232 4.534707 0
M  V30 45 H -3.061792 1.402412 2.769456 0
M  V30 46 H -1.462426 1.483948 -0.648237 0
M  V30 47 H 2.113962 1.739588 -0.991719 0
M  V30 48 H 1.120220 0.717523 -2.107891 0
M  V30 49 H 0.509604 2.303590 -1.441804 0
M  V30 END ATOM
M  V30 BEGIN BOND
M  V30 1 2 1 2
M  V30 2 1 2 3
M  V30 3 2 3 4
M  V30 4 1 3 5
M  V30 5 1 5 6
M  V30 6 2 6 7
M  V30 7 1 7 8
M  V30 8 2 8 9
M  V30 9 1 9 10
M  V30 10 2 10 11
M  V30 11 1 11 12
M  V30 12 1 12 13
M  V30 13 2 13 14
M  V30 14 1 14 15
M  V30 15 1 15 16
M  V30 16 1 16 17
M  V30 17 1 17 18
M  V30 18 1 18 19
M  V30 19 1 19 20
M  V30 20 1 20 21
M  V30 21 1 21 22
M  V30 22 2 15 23
M  V30 23 1 23 24
M  V30 24 2 24 25
M  V30 25 1 25 26
M  V30 26 1 11 6
M  V30 27 1 25 13
M  V30 28 1 22 17
M  V30 29 1 1 27
M  V30 30 1 1 28
M  V30 31 1 2 29
M  V30 32 1 5 30
M  V30 33 1 7 31
M  V30 34 1 8 32
M  V30 35 1 9 33
M  V30 36 1 10 34
M  V30 37 1 12 35
M  V30 38 1 16 36
M  V30 39 1 17 37
M  V30 40 1 18 38
M  V30 41 1 18 39
M  V30 42 1 19 40
M  V30 43 1 19 41
M  V30 44 1 21 42
M  V30 45 1 21 43
M  V30 46 1 22 44
M  V30 47 1 22 45
M  V30 48 1 24 46
M  V30 49 1 26 47
M  V30 50 1 26 48
M  V30 51 1 26 49
M  V30 END BOND
M  V30 END CTAB
M  END
>  <Dataset>  (967) 
ChEMBL_Kinases

>  <Ligand_Instance>  (967) 
nan

>  <PDB_ID>  (967) 
nan

>  <Standardized_SMILES>  (967) 
C=CC(=O)Nc1ccccc1Nc1nc(NC2CCOCC2)ncc1C

>  <Name>  (967) 
nan

>  <Pocket>  (967) 
nan

>  <ATP_Site>  (967) 
nan

>  <Peripheral>  (967) 
nan

>  <Num_H_Atoms_ProtBoundConf>  (967) 
nan

>  <Num_Resolved_Atoms>  (967) 
nan

>  <Num_Not_Resolved_Atoms>  (967) 
nan

$$$$
CHEMBL3590124
     RDKit          3D

  0  0  0  0  0  0  0  0  0  0999 V3000
M  V30 BEGIN CTAB
M  V30 COUNTS 56 58 0 0 0
M  V30 BEGIN ATOM
M  V30 1 C 0.046134 -2.635380 4.369901 0
M  V30 2 C 0.933162 -2.166478 3.541079 0
M  V30 3 C 1.722055 -1.740618 2.410696 0
M  V30 4 O 1.230846 -1.972958 1.282965 0
M  V30 5 N 2.967157 -1.105359 2.658335 0
M  V30 6 C 3.678053 -0.719913 1.497827 0
M  V30 7 C 4.577769 -1.529230 0.843420 0
M  V30 8 C 5.250972 -1.073290 -0.295525 0
M  V30 9 C 5.000314 0.198761 -0.753102 0
M  V30 10 C 4.095122 1.016275 -0.097210 0
M  V30 11 C 3.430641 0.563320 1.028715 0
M  V30 12 N 2.547117 1.524017 1.575057 0
M  V30 13 C 1.146198 1.582570 1.811947 0
M  V30 14 N 0.323643 1.319570 0.781059 0
M  V30 15 C -1.003334 1.338071 0.879612 0
M  V30 16 N -1.868263 1.068728 -0.196575 0
M  V30 17 C -1.442512 0.763177 -1.524585 0 CFG=1
M  V30 18 C -0.528440 -0.431425 -1.639489 0
M  V30 19 C -1.294560 -1.695165 -2.014334 0
M  V30 20 C -2.571416 -1.639606 -1.235062 0 CFG=2
M  V30 21 N -3.199803 -2.924212 -1.012269 0
M  V30 22 C -4.416743 -2.684297 -0.248080 0
M  V30 23 C -2.367192 -3.816425 -0.253615 0
M  V30 24 C -3.477142 -0.642505 -1.897559 0
M  V30 25 C -2.639909 0.506426 -2.423116 0
M  V30 26 N -1.473630 1.643217 2.102523 0
M  V30 27 C -0.749032 1.916747 3.174051 0
M  V30 28 C 0.623587 1.897790 3.072483 0
M  V30 29 Cl 1.723451 2.236213 4.388964 0
M  V30 30 H -0.660918 -2.975744 3.616054 0
M  V30 31 H -0.902725 -3.101935 4.087909 0
M  V30 32 H 1.287772 -2.011685 4.565565 0
M  V30 33 H 3.284669 -0.959071 3.641123 0
M  V30 34 H 4.717040 -2.530596 1.279193 0
M  V30 35 H 5.927668 -1.799056 -0.716576 0
M  V30 36 H 5.565429 0.471219 -1.644198 0
M  V30 37 H 4.002823 1.986919 -0.575601 0
M  V30 38 H 2.951190 2.409054 1.892371 0
M  V30 39 H -2.914978 1.096777 -0.000027 0
M  V30 40 H -0.930012 1.654399 -1.934126 0
M  V30 41 H 0.283731 -0.237126 -2.389302 0
M  V30 42 H -0.035979 -0.581102 -0.682536 0
M  V30 43 H -1.544195 -1.656046 -3.106497 0
M  V30 44 H -0.677159 -2.573943 -1.810858 0
M  V30 45 H -2.322175 -1.253397 -0.223839 0
M  V30 46 H -4.592756 -3.504267 0.491029 0
M  V30 47 H -4.339464 -1.761490 0.380908 0
M  V30 48 H -5.299435 -2.528843 -0.899020 0
M  V30 49 H -3.016911 -4.409205 0.420339 0
M  V30 50 H -1.648172 -3.277275 0.404553 0
M  V30 51 H -1.876804 -4.545980 -0.932298 0
M  V30 52 H -4.073394 -1.103146 -2.699456 0
M  V30 53 H -4.160739 -0.243950 -1.137061 0
M  V30 54 H -2.260134 0.225678 -3.416849 0
M  V30 55 H -3.223616 1.444824 -2.461530 0
M  V30 56 H -1.181492 2.161104 4.145464 0
M  V30 END ATOM
M  V30 BEGIN BOND
M  V30 1 2 1 2
M  V30 2 1 2 3
M  V30 3 2 3 4
M  V30 4 1 3 5
M  V30 5 1 5 6
M  V30 6 2 6 7
M  V30 7 1 7 8
M  V30 8 2 8 9
M  V30 9 1 9 10
M  V30 10 2 10 11
M  V30 11 1 11 12
M  V30 12 1 12 13
M  V30 13 2 13 14
M  V30 14 1 14 15
M  V30 15 1 15 16
M  V30 16 1 16 17
M  V30 17 1 17 18
M  V30 18 1 18 19
M  V30 19 1 19 20
M  V30 20 1 20 21
M  V30 21 1 21 22
M  V30 22 1 21 23
M  V30 23 1 20 24
M  V30 24 1 24 25
M  V30 25 2 15 26
M  V30 26 1 26 27
M  V30 27 2 27 28
M  V30 28 1 28 29
M  V30 29 1 11 6
M  V30 30 1 28 13
M  V30 31 1 25 17
M  V30 32 1 1 30
M  V30 33 1 1 31
M  V30 34 1 2 32
M  V30 35 1 5 33
M  V30 36 1 7 34
M  V30 37 1 8 35
M  V30 38 1 9 36
M  V30 39 1 10 37
M  V30 40 1 12 38
M  V30 41 1 16 39
M  V30 42 1 17 40 CFG=3
M  V30 43 1 18 41
M  V30 44 1 18 42
M  V30 45 1 19 43
M  V30 46 1 19 44
M  V30 47 1 20 45 CFG=1
M  V30 48 1 22 46
M  V30 49 1 22 47
M  V30 50 1 22 48
M  V30 51 1 23 49
M  V30 52 1 23 50
M  V30 53 1 23 51
M  V30 54 1 24 52
M  V30 55 1 24 53
M  V30 56 1 25 54
M  V30 57 1 25 55
M  V30 58 1 27 56
M  V30 END BOND
M  V30 END CTAB
M  END
>  <Dataset>  (968) 
ChEMBL_Kinases

>  <Ligand_Instance>  (968) 
nan

>  <PDB_ID>  (968) 
nan

>  <Standardized_SMILES>  (968) 
C=CC(=O)Nc1ccccc1Nc1nc(N[C@H]2CC[C@H](N(C)C)CC2)ncc1Cl

>  <Name>  (968) 
nan

>  <Pocket>  (968) 
nan

>  <ATP_Site>  (968) 
nan

>  <Peripheral>  (968) 
nan

>  <Num_H_Atoms_ProtBoundConf>  (968) 
nan

>  <Num_Resolved_Atoms>  (968) 
nan

>  <Num_Not_Resolved_Atoms>  (968) 
nan

$$$$
CHEMBL3593290
     RDKit          3D

  0  0  0  0  0  0  0  0  0  0999 V3000
M  V30 BEGIN CTAB
M  V30 COUNTS 69 73 0 0 0
M  V30 BEGIN ATOM
M  V30 1 C 4.580031 -2.657013 4.517559 0
M  V30 2 C 3.600214 -1.694562 3.926990 0
M  V30 3 C 4.029870 -0.974800 2.755556 0
M  V30 4 C 5.061483 -0.785697 1.862484 0
M  V30 5 C 4.733327 0.108963 0.944244 0
M  V30 6 N 5.344220 0.680484 -0.216197 0
M  V30 7 C 4.614185 1.568914 -1.069653 0
M  V30 8 O 3.429879 1.846786 -0.646222 0
M  V30 9 N 4.676645 2.324448 -2.308510 0
M  V30 10 C 3.315866 2.878202 -2.223729 0
M  V30 11 C 2.370410 1.917922 -2.626483 0
M  V30 12 C 1.010903 2.187651 -2.399560 0
M  V30 13 C 0.804765 3.389202 -1.801080 0
M  V30 14 C -0.430106 3.819633 -1.048450 0
M  V30 15 C -1.399156 4.623654 -0.634604 0
M  V30 16 N -2.311986 4.234309 0.213991 0
M  V30 17 C -2.468815 3.231505 0.733765 0
M  V30 18 N -2.902963 2.096762 1.544147 0
M  V30 19 C -3.269200 0.760990 1.537239 0
M  V30 20 C -3.563684 0.040100 0.442599 0
M  V30 21 C -3.844510 -1.296163 0.640961 0
M  V30 22 N -4.173893 -2.231241 -0.373330 0
M  V30 23 C -3.877838 -2.235945 -1.808111 0
M  V30 24 C -2.982809 -3.459111 -2.062017 0
M  V30 25 N -2.848092 -4.217409 -0.874160 0
M  V30 26 C -1.760134 -5.096911 -0.822430 0
M  V30 27 C -0.446182 -4.337286 -0.714305 0
M  V30 28 C -4.104920 -4.665832 -0.380202 0
M  V30 29 C -4.959265 -3.434876 -0.052875 0
M  V30 30 N -3.812080 -1.809637 1.884139 0
M  V30 31 C -3.515273 -1.073933 2.981790 0
M  V30 32 C -3.467395 -1.707686 4.332789 0
M  V30 33 N -3.244921 0.231345 2.769121 0
M  V30 34 S -1.000041 2.305163 -0.022425 0
M  V30 35 C 1.706333 4.386873 -1.391103 0
M  V30 36 C 3.063622 4.086186 -1.630321 0
M  V30 37 N 3.487868 0.469985 1.284141 0
M  V30 38 O 3.103171 -0.163283 2.324449 0
M  V30 39 H 5.404376 -2.076024 4.973565 0
M  V30 40 H 4.030817 -3.170687 5.359526 0
M  V30 41 H 4.857117 -3.370240 3.750128 0
M  V30 42 H 2.676076 -2.319992 3.664594 0
M  V30 43 H 3.245566 -1.043190 4.764489 0
M  V30 44 H 5.996878 -1.269476 1.858975 0
M  V30 45 H 6.251625 0.611194 -0.713815 0
M  V30 46 H 5.619645 2.098604 -2.621516 0
M  V30 47 H 2.528485 0.962842 -3.095606 0
M  V30 48 H 0.140572 1.629318 -2.619641 0
M  V30 49 H -1.202035 5.535386 -1.161261 0
M  V30 50 H -2.881357 2.694951 2.442610 0
M  V30 51 H -3.579595 0.444709 -0.546757 0
M  V30 52 H -3.304743 -1.327691 -2.095265 0
M  V30 53 H -4.796178 -2.348597 -2.386423 0
M  V30 54 H -2.029011 -3.145541 -2.495662 0
M  V30 55 H -3.470345 -4.104771 -2.858575 0
M  V30 56 H -1.686186 -5.701720 -1.748706 0
M  V30 57 H -1.856251 -5.787373 0.035642 0
M  V30 58 H -0.021476 -4.130276 -1.707904 0
M  V30 59 H -0.672171 -3.393227 -0.153673 0
M  V30 60 H 0.278118 -4.914134 -0.112536 0
M  V30 61 H -4.583388 -5.281382 -1.190611 0
M  V30 62 H -4.031551 -5.302730 0.531447 0
M  V30 63 H -5.218529 -3.435549 1.020393 0
M  V30 64 H -5.874014 -3.383394 -0.679377 0
M  V30 65 H -4.419019 -2.232243 4.504530 0
M  V30 66 H -2.654602 -2.482130 4.271908 0
M  V30 67 H -3.248016 -0.916743 5.092134 0
M  V30 68 H 1.600933 5.354504 -0.941016 0
M  V30 69 H 3.957569 4.652132 -1.427470 0
M  V30 END ATOM
M  V30 BEGIN BOND
M  V30 1 1 1 2
M  V30 2 1 2 3
M  V30 3 2 3 4
M  V30 4 1 4 5
M  V30 5 1 5 6
M  V30 6 1 6 7
M  V30 7 2 7 8
M  V30 8 1 7 9
M  V30 9 1 9 10
M  V30 10 2 10 11
M  V30 11 1 11 12
M  V30 12 2 12 13
M  V30 13 1 13 14
M  V30 14 2 14 15
M  V30 15 1 15 16
M  V30 16 2 16 17
M  V30 17 1 17 18
M  V30 18 1 18 19
M  V30 19 2 19 20
M  V30 20 1 20 21
M  V30 21 1 21 22
M  V30 22 1 22 23
M  V30 23 1 23 24
M  V30 24 1 24 25
M  V30 25 1 25 26
M  V30 26 1 26 27
M  V30 27 1 25 28
M  V30 28 1 28 29
M  V30 29 2 21 30
M  V30 30 1 30 31
M  V30 31 1 31 32
M  V30 32 2 31 33
M  V30 33 1 17 34
M  V30 34 1 13 35
M  V30 35 2 35 36
M  V30 36 2 5 37
M  V30 37 1 37 38
M  V30 38 1 38 3
M  V30 39 1 36 10
M  V30 40 1 34 14
M  V30 41 1 33 19
M  V30 42 1 29 22
M  V30 43 1 1 39
M  V30 44 1 1 40
M  V30 45 1 1 41
M  V30 46 1 2 42
M  V30 47 1 2 43
M  V30 48 1 4 44
M  V30 49 1 6 45
M  V30 50 1 9 46
M  V30 51 1 11 47
M  V30 52 1 12 48
M  V30 53 1 15 49
M  V30 54 1 18 50
M  V30 55 1 20 51
M  V30 56 1 23 52
M  V30 57 1 23 53
M  V30 58 1 24 54
M  V30 59 1 24 55
M  V30 60 1 26 56
M  V30 61 1 26 57
M  V30 62 1 27 58
M  V30 63 1 27 59
M  V30 64 1 27 60
M  V30 65 1 28 61
M  V30 66 1 28 62
M  V30 67 1 29 63
M  V30 68 1 29 64
M  V30 69 1 32 65
M  V30 70 1 32 66
M  V30 71 1 32 67
M  V30 72 1 35 68
M  V30 73 1 36 69
M  V30 END BOND
M  V30 END CTAB
M  END
>  <Dataset>  (969) 
ChEMBL_Kinases

>  <Ligand_Instance>  (969) 
nan

>  <PDB_ID>  (969) 
nan

>  <Standardized_SMILES>  (969) 
CCc1cc(NC(=O)Nc2ccc(-c3cnc(Nc4cc(N5CCN(CC)CC5)nc(C)n4)s3)cc2)no1

>  <Name>  (969) 
nan

>  <Pocket>  (969) 
nan

>  <ATP_Site>  (969) 
nan

>  <Peripheral>  (969) 
nan

>  <Num_H_Atoms_ProtBoundConf>  (969) 
nan

>  <Num_Resolved_Atoms>  (969) 
nan

>  <Num_Not_Resolved_Atoms>  (969) 
nan

$$$$
CHEMBL3590143
     RDKit          3D

  0  0  0  0  0  0  0  0  0  0999 V3000
M  V30 BEGIN CTAB
M  V30 COUNTS 49 52 0 0 0
M  V30 BEGIN ATOM
M  V30 1 O 4.534385 -2.260139 -0.131200 0
M  V30 2 C 4.056496 -1.911225 -1.239221 0
M  V30 3 N 4.927886 -2.072126 -2.348387 0
M  V30 4 C 6.264169 -2.593279 -2.241206 0
M  V30 5 C 7.161578 -1.767296 -1.341182 0
M  V30 6 O 8.422944 -2.388989 -1.331540 0
M  V30 7 C 2.699948 -1.391090 -1.287941 0
M  V30 8 C 1.993325 -1.300506 -0.124719 0
M  V30 9 C 0.709576 -0.809536 -0.162653 0
M  V30 10 C 0.045496 -0.387279 -1.291347 0
M  V30 11 N -1.272753 0.120496 -1.354115 0
M  V30 12 C -2.181948 0.301581 -0.282817 0
M  V30 13 N -1.966990 0.024725 1.006831 0
M  V30 14 C -2.834604 0.199986 2.013615 0
M  V30 15 C -2.317805 -0.195745 3.315207 0
M  V30 16 C -2.291129 0.467003 4.497492 0
M  V30 17 C -1.772198 -0.092947 5.644590 0
M  V30 18 C -1.244460 -1.358024 5.677952 0
M  V30 19 C -1.248898 -2.071508 4.497899 0
M  V30 20 C -1.774788 -1.486798 3.365098 0
M  V30 21 C -4.068546 0.714345 1.688147 0
M  V30 22 C -4.939676 0.871784 2.742833 0
M  V30 23 C -6.188678 1.377959 2.450479 0
M  V30 24 Cl -7.394831 1.629915 3.696704 0
M  V30 25 C -6.496819 1.697361 1.122937 0
M  V30 26 C -5.585816 1.522872 0.075987 0
M  V30 27 C -4.338810 1.016308 0.373667 0
M  V30 28 N -3.398985 0.801713 -0.548169 0
M  V30 29 C 0.806856 -0.501655 -2.434098 0
M  V30 30 C 2.094812 -0.986355 -2.447970 0
M  V30 31 H 4.526584 -1.778140 -3.286404 0
M  V30 32 H 6.711354 -2.618525 -3.251044 0
M  V30 33 H 6.264112 -3.642630 -1.875281 0
M  V30 34 H 6.812864 -1.779923 -0.300634 0
M  V30 35 H 7.306428 -0.746161 -1.748406 0
M  V30 36 H 8.486238 -3.090544 -0.631664 0
M  V30 37 H 2.443158 -1.612075 0.808203 0
M  V30 38 H 0.203222 -0.762277 0.787257 0
M  V30 39 H -1.605768 0.392638 -2.318083 0
M  V30 40 H -2.687126 1.471325 4.490188 0
M  V30 41 H -1.813906 0.552829 6.531079 0
M  V30 42 H -0.859810 -1.723141 6.609689 0
M  V30 43 H -0.842888 -3.071020 4.479483 0
M  V30 44 H -1.740115 -2.121916 2.467785 0
M  V30 45 H -4.699444 0.613764 3.753699 0
M  V30 46 H -7.484840 2.102421 0.864523 0
M  V30 47 H -5.846695 1.776652 -0.941786 0
M  V30 48 H 0.388929 -0.197629 -3.396733 0
M  V30 49 H 2.630866 -1.044649 -3.399143 0
M  V30 END ATOM
M  V30 BEGIN BOND
M  V30 1 2 1 2
M  V30 2 1 2 3
M  V30 3 1 3 4
M  V30 4 1 4 5
M  V30 5 1 5 6
M  V30 6 1 2 7
M  V30 7 2 7 8
M  V30 8 1 8 9
M  V30 9 2 9 10
M  V30 10 1 10 11
M  V30 11 1 11 12
M  V30 12 2 12 13
M  V30 13 1 13 14
M  V30 14 1 14 15
M  V30 15 2 15 16
M  V30 16 1 16 17
M  V30 17 2 17 18
M  V30 18 1 18 19
M  V30 19 2 19 20
M  V30 20 2 14 21
M  V30 21 1 21 22
M  V30 22 2 22 23
M  V30 23 1 23 24
M  V30 24 1 23 25
M  V30 25 2 25 26
M  V30 26 1 26 27
M  V30 27 2 27 28
M  V30 28 1 10 29
M  V30 29 2 29 30
M  V30 30 1 30 7
M  V30 31 1 28 12
M  V30 32 1 20 15
M  V30 33 1 27 21
M  V30 34 1 3 31
M  V30 35 1 4 32
M  V30 36 1 4 33
M  V30 37 1 5 34
M  V30 38 1 5 35
M  V30 39 1 6 36
M  V30 40 1 8 37
M  V30 41 1 9 38
M  V30 42 1 11 39
M  V30 43 1 16 40
M  V30 44 1 17 41
M  V30 45 1 18 42
M  V30 46 1 19 43
M  V30 47 1 20 44
M  V30 48 1 22 45
M  V30 49 1 25 46
M  V30 50 1 26 47
M  V30 51 1 29 48
M  V30 52 1 30 49
M  V30 END BOND
M  V30 END CTAB
M  END
>  <Dataset>  (970) 
ChEMBL_Kinases

>  <Ligand_Instance>  (970) 
nan

>  <PDB_ID>  (970) 
nan

>  <Standardized_SMILES>  (970) 
O=C(NCCO)c1ccc(Nc2nc(-c3ccccc3)c3cc(Cl)ccc3n2)cc1

>  <Name>  (970) 
nan

>  <Pocket>  (970) 
nan

>  <ATP_Site>  (970) 
nan

>  <Peripheral>  (970) 
nan

>  <Num_H_Atoms_ProtBoundConf>  (970) 
nan

>  <Num_Resolved_Atoms>  (970) 
nan

>  <Num_Not_Resolved_Atoms>  (970) 
nan

$$$$
CHEMBL359135
     RDKit          3D

  0  0  0  0  0  0  0  0  0  0999 V3000
M  V30 BEGIN CTAB
M  V30 COUNTS 14 14 0 0 0
M  V30 BEGIN ATOM
M  V30 1 O 3.031546 -1.986042 1.603702 0
M  V30 2 C 2.030104 -1.484982 1.040183 0
M  V30 3 C 1.079870 -2.302700 0.243582 0
M  V30 4 Cl 1.627033 -2.280443 -1.449509 0
M  V30 5 C 1.766701 -0.085960 1.148593 0
M  V30 6 C 0.760420 0.687654 0.634861 0
M  V30 7 C 0.769822 2.025219 0.911873 0
M  V30 8 C 1.780154 2.525894 1.685906 0
M  V30 9 S 2.837990 1.032528 2.088670 0
M  V30 10 H 1.060086 -3.341705 0.648847 0
M  V30 11 H 0.081476 -1.838340 0.341470 0
M  V30 12 H 0.003643 0.198816 0.032634 0
M  V30 13 H 0.020978 2.719058 0.554754 0
M  V30 14 H 1.978032 3.530259 2.021624 0
M  V30 END ATOM
M  V30 BEGIN BOND
M  V30 1 2 1 2
M  V30 2 1 2 3
M  V30 3 1 3 4
M  V30 4 1 2 5
M  V30 5 2 5 6
M  V30 6 1 6 7
M  V30 7 2 7 8
M  V30 8 1 8 9
M  V30 9 1 9 5
M  V30 10 1 3 10
M  V30 11 1 3 11
M  V30 12 1 6 12
M  V30 13 1 7 13
M  V30 14 1 8 14
M  V30 END BOND
M  V30 END CTAB
M  END
>  <Dataset>  (971) 
ChEMBL_Kinases

>  <Ligand_Instance>  (971) 
nan

>  <PDB_ID>  (971) 
nan

>  <Standardized_SMILES>  (971) 
O=C(CCl)c1cccs1

>  <Name>  (971) 
nan

>  <Pocket>  (971) 
nan

>  <ATP_Site>  (971) 
nan

>  <Peripheral>  (971) 
nan

>  <Num_H_Atoms_ProtBoundConf>  (971) 
nan

>  <Num_Resolved_Atoms>  (971) 
nan

>  <Num_Not_Resolved_Atoms>  (971) 
nan

$$$$
CHEMBL3593284
     RDKit          3D

  0  0  0  0  0  0  0  0  0  0999 V3000
M  V30 BEGIN CTAB
M  V30 COUNTS 64 68 0 0 0
M  V30 BEGIN ATOM
M  V30 1 C 3.525479 -7.014058 0.341906 0
M  V30 2 C 3.267558 -5.717081 -0.331640 0
M  V30 3 N 4.234774 -4.772496 -0.208871 0
M  V30 4 C 4.106940 -3.559350 -0.792571 0
M  V30 5 N 4.896937 -2.379893 -0.824034 0
M  V30 6 C 4.481313 -1.167970 -0.082002 0
M  V30 7 N 4.811152 -0.068718 0.150009 0
M  V30 8 C 4.177737 0.820460 0.876641 0
M  V30 9 C 2.964537 0.466396 1.465699 0
M  V30 10 C 1.971677 1.125261 2.322481 0
M  V30 11 C 2.045004 2.439019 2.711536 0
M  V30 12 C 1.034039 2.903795 3.519651 0
M  V30 13 C 0.002719 2.105598 3.921481 0
M  V30 14 N -0.963340 2.782035 4.757139 0
M  V30 15 C -1.994129 3.285033 3.938390 0
M  V30 16 O -1.853423 3.043067 2.711314 0
M  V30 17 N -3.126615 4.003009 4.330810 0
M  V30 18 C -4.208870 4.530048 3.584511 0
M  V30 19 C -5.198038 5.204774 4.268258 0
M  V30 20 C -6.286225 5.732944 3.605677 0
M  V30 21 C -6.431122 5.608734 2.231504 0
M  V30 22 C -5.464438 4.942657 1.517127 0
M  V30 23 C -4.398881 4.434259 2.224864 0
M  V30 24 C -0.054792 0.789074 3.521454 0
M  V30 25 C 0.924374 0.284833 2.720080 0
M  V30 26 S 2.836905 -1.317560 0.847044 0
M  V30 27 C 2.914615 -3.397426 -1.507661 0
M  V30 28 C 1.907766 -4.314813 -1.662154 0
M  V30 29 N 0.715663 -4.076060 -2.399921 0
M  V30 30 C -0.320855 -5.055783 -2.425208 0
M  V30 31 C -0.861792 -5.145883 -3.830798 0
M  V30 32 C -1.479260 -3.828779 -4.234074 0
M  V30 33 N -2.889219 -3.865516 -3.873166 0
M  V30 34 C -0.862499 -2.634225 -3.585671 0
M  V30 35 C 0.551299 -2.837536 -3.126087 0
M  V30 36 N 2.121651 -5.508063 -1.039769 0
M  V30 37 H 3.912973 -7.775673 -0.370471 0
M  V30 38 H 2.601964 -7.420373 0.839561 0
M  V30 39 H 4.273110 -6.883883 1.146759 0
M  V30 40 H 5.775861 -2.165757 -1.295350 0
M  V30 41 H 4.553666 1.828062 1.043468 0
M  V30 42 H 2.924362 2.914372 2.299960 0
M  V30 43 H 1.165753 3.956545 3.783013 0
M  V30 44 H -1.053936 2.969030 5.797010 0
M  V30 45 H -3.113619 4.147986 5.383990 0
M  V30 46 H -5.189585 5.365385 5.352252 0
M  V30 47 H -7.053848 6.256475 4.137293 0
M  V30 48 H -7.272282 6.009694 1.681537 0
M  V30 49 H -5.510853 4.802863 0.426043 0
M  V30 50 H -3.654607 3.915462 1.644233 0
M  V30 51 H -0.903545 0.215132 3.880802 0
M  V30 52 H 0.820664 -0.752815 2.442759 0
M  V30 53 H 2.682354 -2.472077 -2.029809 0
M  V30 54 H -1.150531 -4.663957 -1.780205 0
M  V30 55 H -0.026123 -6.046483 -2.031845 0
M  V30 56 H -1.646342 -5.951402 -3.907594 0
M  V30 57 H -0.012616 -5.332040 -4.539011 0
M  V30 58 H -1.416837 -3.744357 -5.353666 0
M  V30 59 H -3.165765 -3.055048 -3.247881 0
M  V30 60 H -3.143035 -4.717085 -3.304421 0
M  V30 61 H -1.455983 -2.264636 -2.715908 0
M  V30 62 H -0.856905 -1.801286 -4.319476 0
M  V30 63 H 1.241938 -2.807744 -4.000690 0
M  V30 64 H 0.785593 -1.951554 -2.472581 0
M  V30 END ATOM
M  V30 BEGIN BOND
M  V30 1 1 1 2
M  V30 2 2 2 3
M  V30 3 1 3 4
M  V30 4 1 4 5
M  V30 5 1 5 6
M  V30 6 2 6 7
M  V30 7 1 7 8
M  V30 8 2 8 9
M  V30 9 1 9 10
M  V30 10 2 10 11
M  V30 11 1 11 12
M  V30 12 2 12 13
M  V30 13 1 13 14
M  V30 14 1 14 15
M  V30 15 2 15 16
M  V30 16 1 15 17
M  V30 17 1 17 18
M  V30 18 2 18 19
M  V30 19 1 19 20
M  V30 20 2 20 21
M  V30 21 1 21 22
M  V30 22 2 22 23
M  V30 23 1 13 24
M  V30 24 2 24 25
M  V30 25 1 9 26
M  V30 26 2 4 27
M  V30 27 1 27 28
M  V30 28 1 28 29
M  V30 29 1 29 30
M  V30 30 1 30 31
M  V30 31 1 31 32
M  V30 32 1 32 33
M  V30 33 1 32 34
M  V30 34 1 34 35
M  V30 35 2 28 36
M  V30 36 1 36 2
M  V30 37 1 26 6
M  V30 38 1 35 29
M  V30 39 1 25 10
M  V30 40 1 23 18
M  V30 41 1 1 37
M  V30 42 1 1 38
M  V30 43 1 1 39
M  V30 44 1 5 40
M  V30 45 1 8 41
M  V30 46 1 11 42
M  V30 47 1 12 43
M  V30 48 1 14 44
M  V30 49 1 17 45
M  V30 50 1 19 46
M  V30 51 1 20 47
M  V30 52 1 21 48
M  V30 53 1 22 49
M  V30 54 1 23 50
M  V30 55 1 24 51
M  V30 56 1 25 52
M  V30 57 1 27 53
M  V30 58 1 30 54
M  V30 59 1 30 55
M  V30 60 1 31 56
M  V30 61 1 31 57
M  V30 62 1 32 58
M  V30 63 1 33 59
M  V30 64 1 33 60
M  V30 65 1 34 61
M  V30 66 1 34 62
M  V30 67 1 35 63
M  V30 68 1 35 64
M  V30 END BOND
M  V30 END CTAB
M  END
>  <Dataset>  (972) 
ChEMBL_Kinases

>  <Ligand_Instance>  (972) 
nan

>  <PDB_ID>  (972) 
nan

>  <Standardized_SMILES>  (972) 
Cc1nc(Nc2ncc(-c3ccc(NC(=O)Nc4ccccc4)cc3)s2)cc(N2CCC(N)CC2)n1

>  <Name>  (972) 
nan

>  <Pocket>  (972) 
nan

>  <ATP_Site>  (972) 
nan

>  <Peripheral>  (972) 
nan

>  <Num_H_Atoms_ProtBoundConf>  (972) 
nan

>  <Num_Resolved_Atoms>  (972) 
nan

>  <Num_Not_Resolved_Atoms>  (972) 
nan

$$$$
CHEMBL3593285
     RDKit          3D

  0  0  0  0  0  0  0  0  0  0999 V3000
M  V30 BEGIN CTAB
M  V30 COUNTS 67 71 0 0 0
M  V30 BEGIN ATOM
M  V30 1 C 4.660716 -2.498035 4.703700 0
M  V30 2 C 3.307942 -1.801428 4.662087 0
M  V30 3 N 3.443938 -0.384348 4.897336 0
M  V30 4 C 2.103004 0.183896 4.901414 0
M  V30 5 C 2.148433 1.660594 4.551659 0
M  V30 6 N 2.607349 1.834662 3.176738 0
M  V30 7 C 2.249640 2.988171 2.432715 0
M  V30 8 C 2.400950 3.131464 1.074454 0
M  V30 9 C 1.993352 4.322837 0.481488 0
M  V30 10 N 2.138386 4.455495 -0.951030 0
M  V30 11 C 1.301462 3.615961 -1.795093 0
M  V30 12 N 1.010334 3.386999 -2.848599 0
M  V30 13 C 0.193443 2.501688 -3.384741 0
M  V30 14 C -0.413781 1.714949 -2.503046 0
M  V30 15 C -1.371751 0.592596 -2.544496 0
M  V30 16 C -1.910185 0.097436 -3.684408 0
M  V30 17 C -2.793626 -0.956768 -3.782933 0
M  V30 18 C -3.182933 -1.589970 -2.592784 0
M  V30 19 N -4.074834 -2.690137 -2.502718 0
M  V30 20 C -3.838859 -4.091266 -2.511112 0
M  V30 21 O -2.568602 -4.231214 -2.620071 0
M  V30 22 N -4.915292 -4.984302 -2.412114 0
M  V30 23 C -4.680103 -6.386166 -2.425532 0
M  V30 24 C -4.464745 -6.968180 -1.168072 0
M  V30 25 C -4.229824 -8.338404 -1.148061 0
M  V30 26 C -4.210588 -9.083225 -2.309708 0
M  V30 27 Cl -3.917356 -10.812609 -2.396246 0
M  V30 28 C -4.428625 -8.460925 -3.515834 0
M  V30 29 C -4.670691 -7.090224 -3.613004 0
M  V30 30 C -2.651197 -1.106631 -1.417886 0
M  V30 31 C -1.772867 -0.050143 -1.385573 0
M  V30 32 S 0.223267 2.295734 -0.963988 0
M  V30 33 N 1.458414 5.313420 1.255872 0
M  V30 34 C 1.312843 5.174932 2.572305 0
M  V30 35 C 0.743266 6.212342 3.466083 0
M  V30 36 N 1.720993 4.007471 3.092353 0
M  V30 37 C 3.424908 0.733670 2.711855 0
M  V30 38 C 4.272859 0.276512 3.896066 0
M  V30 39 H 5.296573 -2.121043 5.532450 0
M  V30 40 H 5.120152 -2.478768 3.719680 0
M  V30 41 H 4.464919 -3.573693 4.969364 0
M  V30 42 H 2.678127 -2.247575 5.431479 0
M  V30 43 H 2.876597 -1.925431 3.644308 0
M  V30 44 H 1.688621 0.100877 5.923687 0
M  V30 45 H 1.448652 -0.376618 4.216089 0
M  V30 46 H 2.749984 2.189503 5.289383 0
M  V30 47 H 1.088279 2.008568 4.557908 0
M  V30 48 H 2.834306 2.303075 0.527010 0
M  V30 49 H 2.732382 5.038513 -1.544912 0
M  V30 50 H -0.056807 2.317879 -4.440303 0
M  V30 51 H -1.637572 0.557940 -4.627612 0
M  V30 52 H -3.212038 -1.336441 -4.691181 0
M  V30 53 H -5.034354 -2.238141 -2.423450 0
M  V30 54 H -5.867269 -4.568437 -2.332028 0
M  V30 55 H -4.471904 -6.427440 -0.233949 0
M  V30 56 H -4.049167 -8.921086 -0.251480 0
M  V30 57 H -4.426431 -8.987015 -4.456059 0
M  V30 58 H -4.847919 -6.545633 -4.535665 0
M  V30 59 H -2.929449 -1.570495 -0.477878 0
M  V30 60 H -1.384293 0.289619 -0.424710 0
M  V30 61 H 0.760202 5.847252 4.507370 0
M  V30 62 H -0.325802 6.343756 3.174351 0
M  V30 63 H 1.230841 7.199966 3.348691 0
M  V30 64 H 2.805481 -0.147569 2.430297 0
M  V30 65 H 4.104717 1.007793 1.886317 0
M  V30 66 H 4.677309 1.184067 4.382820 0
M  V30 67 H 5.076986 -0.400488 3.603723 0
M  V30 END ATOM
M  V30 BEGIN BOND
M  V30 1 1 1 2
M  V30 2 1 2 3
M  V30 3 1 3 4
M  V30 4 1 4 5
M  V30 5 1 5 6
M  V30 6 1 6 7
M  V30 7 2 7 8
M  V30 8 1 8 9
M  V30 9 1 9 10
M  V30 10 1 10 11
M  V30 11 2 11 12
M  V30 12 1 12 13
M  V30 13 2 13 14
M  V30 14 1 14 15
M  V30 15 2 15 16
M  V30 16 1 16 17
M  V30 17 2 17 18
M  V30 18 1 18 19
M  V30 19 1 19 20
M  V30 20 2 20 21
M  V30 21 1 20 22
M  V30 22 1 22 23
M  V30 23 2 23 24
M  V30 24 1 24 25
M  V30 25 2 25 26
M  V30 26 1 26 27
M  V30 27 1 26 28
M  V30 28 2 28 29
M  V30 29 1 18 30
M  V30 30 2 30 31
M  V30 31 1 14 32
M  V30 32 2 9 33
M  V30 33 1 33 34
M  V30 34 1 34 35
M  V30 35 2 34 36
M  V30 36 1 6 37
M  V30 37 1 37 38
M  V30 38 1 38 3
M  V30 39 1 36 7
M  V30 40 1 32 11
M  V30 41 1 31 15
M  V30 42 1 29 23
M  V30 43 1 1 39
M  V30 44 1 1 40
M  V30 45 1 1 41
M  V30 46 1 2 42
M  V30 47 1 2 43
M  V30 48 1 4 44
M  V30 49 1 4 45
M  V30 50 1 5 46
M  V30 51 1 5 47
M  V30 52 1 8 48
M  V30 53 1 10 49
M  V30 54 1 13 50
M  V30 55 1 16 51
M  V30 56 1 17 52
M  V30 57 1 19 53
M  V30 58 1 22 54
M  V30 59 1 24 55
M  V30 60 1 25 56
M  V30 61 1 28 57
M  V30 62 1 29 58
M  V30 63 1 30 59
M  V30 64 1 31 60
M  V30 65 1 35 61
M  V30 66 1 35 62
M  V30 67 1 35 63
M  V30 68 1 37 64
M  V30 69 1 37 65
M  V30 70 1 38 66
M  V30 71 1 38 67
M  V30 END BOND
M  V30 END CTAB
M  END
>  <Dataset>  (973) 
ChEMBL_Kinases

>  <Ligand_Instance>  (973) 
nan

>  <PDB_ID>  (973) 
nan

>  <Standardized_SMILES>  (973) 
CCN1CCN(c2cc(Nc3ncc(-c4ccc(NC(=O)Nc5ccc(Cl)cc5)cc4)s3)nc(C)n2)CC1

>  <Name>  (973) 
nan

>  <Pocket>  (973) 
nan

>  <ATP_Site>  (973) 
nan

>  <Peripheral>  (973) 
nan

>  <Num_H_Atoms_ProtBoundConf>  (973) 
nan

>  <Num_Resolved_Atoms>  (973) 
nan

>  <Num_Not_Resolved_Atoms>  (973) 
nan

$$$$
CHEMBL3593286
     RDKit          3D

  0  0  0  0  0  0  0  0  0  0999 V3000
M  V30 BEGIN CTAB
M  V30 COUNTS 61 65 0 0 0
M  V30 BEGIN ATOM
M  V30 1 C 3.853253 -5.665318 3.702315 0
M  V30 2 C 3.595830 -5.314460 2.281910 0
M  V30 3 N 4.274350 -4.316748 1.675281 0
M  V30 4 C 4.048377 -3.989117 0.383640 0
M  V30 5 N 4.816923 -2.910532 -0.187508 0
M  V30 6 C 4.068231 -1.710090 0.054291 0
M  V30 7 N 4.055385 -0.964571 0.891648 0
M  V30 8 C 3.369269 0.132747 1.110470 0
M  V30 9 C 2.505000 0.428688 0.137546 0
M  V30 10 C 1.548091 1.603160 0.034444 0
M  V30 11 C 1.560090 2.501367 1.082426 0
M  V30 12 C 0.674089 3.550275 0.944224 0
M  V30 13 C -0.144848 3.668809 -0.159225 0
M  V30 14 N -1.069877 4.748202 -0.321364 0
M  V30 15 C -2.349581 4.460144 0.229801 0
M  V30 16 O -2.758054 3.424923 0.816650 0
M  V30 17 N -3.374989 5.452324 0.138601 0
M  V30 18 C -4.715937 5.461565 0.580744 0
M  V30 19 C -5.833162 5.042683 -0.129480 0
M  V30 20 C -7.092768 5.104396 0.418999 0
M  V30 21 C -7.269039 5.590560 1.702308 0
M  V30 22 C -6.172415 6.011491 2.424218 0
M  V30 23 Cl -6.525518 6.603958 4.030832 0
M  V30 24 C -4.903017 5.944232 1.858708 0
M  V30 25 C -0.109661 2.734041 -1.177720 0
M  V30 26 C 0.763091 1.652568 -1.096916 0
M  V30 27 S 2.722630 -0.895240 -1.053512 0
M  V30 28 C 3.106129 -4.666785 -0.376009 0
M  V30 29 C 2.441294 -5.666845 0.269225 0
M  V30 30 N 1.454634 -6.426379 -0.415357 0
M  V30 31 C 1.038416 -6.273013 -1.793650 0
M  V30 32 C -0.462567 -6.100722 -1.878270 0
M  V30 33 N -1.079359 -6.001608 -0.577610 0
M  V30 34 C -0.716808 -7.018464 0.351238 0
M  V30 35 C 0.702858 -7.501447 0.204075 0
M  V30 36 N 2.664391 -5.991990 1.548215 0
M  V30 37 H 3.481298 -6.694817 3.901299 0
M  V30 38 H 4.920923 -5.546692 3.991284 0
M  V30 39 H 3.193760 -4.991532 4.305798 0
M  V30 40 H 5.705289 -2.743419 -0.696803 0
M  V30 41 H 3.479668 0.763464 2.003236 0
M  V30 42 H 2.217847 2.364273 1.920628 0
M  V30 43 H 0.634862 4.288803 1.731506 0
M  V30 44 H -0.934149 5.678956 -0.771937 0
M  V30 45 H -3.251773 6.393692 -0.312558 0
M  V30 46 H -5.610538 4.674239 -1.129360 0
M  V30 47 H -7.861488 4.738330 -0.266399 0
M  V30 48 H -8.304500 5.597996 2.043466 0
M  V30 49 H -4.149238 6.316163 2.563697 0
M  V30 50 H -0.744334 2.807994 -2.053386 0
M  V30 51 H 0.859201 0.874672 -1.843231 0
M  V30 52 H 2.952503 -4.385559 -1.386694 0
M  V30 53 H 1.241380 -7.271556 -2.281864 0
M  V30 54 H 1.612130 -5.555830 -2.377208 0
M  V30 55 H -0.969142 -6.871979 -2.469199 0
M  V30 56 H -0.623306 -5.129989 -2.394329 0
M  V30 57 H -1.056517 -5.037347 -0.188978 0
M  V30 58 H -0.812743 -6.611847 1.391685 0
M  V30 59 H -1.454308 -7.839517 0.296047 0
M  V30 60 H 1.108549 -7.775388 1.197943 0
M  V30 61 H 0.652082 -8.406528 -0.444398 0
M  V30 END ATOM
M  V30 BEGIN BOND
M  V30 1 1 1 2
M  V30 2 2 2 3
M  V30 3 1 3 4
M  V30 4 1 4 5
M  V30 5 1 5 6
M  V30 6 2 6 7
M  V30 7 1 7 8
M  V30 8 2 8 9
M  V30 9 1 9 10
M  V30 10 2 10 11
M  V30 11 1 11 12
M  V30 12 2 12 13
M  V30 13 1 13 14
M  V30 14 1 14 15
M  V30 15 2 15 16
M  V30 16 1 15 17
M  V30 17 1 17 18
M  V30 18 2 18 19
M  V30 19 1 19 20
M  V30 20 2 20 21
M  V30 21 1 21 22
M  V30 22 1 22 23
M  V30 23 2 22 24
M  V30 24 1 13 25
M  V30 25 2 25 26
M  V30 26 1 9 27
M  V30 27 2 4 28
M  V30 28 1 28 29
M  V30 29 1 29 30
M  V30 30 1 30 31
M  V30 31 1 31 32
M  V30 32 1 32 33
M  V30 33 1 33 34
M  V30 34 1 34 35
M  V30 35 2 29 36
M  V30 36 1 36 2
M  V30 37 1 27 6
M  V30 38 1 35 30
M  V30 39 1 26 10
M  V30 40 1 24 18
M  V30 41 1 1 37
M  V30 42 1 1 38
M  V30 43 1 1 39
M  V30 44 1 5 40
M  V30 45 1 8 41
M  V30 46 1 11 42
M  V30 47 1 12 43
M  V30 48 1 14 44
M  V30 49 1 17 45
M  V30 50 1 19 46
M  V30 51 1 20 47
M  V30 52 1 21 48
M  V30 53 1 24 49
M  V30 54 1 25 50
M  V30 55 1 26 51
M  V30 56 1 28 52
M  V30 57 1 31 53
M  V30 58 1 31 54
M  V30 59 1 32 55
M  V30 60 1 32 56
M  V30 61 1 33 57
M  V30 62 1 34 58
M  V30 63 1 34 59
M  V30 64 1 35 60
M  V30 65 1 35 61
M  V30 END BOND
M  V30 END CTAB
M  END
>  <Dataset>  (974) 
ChEMBL_Kinases

>  <Ligand_Instance>  (974) 
nan

>  <PDB_ID>  (974) 
nan

>  <Standardized_SMILES>  (974) 
Cc1nc(Nc2ncc(-c3ccc(NC(=O)Nc4cccc(Cl)c4)cc3)s2)cc(N2CCNCC2)n1

>  <Name>  (974) 
nan

>  <Pocket>  (974) 
nan

>  <ATP_Site>  (974) 
nan

>  <Peripheral>  (974) 
nan

>  <Num_H_Atoms_ProtBoundConf>  (974) 
nan

>  <Num_Resolved_Atoms>  (974) 
nan

>  <Num_Not_Resolved_Atoms>  (974) 
nan

$$$$
CHEMBL3593287
     RDKit          3D

  0  0  0  0  0  0  0  0  0  0999 V3000
M  V30 BEGIN CTAB
M  V30 COUNTS 63 67 0 0 0
M  V30 BEGIN ATOM
M  V30 1 C -0.209316 -6.334286 1.980722 0
M  V30 2 C 0.490538 -5.818202 0.765812 0
M  V30 3 N 1.621130 -5.134354 0.874400 0
M  V30 4 C 2.317509 -4.630778 -0.175318 0
M  V30 5 N 3.513864 -3.920183 0.141884 0
M  V30 6 C 3.542576 -2.505138 0.480704 0
M  V30 7 N 4.190241 -1.635572 0.758930 0
M  V30 8 C 3.916805 -0.385226 1.034664 0
M  V30 9 C 2.634354 -0.054573 0.982435 0
M  V30 10 C 1.839628 1.198663 1.213914 0
M  V30 11 C 2.480321 2.365165 1.562537 0
M  V30 12 C 1.714711 3.490486 1.774112 0
M  V30 13 C 0.342618 3.476546 1.647082 0
M  V30 14 N -0.562661 4.529331 1.832593 0
M  V30 15 C -1.211486 4.880524 3.052670 0
M  V30 16 O -1.049853 4.278640 4.143050 0
M  V30 17 N -2.090942 6.002209 2.951808 0
M  V30 18 C -2.825295 6.484573 4.073038 0
M  V30 19 C -2.772476 7.364272 5.133497 0
M  V30 20 C -3.972227 7.242307 5.824482 0
M  V30 21 C -4.127649 8.110039 7.014963 0
M  V30 22 O -4.687417 6.328195 5.187344 0
M  V30 23 N -4.044155 5.872852 4.167075 0
M  V30 24 C -0.271161 2.275832 1.292116 0
M  V30 25 C 0.469527 1.131989 1.073629 0
M  V30 26 S 1.867267 -1.624275 0.521007 0
M  V30 27 C 1.837473 -4.830699 -1.452319 0
M  V30 28 C 0.661445 -5.541890 -1.569292 0
M  V30 29 N 0.112980 -5.791140 -2.856721 0
M  V30 30 C 0.771579 -5.447095 -4.081061 0
M  V30 31 C -0.197224 -5.361406 -5.239692 0
M  V30 32 N -1.459918 -4.772856 -4.840268 0
M  V30 33 C -1.272074 -3.463295 -4.247090 0
M  V30 34 C -2.122778 -5.641562 -3.888119 0
M  V30 35 C -1.181189 -6.420446 -3.016701 0
M  V30 36 N 0.003116 -6.024194 -0.488228 0
M  V30 37 H 0.069393 -7.383316 2.202372 0
M  V30 38 H -1.285572 -6.159443 1.958602 0
M  V30 39 H 0.176397 -5.741059 2.859574 0
M  V30 40 H 4.467550 -4.290621 0.172854 0
M  V30 41 H 4.641035 0.379549 1.295432 0
M  V30 42 H 3.537445 2.354576 1.655484 0
M  V30 43 H 2.148190 4.433521 2.047856 0
M  V30 44 H -0.668629 4.997171 0.921270 0
M  V30 45 H -2.238305 6.517460 2.051012 0
M  V30 46 H -1.839742 7.912714 5.162761 0
M  V30 47 H -3.887518 9.178734 6.777969 0
M  V30 48 H -5.211952 8.141791 7.326589 0
M  V30 49 H -3.557009 7.807598 7.890769 0
M  V30 50 H -1.353597 2.155777 1.164405 0
M  V30 51 H -0.018669 0.194643 0.795612 0
M  V30 52 H 2.399227 -4.426467 -2.281670 0
M  V30 53 H 1.442295 -6.323984 -4.318448 0
M  V30 54 H 1.414029 -4.566352 -4.054783 0
M  V30 55 H 0.225735 -4.730675 -6.045900 0
M  V30 56 H -0.397322 -6.356352 -5.672014 0
M  V30 57 H -0.477056 -2.918981 -4.798280 0
M  V30 58 H -2.210861 -2.894138 -4.370744 0
M  V30 59 H -1.078960 -3.539187 -3.155364 0
M  V30 60 H -2.816205 -5.032419 -3.273424 0
M  V30 61 H -2.755434 -6.346842 -4.467437 0
M  V30 62 H -1.041434 -7.422461 -3.471369 0
M  V30 63 H -1.608353 -6.568258 -1.982499 0
M  V30 END ATOM
M  V30 BEGIN BOND
M  V30 1 1 1 2
M  V30 2 2 2 3
M  V30 3 1 3 4
M  V30 4 1 4 5
M  V30 5 1 5 6
M  V30 6 2 6 7
M  V30 7 1 7 8
M  V30 8 2 8 9
M  V30 9 1 9 10
M  V30 10 2 10 11
M  V30 11 1 11 12
M  V30 12 2 12 13
M  V30 13 1 13 14
M  V30 14 1 14 15
M  V30 15 2 15 16
M  V30 16 1 15 17
M  V30 17 1 17 18
M  V30 18 1 18 19
M  V30 19 2 19 20
M  V30 20 1 20 21
M  V30 21 1 20 22
M  V30 22 1 22 23
M  V30 23 1 13 24
M  V30 24 2 24 25
M  V30 25 1 9 26
M  V30 26 2 4 27
M  V30 27 1 27 28
M  V30 28 1 28 29
M  V30 29 1 29 30
M  V30 30 1 30 31
M  V30 31 1 31 32
M  V30 32 1 32 33
M  V30 33 1 32 34
M  V30 34 1 34 35
M  V30 35 2 28 36
M  V30 36 1 36 2
M  V30 37 1 26 6
M  V30 38 1 35 29
M  V30 39 1 25 10
M  V30 40 2 23 18
M  V30 41 1 1 37
M  V30 42 1 1 38
M  V30 43 1 1 39
M  V30 44 1 5 40
M  V30 45 1 8 41
M  V30 46 1 11 42
M  V30 47 1 12 43
M  V30 48 1 14 44
M  V30 49 1 17 45
M  V30 50 1 19 46
M  V30 51 1 21 47
M  V30 52 1 21 48
M  V30 53 1 21 49
M  V30 54 1 24 50
M  V30 55 1 25 51
M  V30 56 1 27 52
M  V30 57 1 30 53
M  V30 58 1 30 54
M  V30 59 1 31 55
M  V30 60 1 31 56
M  V30 61 1 33 57
M  V30 62 1 33 58
M  V30 63 1 33 59
M  V30 64 1 34 60
M  V30 65 1 34 61
M  V30 66 1 35 62
M  V30 67 1 35 63
M  V30 END BOND
M  V30 END CTAB
M  END
>  <Dataset>  (975) 
ChEMBL_Kinases

>  <Ligand_Instance>  (975) 
nan

>  <PDB_ID>  (975) 
nan

>  <Standardized_SMILES>  (975) 
Cc1nc(Nc2ncc(-c3ccc(NC(=O)Nc4cc(C)on4)cc3)s2)cc(N2CCN(C)CC2)n1

>  <Name>  (975) 
nan

>  <Pocket>  (975) 
nan

>  <ATP_Site>  (975) 
nan

>  <Peripheral>  (975) 
nan

>  <Num_H_Atoms_ProtBoundConf>  (975) 
nan

>  <Num_Resolved_Atoms>  (975) 
nan

>  <Num_Not_Resolved_Atoms>  (975) 
nan

$$$$
CHEMBL3593288
     RDKit          3D

  0  0  0  0  0  0  0  0  0  0999 V3000
M  V30 BEGIN CTAB
M  V30 COUNTS 66 70 0 0 0
M  V30 BEGIN ATOM
M  V30 1 C 4.091952 -2.361839 7.443766 0
M  V30 2 C 4.245515 -3.477597 6.409622 0
M  V30 3 C 4.767297 -2.906779 5.137645 0
M  V30 4 C 5.074495 -1.573520 4.880002 0
M  V30 5 C 5.513313 -1.582051 3.564488 0
M  V30 6 N 5.921815 -0.360064 2.910053 0
M  V30 7 C 4.961898 0.408921 2.195908 0
M  V30 8 O 3.772502 -0.055790 2.186649 0
M  V30 9 N 5.017040 1.623969 1.459217 0
M  V30 10 C 3.709001 1.947346 0.930242 0
M  V30 11 C 2.933164 2.725762 1.759806 0
M  V30 12 C 1.661042 3.079189 1.368354 0
M  V30 13 C 1.258257 2.600559 0.122617 0
M  V30 14 C -0.080391 2.919411 -0.383382 0
M  V30 15 C -1.155642 3.649413 0.042061 0
M  V30 16 N -2.220794 3.689628 -0.731515 0
M  V30 17 C -2.424000 3.206019 -1.735598 0
M  V30 18 N -3.158657 2.843181 -2.970245 0
M  V30 19 C -3.996538 1.772177 -2.530908 0
M  V30 20 C -3.442311 0.519336 -2.381668 0
M  V30 21 C -4.115238 -0.597808 -1.964309 0
M  V30 22 N -3.449268 -1.862550 -1.829142 0
M  V30 23 C -4.124293 -3.008244 -1.298180 0
M  V30 24 C -3.831451 -4.262415 -2.095405 0
M  V30 25 N -2.454222 -4.349285 -2.471993 0
M  V30 26 C -1.905743 -5.666708 -2.306946 0
M  V30 27 C -1.605389 -3.356033 -1.869151 0
M  V30 28 C -2.065371 -1.954483 -2.237830 0
M  V30 29 N -5.415182 -0.415669 -1.689519 0
M  V30 30 C -6.016264 0.790882 -1.817495 0
M  V30 31 C -7.462056 0.932509 -1.498668 0
M  V30 32 N -5.304354 1.872081 -2.235952 0
M  V30 33 S -0.768115 2.293580 -2.019174 0
M  V30 34 C 2.037597 1.821089 -0.708444 0
M  V30 35 C 3.310482 1.476125 -0.299710 0
M  V30 36 N 5.455625 -2.853753 3.109681 0
M  V30 37 O 5.009512 -3.629665 4.057553 0
M  V30 38 H 3.656732 -1.463425 6.922131 0
M  V30 39 H 3.480869 -2.716753 8.268715 0
M  V30 40 H 5.122257 -2.049509 7.741794 0
M  V30 41 H 4.981820 -4.171707 6.856037 0
M  V30 42 H 3.246456 -3.959010 6.289341 0
M  V30 43 H 4.986191 -0.714174 5.565316 0
M  V30 44 H 6.857956 0.134266 2.838429 0
M  V30 45 H 6.014282 2.003135 1.480240 0
M  V30 46 H 3.230543 3.101043 2.722242 0
M  V30 47 H 0.922445 3.672866 1.880525 0
M  V30 48 H -1.106348 4.168050 0.985447 0
M  V30 49 H -3.061220 3.286756 -3.914145 0
M  V30 50 H -2.382092 0.403292 -2.613547 0
M  V30 51 H -3.657703 -3.192001 -0.282583 0
M  V30 52 H -5.198903 -2.864786 -1.151067 0
M  V30 53 H -4.135429 -5.178725 -1.514789 0
M  V30 54 H -4.494938 -4.272136 -2.987645 0
M  V30 55 H -0.867817 -5.573700 -1.946648 0
M  V30 56 H -1.925850 -6.163074 -3.316176 0
M  V30 57 H -2.459652 -6.312829 -1.601678 0
M  V30 58 H -1.576249 -3.485646 -0.758462 0
M  V30 59 H -0.588252 -3.484955 -2.279304 0
M  V30 60 H -1.479702 -1.221877 -1.611892 0
M  V30 61 H -1.905006 -1.787661 -3.309717 0
M  V30 62 H -8.092410 0.268561 -2.138398 0
M  V30 63 H -7.659893 0.769315 -0.424909 0
M  V30 64 H -7.766547 1.994344 -1.718706 0
M  V30 65 H 1.703594 1.471549 -1.655350 0
M  V30 66 H 3.966418 0.867564 -0.910394 0
M  V30 END ATOM
M  V30 BEGIN BOND
M  V30 1 1 1 2
M  V30 2 1 2 3
M  V30 3 2 3 4
M  V30 4 1 4 5
M  V30 5 1 5 6
M  V30 6 1 6 7
M  V30 7 2 7 8
M  V30 8 1 7 9
M  V30 9 1 9 10
M  V30 10 2 10 11
M  V30 11 1 11 12
M  V30 12 2 12 13
M  V30 13 1 13 14
M  V30 14 2 14 15
M  V30 15 1 15 16
M  V30 16 2 16 17
M  V30 17 1 17 18
M  V30 18 1 18 19
M  V30 19 2 19 20
M  V30 20 1 20 21
M  V30 21 1 21 22
M  V30 22 1 22 23
M  V30 23 1 23 24
M  V30 24 1 24 25
M  V30 25 1 25 26
M  V30 26 1 25 27
M  V30 27 1 27 28
M  V30 28 2 21 29
M  V30 29 1 29 30
M  V30 30 1 30 31
M  V30 31 2 30 32
M  V30 32 1 17 33
M  V30 33 1 13 34
M  V30 34 2 34 35
M  V30 35 2 5 36
M  V30 36 1 36 37
M  V30 37 1 37 3
M  V30 38 1 35 10
M  V30 39 1 33 14
M  V30 40 1 32 19
M  V30 41 1 28 22
M  V30 42 1 1 38
M  V30 43 1 1 39
M  V30 44 1 1 40
M  V30 45 1 2 41
M  V30 46 1 2 42
M  V30 47 1 4 43
M  V30 48 1 6 44
M  V30 49 1 9 45
M  V30 50 1 11 46
M  V30 51 1 12 47
M  V30 52 1 15 48
M  V30 53 1 18 49
M  V30 54 1 20 50
M  V30 55 1 23 51
M  V30 56 1 23 52
M  V30 57 1 24 53
M  V30 58 1 24 54
M  V30 59 1 26 55
M  V30 60 1 26 56
M  V30 61 1 26 57
M  V30 62 1 27 58
M  V30 63 1 27 59
M  V30 64 1 28 60
M  V30 65 1 28 61
M  V30 66 1 31 62
M  V30 67 1 31 63
M  V30 68 1 31 64
M  V30 69 1 34 65
M  V30 70 1 35 66
M  V30 END BOND
M  V30 END CTAB
M  END
>  <Dataset>  (976) 
ChEMBL_Kinases

>  <Ligand_Instance>  (976) 
nan

>  <PDB_ID>  (976) 
nan

>  <Standardized_SMILES>  (976) 
CCc1cc(NC(=O)Nc2ccc(-c3cnc(Nc4cc(N5CCN(C)CC5)nc(C)n4)s3)cc2)no1

>  <Name>  (976) 
nan

>  <Pocket>  (976) 
nan

>  <ATP_Site>  (976) 
nan

>  <Peripheral>  (976) 
nan

>  <Num_H_Atoms_ProtBoundConf>  (976) 
nan

>  <Num_Resolved_Atoms>  (976) 
nan

>  <Num_Not_Resolved_Atoms>  (976) 
nan

$$$$
CHEMBL3593289
     RDKit          3D

  0  0  0  0  0  0  0  0  0  0999 V3000
M  V30 BEGIN CTAB
M  V30 COUNTS 72 76 0 0 0
M  V30 BEGIN ATOM
M  V30 1 C 7.582247 -0.190071 6.573014 0
M  V30 2 C 6.877483 -0.168161 7.877415 0
M  V30 3 C 5.498066 0.362084 7.853317 0
M  V30 4 C 5.270784 1.745977 7.414956 0
M  V30 5 C 5.447538 2.147429 6.044796 0
M  V30 6 C 5.732724 1.777849 4.749441 0
M  V30 7 C 5.720841 2.806660 3.841973 0
M  V30 8 N 5.991143 2.619880 2.458511 0
M  V30 9 C 4.949306 2.327210 1.530905 0
M  V30 10 O 3.781551 2.258440 2.042434 0
M  V30 11 N 5.023756 2.101404 0.126306 0
M  V30 12 C 3.722684 1.836313 -0.437716 0
M  V30 13 C 2.914266 2.827665 -0.929093 0
M  V30 14 C 1.692729 2.420678 -1.426664 0
M  V30 15 C 1.347368 1.085338 -1.410388 0
M  V30 16 C 0.042361 0.652514 -1.935169 0
M  V30 17 C -0.563521 -0.519617 -2.043616 0
M  V30 18 N -1.768412 -0.574224 -2.569666 0
M  V30 19 C -2.393293 0.295420 -2.965725 0
M  V30 20 N -3.662940 0.810510 -3.593109 0
M  V30 21 C -4.657879 -0.157453 -3.867508 0
M  V30 22 C -4.528561 -1.504717 -3.607562 0
M  V30 23 C -5.531829 -2.404839 -3.889782 0
M  V30 24 N -5.447661 -3.801969 -3.643259 0
M  V30 25 C -6.530931 -4.700281 -3.879878 0
M  V30 26 C -6.886193 -5.390317 -2.597822 0
M  V30 27 N -5.988162 -5.282008 -1.530567 0
M  V30 28 C -6.507624 -5.100726 -0.217907 0
M  V30 29 C -4.637111 -4.983147 -1.752921 0
M  V30 30 C -4.300104 -4.498528 -3.137455 0
M  V30 31 N -6.680841 -1.936483 -4.441685 0
M  V30 32 C -6.835408 -0.618326 -4.707218 0
M  V30 33 C -8.097721 -0.100928 -5.314500 0
M  V30 34 N -5.821481 0.207686 -4.409641 0
M  V30 35 S -1.193784 1.728510 -2.629927 0
M  V30 36 C 2.136937 0.092698 -0.927894 0
M  V30 37 C 3.372999 0.505112 -0.424268 0
M  V30 38 N 5.413162 3.818336 4.656611 0
M  V30 39 O 5.261207 3.453374 5.876620 0
M  V30 40 H 7.851708 0.828615 6.294621 0
M  V30 41 H 8.594468 -0.696750 6.728385 0
M  V30 42 H 7.015083 -0.769662 5.823962 0
M  V30 43 H 6.906127 -1.234821 8.264588 0
M  V30 44 H 7.515813 0.425564 8.606459 0
M  V30 45 H 5.125531 0.299857 8.936049 0
M  V30 46 H 4.790302 -0.371600 7.348770 0
M  V30 47 H 4.222902 2.091385 7.764342 0
M  V30 48 H 5.948223 2.399259 8.071421 0
M  V30 49 H 5.918871 0.757681 4.526003 0
M  V30 50 H 6.911899 2.660011 1.958456 0
M  V30 51 H 6.018282 2.173537 -0.232615 0
M  V30 52 H 3.248545 3.846455 -0.910208 0
M  V30 53 H 1.024932 3.193245 -1.826707 0
M  V30 54 H -0.087023 -1.454256 -1.704180 0
M  V30 55 H -3.854268 1.795426 -3.831940 0
M  V30 56 H -3.628881 -1.882709 -3.173250 0
M  V30 57 H -7.416905 -4.214259 -4.360974 0
M  V30 58 H -6.198148 -5.459045 -4.620019 0
M  V30 59 H -7.103184 -6.480036 -2.782231 0
M  V30 60 H -7.877234 -4.958619 -2.273543 0
M  V30 61 H -7.536450 -4.717905 -0.150256 0
M  V30 62 H -6.486422 -6.115902 0.270686 0
M  V30 63 H -5.798328 -4.498551 0.395131 0
M  V30 64 H -4.295977 -4.159906 -1.060498 0
M  V30 65 H -3.987945 -5.849646 -1.519825 0
M  V30 66 H -3.366647 -3.897048 -3.171518 0
M  V30 67 H -4.082968 -5.381760 -3.798474 0
M  V30 68 H -8.858780 0.107912 -4.547528 0
M  V30 69 H -7.853141 0.805696 -5.932591 0
M  V30 70 H -8.445993 -0.875813 -6.046557 0
M  V30 71 H 1.893770 -0.952366 -0.902951 0
M  V30 72 H 4.028405 -0.281414 -0.027729 0
M  V30 END ATOM
M  V30 BEGIN BOND
M  V30 1 1 1 2
M  V30 2 1 2 3
M  V30 3 1 3 4
M  V30 4 1 4 5
M  V30 5 2 5 6
M  V30 6 1 6 7
M  V30 7 1 7 8
M  V30 8 1 8 9
M  V30 9 2 9 10
M  V30 10 1 9 11
M  V30 11 1 11 12
M  V30 12 2 12 13
M  V30 13 1 13 14
M  V30 14 2 14 15
M  V30 15 1 15 16
M  V30 16 2 16 17
M  V30 17 1 17 18
M  V30 18 2 18 19
M  V30 19 1 19 20
M  V30 20 1 20 21
M  V30 21 2 21 22
M  V30 22 1 22 23
M  V30 23 1 23 24
M  V30 24 1 24 25
M  V30 25 1 25 26
M  V30 26 1 26 27
M  V30 27 1 27 28
M  V30 28 1 27 29
M  V30 29 1 29 30
M  V30 30 2 23 31
M  V30 31 1 31 32
M  V30 32 1 32 33
M  V30 33 2 32 34
M  V30 34 1 19 35
M  V30 35 1 15 36
M  V30 36 2 36 37
M  V30 37 2 7 38
M  V30 38 1 38 39
M  V30 39 1 39 5
M  V30 40 1 37 12
M  V30 41 1 35 16
M  V30 42 1 34 21
M  V30 43 1 30 24
M  V30 44 1 1 40
M  V30 45 1 1 41
M  V30 46 1 1 42
M  V30 47 1 2 43
M  V30 48 1 2 44
M  V30 49 1 3 45
M  V30 50 1 3 46
M  V30 51 1 4 47
M  V30 52 1 4 48
M  V30 53 1 6 49
M  V30 54 1 8 50
M  V30 55 1 11 51
M  V30 56 1 13 52
M  V30 57 1 14 53
M  V30 58 1 17 54
M  V30 59 1 20 55
M  V30 60 1 22 56
M  V30 61 1 25 57
M  V30 62 1 25 58
M  V30 63 1 26 59
M  V30 64 1 26 60
M  V30 65 1 28 61
M  V30 66 1 28 62
M  V30 67 1 28 63
M  V30 68 1 29 64
M  V30 69 1 29 65
M  V30 70 1 30 66
M  V30 71 1 30 67
M  V30 72 1 33 68
M  V30 73 1 33 69
M  V30 74 1 33 70
M  V30 75 1 36 71
M  V30 76 1 37 72
M  V30 END BOND
M  V30 END CTAB
M  END
>  <Dataset>  (977) 
ChEMBL_Kinases

>  <Ligand_Instance>  (977) 
nan

>  <PDB_ID>  (977) 
nan

>  <Standardized_SMILES>  (977) 
CCCCc1cc(NC(=O)Nc2ccc(-c3cnc(Nc4cc(N5CCN(C)CC5)nc(C)n4)s3)cc2)no1

>  <Name>  (977) 
nan

>  <Pocket>  (977) 
nan

>  <ATP_Site>  (977) 
nan

>  <Peripheral>  (977) 
nan

>  <Num_H_Atoms_ProtBoundConf>  (977) 
nan

>  <Num_Resolved_Atoms>  (977) 
nan

>  <Num_Not_Resolved_Atoms>  (977) 
nan

$$$$
CHEMBL3590142
     RDKit          3D

  0  0  0  0  0  0  0  0  0  0999 V3000
M  V30 BEGIN CTAB
M  V30 COUNTS 31 33 0 0 0
M  V30 BEGIN ATOM
M  V30 1 N -1.328298 -7.175671 3.001652 0
M  V30 2 C -1.130059 -6.093175 2.644704 0
M  V30 3 C -0.877878 -4.757329 2.201217 0
M  V30 4 C 0.443207 -4.373384 2.160498 0
M  V30 5 C 0.639400 -3.054611 1.717290 0
M  V30 6 C -0.441629 -2.232127 1.356495 0
M  V30 7 N 0.016252 -1.020431 0.910891 0
M  V30 8 C 0.470559 0.184893 0.469255 0
M  V30 9 C 1.446593 -0.171868 -0.483777 0
M  V30 10 C 2.190474 0.765583 -1.221405 0
M  V30 11 C 1.884822 2.077051 -0.934022 0
M  V30 12 N 2.330123 3.262694 -1.379257 0
M  V30 13 C 1.687806 4.262794 -0.759032 0
M  V30 14 O 1.874937 5.493488 -0.951562 0
M  V30 15 N 0.800706 3.776513 0.112038 0
M  V30 16 C 0.938758 2.447436 -0.011767 0
M  V30 17 C 0.228064 1.506321 0.693504 0
M  V30 18 C -1.743554 -2.738006 1.441783 0
M  V30 19 N -2.744044 -1.804627 1.046807 0 CHG=1 VAL=4
M  V30 20 O -2.542759 -0.940744 0.176063 0
M  V30 21 O -3.919852 -2.008186 1.755028 0 CHG=-1 VAL=1
M  V30 22 C -1.993626 -4.023916 1.869403 0
M  V30 23 H 1.240599 -5.039292 2.446410 0
M  V30 24 H 1.695945 -2.770093 1.693180 0
M  V30 25 H -0.465365 -0.607072 1.778658 0
M  V30 26 H 1.814171 -1.161208 -0.833190 0
M  V30 27 H 2.945055 0.644557 -1.961289 0
M  V30 28 H 3.073467 3.415386 -2.107249 0
M  V30 29 H 0.166283 4.323599 0.728464 0
M  V30 30 H -0.534022 1.649650 1.439987 0
M  V30 31 H -3.011499 -4.362540 1.914688 0
M  V30 END ATOM
M  V30 BEGIN BOND
M  V30 1 3 1 2
M  V30 2 1 2 3
M  V30 3 2 3 4
M  V30 4 1 4 5
M  V30 5 2 5 6
M  V30 6 1 6 7
M  V30 7 1 7 8
M  V30 8 2 8 9
M  V30 9 1 9 10
M  V30 10 2 10 11
M  V30 11 1 11 12
M  V30 12 1 12 13
M  V30 13 2 13 14
M  V30 14 1 13 15
M  V30 15 1 15 16
M  V30 16 2 16 17
M  V30 17 1 6 18
M  V30 18 1 18 19
M  V30 19 2 19 20
M  V30 20 1 19 21
M  V30 21 2 18 22
M  V30 22 1 22 3
M  V30 23 1 17 8
M  V30 24 1 16 11
M  V30 25 1 4 23
M  V30 26 1 5 24
M  V30 27 1 7 25
M  V30 28 1 9 26
M  V30 29 1 10 27
M  V30 30 1 12 28
M  V30 31 1 15 29
M  V30 32 1 17 30
M  V30 33 1 22 31
M  V30 END BOND
M  V30 END CTAB
M  END
>  <Dataset>  (978) 
ChEMBL_Kinases

>  <Ligand_Instance>  (978) 
nan

>  <PDB_ID>  (978) 
nan

>  <Standardized_SMILES>  (978) 
N#Cc1ccc(Nc2ccc3[nH]c(=O)[nH]c3c2)c([N+](=O)[O-])c1

>  <Name>  (978) 
nan

>  <Pocket>  (978) 
nan

>  <ATP_Site>  (978) 
nan

>  <Peripheral>  (978) 
nan

>  <Num_H_Atoms_ProtBoundConf>  (978) 
nan

>  <Num_Resolved_Atoms>  (978) 
nan

>  <Num_Not_Resolved_Atoms>  (978) 
nan

$$$$
CHEMBL3582191
     RDKit          3D

  0  0  0  0  0  0  0  0  0  0999 V3000
M  V30 BEGIN CTAB
M  V30 COUNTS 35 38 0 0 0
M  V30 BEGIN ATOM
M  V30 1 N 2.809115 -6.105692 3.477679 0
M  V30 2 C 2.976323 -5.353871 2.613133 0
M  V30 3 C 3.195400 -4.438396 1.526692 0
M  V30 4 C 2.282255 -3.389185 1.418068 0
M  V30 5 C 2.494564 -2.513418 0.375267 0
M  V30 6 C 3.534197 -2.628764 -0.530572 0
M  V30 7 C 4.416579 -3.697549 -0.373307 0
M  V30 8 N 4.206790 -4.553833 0.648481 0
M  V30 9 N 3.478719 -1.618611 -1.440027 0
M  V30 10 C 2.411109 -0.829534 -1.149657 0
M  V30 11 N 1.966456 0.281313 -1.774983 0
M  V30 12 C 0.858620 0.931649 -1.313136 0
M  V30 13 C 0.230384 0.408085 -0.199812 0
M  V30 14 C -0.976994 1.021182 0.395149 0
M  V30 15 C -1.203654 0.925346 1.751911 0
M  V30 16 C -2.346552 1.516147 2.254152 0
M  V30 17 C -3.203820 2.169155 1.393162 0
M  V30 18 C -4.454641 2.826374 1.885623 0
M  V30 19 O -5.537890 1.937958 1.864147 0
M  V30 20 C -2.941625 2.245046 0.029522 0
M  V30 21 C -1.793947 1.658556 -0.515393 0
M  V30 22 C 0.692282 -0.734463 0.439022 0
M  V30 23 C 1.814140 -1.384700 -0.036687 0
M  V30 24 H 1.438770 -3.227798 2.088431 0
M  V30 25 H 5.258607 -3.845665 -1.055211 0
M  V30 26 H 4.196890 -1.549671 -2.207835 0
M  V30 27 H 0.451254 1.831129 -1.773703 0
M  V30 28 H -0.524881 0.413052 2.405789 0
M  V30 29 H -2.572362 1.469966 3.312151 0
M  V30 30 H -4.276765 3.187274 2.904093 0
M  V30 31 H -4.665369 3.729727 1.272269 0
M  V30 32 H -5.359306 1.151167 1.273817 0
M  V30 33 H -3.606669 2.756908 -0.673590 0
M  V30 34 H -1.575351 1.706936 -1.567351 0
M  V30 35 H 0.221536 -1.167277 1.311996 0
M  V30 END ATOM
M  V30 BEGIN BOND
M  V30 1 3 1 2
M  V30 2 1 2 3
M  V30 3 2 3 4
M  V30 4 1 4 5
M  V30 5 2 5 6
M  V30 6 1 6 7
M  V30 7 2 7 8
M  V30 8 1 6 9
M  V30 9 1 9 10
M  V30 10 2 10 11
M  V30 11 1 11 12
M  V30 12 2 12 13
M  V30 13 1 13 14
M  V30 14 2 14 15
M  V30 15 1 15 16
M  V30 16 2 16 17
M  V30 17 1 17 18
M  V30 18 1 18 19
M  V30 19 1 17 20
M  V30 20 2 20 21
M  V30 21 1 13 22
M  V30 22 2 22 23
M  V30 23 1 8 3
M  V30 24 1 23 10
M  V30 25 1 23 5
M  V30 26 1 21 14
M  V30 27 1 4 24
M  V30 28 1 7 25
M  V30 29 1 9 26
M  V30 30 1 12 27
M  V30 31 1 15 28
M  V30 32 1 16 29
M  V30 33 1 18 30
M  V30 34 1 18 31
M  V30 35 1 19 32
M  V30 36 1 20 33
M  V30 37 1 21 34
M  V30 38 1 22 35
M  V30 END BOND
M  V30 END CTAB
M  END
>  <Dataset>  (979) 
ChEMBL_Kinases

>  <Ligand_Instance>  (979) 
nan

>  <PDB_ID>  (979) 
nan

>  <Standardized_SMILES>  (979) 
N#Cc1cc2c(cn1)[nH]c1ncc(-c3ccc(CO)cc3)cc12

>  <Name>  (979) 
nan

>  <Pocket>  (979) 
nan

>  <ATP_Site>  (979) 
nan

>  <Peripheral>  (979) 
nan

>  <Num_H_Atoms_ProtBoundConf>  (979) 
nan

>  <Num_Resolved_Atoms>  (979) 
nan

>  <Num_Not_Resolved_Atoms>  (979) 
nan

$$$$
CHEMBL3582190
     RDKit          3D

  0  0  0  0  0  0  0  0  0  0999 V3000
M  V30 BEGIN CTAB
M  V30 COUNTS 38 41 0 0 0
M  V30 BEGIN ATOM
M  V30 1 C -2.119028 -5.447359 2.471533 0
M  V30 2 C -2.456356 -4.475340 1.400792 0
M  V30 3 O -3.577493 -3.990275 1.182957 0
M  V30 4 N -1.416919 -4.061851 0.552228 0
M  V30 5 C -1.120266 -3.227468 -0.561583 0
M  V30 6 C -1.203293 -3.665812 -1.866844 0
M  V30 7 C -0.892978 -2.774339 -2.877947 0
M  V30 8 C -0.514821 -1.491654 -2.557596 0
M  V30 9 C -0.420419 -1.017896 -1.266836 0
M  V30 10 C -0.020022 0.340201 -0.911720 0
M  V30 11 C -0.277778 1.464249 -1.683525 0
M  V30 12 N 0.151238 2.656865 -1.230738 0
M  V30 13 C 0.815974 2.809862 -0.068715 0
M  V30 14 N 1.296096 3.940772 0.493848 0
M  V30 15 C 1.890669 3.615617 1.659012 0
M  V30 16 C 2.541130 4.301162 2.651244 0
M  V30 17 N 3.035229 3.651363 3.722709 0
M  V30 18 C 2.925455 2.317100 3.886151 0
M  V30 19 C 3.484894 1.717547 5.063542 0
M  V30 20 N 3.944856 1.216374 6.019865 0
M  V30 21 C 2.279336 1.579608 2.915877 0
M  V30 22 C 1.774872 2.249932 1.819894 0
M  V30 23 C 1.099345 1.715880 0.741341 0
M  V30 24 C 0.660223 0.491688 0.278458 0
M  V30 25 C -0.739016 -1.939025 -0.278390 0
M  V30 26 H -2.741127 -5.176781 3.355356 0
M  V30 27 H -1.051478 -5.309993 2.771372 0
M  V30 28 H -2.245805 -6.490824 2.162420 0
M  V30 29 H -0.433489 -4.441803 0.686381 0
M  V30 30 H -1.504726 -4.682744 -2.065514 0
M  V30 31 H -0.954855 -3.104321 -3.895968 0
M  V30 32 H -0.277224 -0.814807 -3.365822 0
M  V30 33 H -0.813087 1.308587 -2.609568 0
M  V30 34 H 1.279442 4.935001 0.193427 0
M  V30 35 H 2.652950 5.387323 2.558297 0
M  V30 36 H 2.180724 0.515092 3.027846 0
M  V30 37 H 0.915785 -0.331316 0.963866 0
M  V30 38 H -0.673320 -1.591748 0.744532 0
M  V30 END ATOM
M  V30 BEGIN BOND
M  V30 1 1 1 2
M  V30 2 2 2 3
M  V30 3 1 2 4
M  V30 4 1 4 5
M  V30 5 2 5 6
M  V30 6 1 6 7
M  V30 7 2 7 8
M  V30 8 1 8 9
M  V30 9 1 9 10
M  V30 10 2 10 11
M  V30 11 1 11 12
M  V30 12 2 12 13
M  V30 13 1 13 14
M  V30 14 1 14 15
M  V30 15 2 15 16
M  V30 16 1 16 17
M  V30 17 2 17 18
M  V30 18 1 18 19
M  V30 19 3 19 20
M  V30 20 1 18 21
M  V30 21 2 21 22
M  V30 22 1 22 23
M  V30 23 2 23 24
M  V30 24 2 9 25
M  V30 25 1 25 5
M  V30 26 1 24 10
M  V30 27 1 23 13
M  V30 28 1 22 15
M  V30 29 1 1 26
M  V30 30 1 1 27
M  V30 31 1 1 28
M  V30 32 1 4 29
M  V30 33 1 6 30
M  V30 34 1 7 31
M  V30 35 1 8 32
M  V30 36 1 11 33
M  V30 37 1 14 34
M  V30 38 1 16 35
M  V30 39 1 21 36
M  V30 40 1 24 37
M  V30 41 1 25 38
M  V30 END BOND
M  V30 END CTAB
M  END
>  <Dataset>  (980) 
ChEMBL_Kinases

>  <Ligand_Instance>  (980) 
nan

>  <PDB_ID>  (980) 
nan

>  <Standardized_SMILES>  (980) 
CC(=O)Nc1cccc(-c2cnc3[nH]c4cnc(C#N)cc4c3c2)c1

>  <Name>  (980) 
nan

>  <Pocket>  (980) 
nan

>  <ATP_Site>  (980) 
nan

>  <Peripheral>  (980) 
nan

>  <Num_H_Atoms_ProtBoundConf>  (980) 
nan

>  <Num_Resolved_Atoms>  (980) 
nan

>  <Num_Not_Resolved_Atoms>  (980) 
nan

$$$$
CHEMBL3582189
     RDKit          3D

  0  0  0  0  0  0  0  0  0  0999 V3000
M  V30 BEGIN CTAB
M  V30 COUNTS 32 35 0 0 0
M  V30 BEGIN ATOM
M  V30 1 N 4.374548 -5.537866 1.178645 0
M  V30 2 C 4.180626 -4.433222 0.877816 0
M  V30 3 C 3.948576 -3.054792 0.526708 0
M  V30 4 C 2.717829 -2.449784 0.658442 0
M  V30 5 C 2.490445 -1.131459 0.324038 0
M  V30 6 C 3.566573 -0.416651 -0.160970 0
M  V30 7 C 4.802386 -1.031072 -0.291189 0
M  V30 8 N 5.000476 -2.333728 0.045974 0
M  V30 9 N 3.122654 0.827339 -0.418433 0
M  V30 10 C 1.799242 0.886622 -0.100965 0
M  V30 11 N 0.899064 1.885172 -0.169918 0
M  V30 12 C -0.387864 1.744335 0.197822 0
M  V30 13 C -0.847937 0.515020 0.679818 0
M  V30 14 C -2.214659 0.232548 1.109870 0
M  V30 15 C -2.929646 1.105452 1.926902 0
M  V30 16 C -4.224550 0.841562 2.336531 0
M  V30 17 C -4.814659 -0.333920 1.911114 0
M  V30 18 C -4.156580 -1.237345 1.101109 0
M  V30 19 C -2.849700 -0.937662 0.707039 0
M  V30 20 O -2.165385 -1.818447 -0.101235 0
M  V30 21 C 0.049518 -0.539617 0.766137 0
M  V30 22 C 1.353905 -0.349151 0.379219 0
M  V30 23 H 1.877622 -3.024738 1.042142 0
M  V30 24 H 5.618256 -0.427816 -0.677127 0
M  V30 25 H 3.640982 1.631323 -0.788724 0
M  V30 26 H -1.124826 2.535109 0.149318 0
M  V30 27 H -2.455209 2.039682 2.262634 0
M  V30 28 H -4.799527 1.497736 2.967002 0
M  V30 29 H -5.831903 -0.642382 2.174213 0
M  V30 30 H -4.613344 -2.157821 0.765673 0
M  V30 31 H -2.138189 -1.701677 -1.092802 0
M  V30 32 H -0.190837 -1.527048 1.120572 0
M  V30 END ATOM
M  V30 BEGIN BOND
M  V30 1 3 1 2
M  V30 2 1 2 3
M  V30 3 2 3 4
M  V30 4 1 4 5
M  V30 5 2 5 6
M  V30 6 1 6 7
M  V30 7 2 7 8
M  V30 8 1 6 9
M  V30 9 1 9 10
M  V30 10 2 10 11
M  V30 11 1 11 12
M  V30 12 2 12 13
M  V30 13 1 13 14
M  V30 14 2 14 15
M  V30 15 1 15 16
M  V30 16 2 16 17
M  V30 17 1 17 18
M  V30 18 2 18 19
M  V30 19 1 19 20
M  V30 20 1 13 21
M  V30 21 2 21 22
M  V30 22 1 8 3
M  V30 23 1 22 10
M  V30 24 1 22 5
M  V30 25 1 19 14
M  V30 26 1 4 23
M  V30 27 1 7 24
M  V30 28 1 9 25
M  V30 29 1 12 26
M  V30 30 1 15 27
M  V30 31 1 16 28
M  V30 32 1 17 29
M  V30 33 1 18 30
M  V30 34 1 20 31
M  V30 35 1 21 32
M  V30 END BOND
M  V30 END CTAB
M  END
>  <Dataset>  (981) 
ChEMBL_Kinases

>  <Ligand_Instance>  (981) 
nan

>  <PDB_ID>  (981) 
nan

>  <Standardized_SMILES>  (981) 
N#Cc1cc2c(cn1)[nH]c1ncc(-c3ccccc3O)cc12

>  <Name>  (981) 
nan

>  <Pocket>  (981) 
nan

>  <ATP_Site>  (981) 
nan

>  <Peripheral>  (981) 
nan

>  <Num_H_Atoms_ProtBoundConf>  (981) 
nan

>  <Num_Resolved_Atoms>  (981) 
nan

>  <Num_Not_Resolved_Atoms>  (981) 
nan

$$$$
CHEMBL3582188
     RDKit          3D

  0  0  0  0  0  0  0  0  0  0999 V3000
M  V30 BEGIN CTAB
M  V30 COUNTS 44 48 0 0 0
M  V30 BEGIN ATOM
M  V30 1 N 5.452965 -6.186855 -2.419435 0
M  V30 2 C 5.289702 -5.043857 -2.585257 0
M  V30 3 C 5.101923 -3.629941 -2.772794 0
M  V30 4 C 4.103383 -2.965295 -2.094655 0
M  V30 5 C 3.940531 -1.605976 -2.289856 0
M  V30 6 C 4.760230 -0.888269 -3.155356 0
M  V30 7 C 5.736963 -1.597532 -3.804225 0
M  V30 8 N 5.879865 -2.908780 -3.603987 0
M  V30 9 N 4.349928 0.392294 -3.123017 0
M  V30 10 C 3.309640 0.563932 -2.289240 0
M  V30 11 N 2.604290 1.663964 -1.964335 0
M  V30 12 C 1.581381 1.573497 -1.081066 0
M  V30 13 C 1.280257 0.345042 -0.527259 0
M  V30 14 C 0.162537 0.330496 0.417608 0
M  V30 15 C -0.672273 -0.756104 0.594320 0
M  V30 16 C -1.724484 -0.755590 1.490975 0
M  V30 17 C -1.980313 0.358514 2.256912 0
M  V30 18 N -3.051111 0.371639 3.175875 0
M  V30 19 C -3.988169 -0.689208 3.458143 0
M  V30 20 C -3.780504 -1.124577 4.917784 0
M  V30 21 O -4.312985 -0.098877 5.695756 0
M  V30 22 C -3.524240 1.007120 5.492802 0
M  V30 23 C -3.466784 1.442303 4.050735 0
M  V30 24 C -1.165157 1.455469 2.102016 0
M  V30 25 C -0.117281 1.437057 1.200272 0
M  V30 26 C 2.006422 -0.782503 -0.862964 0
M  V30 27 C 3.048977 -0.690271 -1.763199 0
M  V30 28 H 3.425373 -3.470065 -1.400450 0
M  V30 29 H 6.367013 -1.032889 -4.472657 0
M  V30 30 H 4.776370 1.172219 -3.672665 0
M  V30 31 H 1.079639 2.511384 -0.887966 0
M  V30 32 H -0.443793 -1.618595 -0.024499 0
M  V30 33 H -2.279987 -1.658102 1.520050 0
M  V30 34 H -5.054830 -0.394017 3.311174 0
M  V30 35 H -3.760713 -1.608020 2.879460 0
M  V30 36 H -2.702601 -1.255382 5.066267 0
M  V30 37 H -4.269235 -2.102567 5.087584 0
M  V30 38 H -3.787769 1.819574 6.177626 0
M  V30 39 H -2.468906 0.704890 5.750122 0
M  V30 40 H -4.507333 1.781664 3.791807 0
M  V30 41 H -2.812309 2.316287 3.936066 0
M  V30 42 H -1.271814 2.374086 2.644716 0
M  V30 43 H 0.536004 2.299290 1.067874 0
M  V30 44 H 1.747087 -1.728267 -0.413474 0
M  V30 END ATOM
M  V30 BEGIN BOND
M  V30 1 3 1 2
M  V30 2 1 2 3
M  V30 3 2 3 4
M  V30 4 1 4 5
M  V30 5 2 5 6
M  V30 6 1 6 7
M  V30 7 2 7 8
M  V30 8 1 6 9
M  V30 9 1 9 10
M  V30 10 2 10 11
M  V30 11 1 11 12
M  V30 12 2 12 13
M  V30 13 1 13 14
M  V30 14 2 14 15
M  V30 15 1 15 16
M  V30 16 2 16 17
M  V30 17 1 17 18
M  V30 18 1 18 19
M  V30 19 1 19 20
M  V30 20 1 20 21
M  V30 21 1 21 22
M  V30 22 1 22 23
M  V30 23 1 17 24
M  V30 24 2 24 25
M  V30 25 1 13 26
M  V30 26 2 26 27
M  V30 27 1 8 3
M  V30 28 1 27 10
M  V30 29 1 27 5
M  V30 30 1 25 14
M  V30 31 1 23 18
M  V30 32 1 4 28
M  V30 33 1 7 29
M  V30 34 1 9 30
M  V30 35 1 12 31
M  V30 36 1 15 32
M  V30 37 1 16 33
M  V30 38 1 19 34
M  V30 39 1 19 35
M  V30 40 1 20 36
M  V30 41 1 20 37
M  V30 42 1 22 38
M  V30 43 1 22 39
M  V30 44 1 23 40
M  V30 45 1 23 41
M  V30 46 1 24 42
M  V30 47 1 25 43
M  V30 48 1 26 44
M  V30 END BOND
M  V30 END CTAB
M  END
>  <Dataset>  (982) 
ChEMBL_Kinases

>  <Ligand_Instance>  (982) 
nan

>  <PDB_ID>  (982) 
nan

>  <Standardized_SMILES>  (982) 
N#Cc1cc2c(cn1)[nH]c1ncc(-c3ccc(N4CCOCC4)cc3)cc12

>  <Name>  (982) 
nan

>  <Pocket>  (982) 
nan

>  <ATP_Site>  (982) 
nan

>  <Peripheral>  (982) 
nan

>  <Num_H_Atoms_ProtBoundConf>  (982) 
nan

>  <Num_Resolved_Atoms>  (982) 
nan

>  <Num_Not_Resolved_Atoms>  (982) 
nan

$$$$
CHEMBL3582187
     RDKit          3D

  0  0  0  0  0  0  0  0  0  0999 V3000
M  V30 BEGIN CTAB
M  V30 COUNTS 29 31 0 0 0
M  V30 BEGIN ATOM
M  V30 1 C -1.912420 -4.428930 1.938606 0
M  V30 2 C -1.263995 -3.719752 3.085341 0
M  V30 3 N -0.173202 -2.856017 2.648016 0
M  V30 4 C -0.394403 -1.780872 1.767545 0
M  V30 5 C -1.630313 -1.449353 1.255342 0
M  V30 6 N -1.858173 -0.422470 0.408913 0
M  V30 7 C -0.813329 0.359770 0.014688 0
M  V30 8 N -0.724420 1.433591 -0.803107 0
M  V30 9 C 0.564622 1.849075 -0.861514 0
M  V30 10 C 1.179242 2.886243 -1.542636 0
M  V30 11 N 2.517532 3.053641 -1.397738 0
M  V30 12 C 3.272277 2.247360 -0.614759 0
M  V30 13 C 4.692672 2.475215 -0.500035 0
M  V30 14 N 5.853387 2.643029 -0.405765 0
M  V30 15 C 2.699931 1.199089 0.083703 0
M  V30 16 C 1.336558 1.028566 -0.063920 0
M  V30 17 C 0.458283 0.089585 0.486556 0
M  V30 18 C 0.632016 -0.964955 1.343348 0
M  V30 19 H -1.427507 -4.091608 0.998653 0
M  V30 20 H -1.705963 -5.520157 2.043487 0
M  V30 21 H -3.015895 -4.319470 1.905474 0
M  V30 22 H -2.040735 -3.112778 3.636949 0
M  V30 23 H -0.857006 -4.449372 3.805676 0
M  V30 24 H 0.804451 -3.022663 2.985270 0
M  V30 25 H -2.496269 -2.013856 1.518753 0
M  V30 26 H -1.482767 1.893427 -1.317087 0
M  V30 27 H 0.577250 3.532226 -2.169389 0
M  V30 28 H 3.284979 0.534513 0.721453 0
M  V30 29 H 1.646092 -1.125479 1.676873 0
M  V30 END ATOM
M  V30 BEGIN BOND
M  V30 1 1 1 2
M  V30 2 1 2 3
M  V30 3 1 3 4
M  V30 4 2 4 5
M  V30 5 1 5 6
M  V30 6 2 6 7
M  V30 7 1 7 8
M  V30 8 1 8 9
M  V30 9 2 9 10
M  V30 10 1 10 11
M  V30 11 2 11 12
M  V30 12 1 12 13
M  V30 13 3 13 14
M  V30 14 1 12 15
M  V30 15 2 15 16
M  V30 16 1 16 17
M  V30 17 2 17 18
M  V30 18 1 18 4
M  V30 19 1 17 7
M  V30 20 1 16 9
M  V30 21 1 1 19
M  V30 22 1 1 20
M  V30 23 1 1 21
M  V30 24 1 2 22
M  V30 25 1 2 23
M  V30 26 1 3 24
M  V30 27 1 5 25
M  V30 28 1 8 26
M  V30 29 1 10 27
M  V30 30 1 15 28
M  V30 31 1 18 29
M  V30 END BOND
M  V30 END CTAB
M  END
>  <Dataset>  (983) 
ChEMBL_Kinases

>  <Ligand_Instance>  (983) 
nan

>  <PDB_ID>  (983) 
nan

>  <Standardized_SMILES>  (983) 
CCNc1cnc2[nH]c3cnc(C#N)cc3c2c1

>  <Name>  (983) 
nan

>  <Pocket>  (983) 
nan

>  <ATP_Site>  (983) 
nan

>  <Peripheral>  (983) 
nan

>  <Num_H_Atoms_ProtBoundConf>  (983) 
nan

>  <Num_Resolved_Atoms>  (983) 
nan

>  <Num_Not_Resolved_Atoms>  (983) 
nan

$$$$
CHEMBL3582186
     RDKit          3D

  0  0  0  0  0  0  0  0  0  0999 V3000
M  V30 BEGIN CTAB
M  V30 COUNTS 22 24 0 0 0
M  V30 BEGIN ATOM
M  V30 1 N 1.155257 -3.226473 5.155853 0
M  V30 2 C 1.116346 -2.831055 4.071618 0
M  V30 3 C 1.059975 -2.331994 2.734336 0
M  V30 4 C 0.617619 -1.035484 2.515001 0
M  V30 5 C 0.564575 -0.557927 1.225631 0
M  V30 6 C 0.966337 -1.432847 0.238149 0
M  V30 7 C 1.401921 -2.711204 0.460799 0
M  V30 8 N 1.439521 -3.139150 1.725450 0
M  V30 9 N 0.815553 -0.717061 -0.910609 0
M  V30 10 C 0.353559 0.518066 -0.673228 0
M  V30 11 N 0.057351 1.551365 -1.467743 0
M  V30 12 C -0.399295 2.690018 -0.910903 0
M  V30 13 C -0.581168 2.850335 0.460666 0
M  V30 14 O -1.044661 3.999149 1.052918 0
M  V30 15 C -0.276155 1.780609 1.301192 0
M  V30 16 C 0.186857 0.639043 0.685755 0
M  V30 17 H 0.316963 -0.407450 3.358662 0
M  V30 18 H 1.696259 -3.318431 -0.394967 0
M  V30 19 H 1.021516 -1.048027 -1.877964 0
M  V30 20 H -0.645413 3.533377 -1.511356 0
M  V30 21 H -0.544150 4.856675 0.896191 0
M  V30 22 H -0.392243 1.830883 2.380805 0
M  V30 END ATOM
M  V30 BEGIN BOND
M  V30 1 3 1 2
M  V30 2 1 2 3
M  V30 3 2 3 4
M  V30 4 1 4 5
M  V30 5 2 5 6
M  V30 6 1 6 7
M  V30 7 2 7 8
M  V30 8 1 6 9
M  V30 9 1 9 10
M  V30 10 2 10 11
M  V30 11 1 11 12
M  V30 12 2 12 13
M  V30 13 1 13 14
M  V30 14 1 13 15
M  V30 15 2 15 16
M  V30 16 1 8 3
M  V30 17 1 16 10
M  V30 18 1 16 5
M  V30 19 1 4 17
M  V30 20 1 7 18
M  V30 21 1 9 19
M  V30 22 1 12 20
M  V30 23 1 14 21
M  V30 24 1 15 22
M  V30 END BOND
M  V30 END CTAB
M  END
>  <Dataset>  (984) 
ChEMBL_Kinases

>  <Ligand_Instance>  (984) 
nan

>  <PDB_ID>  (984) 
nan

>  <Standardized_SMILES>  (984) 
N#Cc1cc2c(cn1)[nH]c1ncc(O)cc12

>  <Name>  (984) 
nan

>  <Pocket>  (984) 
nan

>  <ATP_Site>  (984) 
nan

>  <Peripheral>  (984) 
nan

>  <Num_H_Atoms_ProtBoundConf>  (984) 
nan

>  <Num_Resolved_Atoms>  (984) 
nan

>  <Num_Not_Resolved_Atoms>  (984) 
nan

$$$$
CHEMBL3582185
     RDKit          3D

  0  0  0  0  0  0  0  0  0  0999 V3000
M  V30 BEGIN CTAB
M  V30 COUNTS 21 23 0 0 0
M  V30 BEGIN ATOM
M  V30 1 N 1.207775 -2.587580 5.262574 0
M  V30 2 C 1.173308 -2.328055 4.139641 0
M  V30 3 C 1.113186 -2.014740 2.752797 0
M  V30 4 C 0.756486 -0.709171 2.424069 0
M  V30 5 C 0.679021 -0.337395 1.093175 0
M  V30 6 C 0.969389 -1.316307 0.163738 0
M  V30 7 C 1.322516 -2.609796 0.503559 0
M  V30 8 N 1.390966 -2.948252 1.821473 0
M  V30 9 N 0.834158 -0.744967 -1.050861 0
M  V30 10 C 0.467986 0.562794 -0.924930 0
M  V30 11 N 0.207826 1.559156 -1.794803 0
M  V30 12 C -0.136392 2.761864 -1.296369 0
M  V30 13 C -0.242505 3.049996 0.036521 0
M  V30 14 Br -0.734241 4.773241 0.676196 0
M  V30 15 C 0.013575 2.063152 0.979807 0
M  V30 16 C 0.364242 0.841177 0.425528 0
M  V30 17 H 0.532797 0.042848 3.170426 0
M  V30 18 H 1.539234 -3.335511 -0.260275 0
M  V30 19 H 0.973409 -1.180670 -1.978137 0
M  V30 20 H -0.340386 3.545506 -2.012712 0
M  V30 21 H -0.044508 2.197874 2.037138 0
M  V30 END ATOM
M  V30 BEGIN BOND
M  V30 1 3 1 2
M  V30 2 1 2 3
M  V30 3 2 3 4
M  V30 4 1 4 5
M  V30 5 2 5 6
M  V30 6 1 6 7
M  V30 7 2 7 8
M  V30 8 1 6 9
M  V30 9 1 9 10
M  V30 10 2 10 11
M  V30 11 1 11 12
M  V30 12 2 12 13
M  V30 13 1 13 14
M  V30 14 1 13 15
M  V30 15 2 15 16
M  V30 16 1 8 3
M  V30 17 1 16 10
M  V30 18 1 16 5
M  V30 19 1 4 17
M  V30 20 1 7 18
M  V30 21 1 9 19
M  V30 22 1 12 20
M  V30 23 1 15 21
M  V30 END BOND
M  V30 END CTAB
M  END
>  <Dataset>  (985) 
ChEMBL_Kinases

>  <Ligand_Instance>  (985) 
nan

>  <PDB_ID>  (985) 
nan

>  <Standardized_SMILES>  (985) 
N#Cc1cc2c(cn1)[nH]c1ncc(Br)cc12

>  <Name>  (985) 
nan

>  <Pocket>  (985) 
nan

>  <ATP_Site>  (985) 
nan

>  <Peripheral>  (985) 
nan

>  <Num_H_Atoms_ProtBoundConf>  (985) 
nan

>  <Num_Resolved_Atoms>  (985) 
nan

>  <Num_Not_Resolved_Atoms>  (985) 
nan

$$$$
CHEMBL3582184
     RDKit          3D

  0  0  0  0  0  0  0  0  0  0999 V3000
M  V30 BEGIN CTAB
M  V30 COUNTS 21 23 0 0 0
M  V30 BEGIN ATOM
M  V30 1 N 2.036152 -2.568486 5.186557 0
M  V30 2 C 1.991690 -1.889195 4.233158 0
M  V30 3 C 1.916434 -1.072919 3.075963 0
M  V30 4 C 0.768284 -0.976063 2.296179 0
M  V30 5 C 0.835448 -0.144692 1.198700 0
M  V30 6 C 1.999869 0.558677 0.894836 0
M  V30 7 C 3.110653 0.425152 1.703619 0
M  V30 8 N 3.057277 -0.384712 2.779504 0
M  V30 9 N 1.789828 1.298141 -0.233473 0
M  V30 10 C 0.509474 1.060986 -0.631689 0
M  V30 11 N -0.183934 1.542476 -1.680301 0
M  V30 12 C -1.466250 1.186845 -1.917818 0
M  V30 13 C -2.121826 0.292453 -1.066109 0
M  V30 14 C -1.413489 -0.211405 0.021460 0
M  V30 15 C -0.105604 0.175920 0.230120 0
M  V30 16 H -0.119472 -1.539176 2.564517 0
M  V30 17 H 4.004686 0.981745 1.447709 0
M  V30 18 H 2.510562 1.912373 -0.665814 0
M  V30 19 H -2.034944 1.578993 -2.774096 0
M  V30 20 H -3.148617 -0.038200 -1.193590 0
M  V30 21 H -1.888382 -0.903748 0.699124 0
M  V30 END ATOM
M  V30 BEGIN BOND
M  V30 1 3 1 2
M  V30 2 1 2 3
M  V30 3 2 3 4
M  V30 4 1 4 5
M  V30 5 2 5 6
M  V30 6 1 6 7
M  V30 7 2 7 8
M  V30 8 1 6 9
M  V30 9 1 9 10
M  V30 10 2 10 11
M  V30 11 1 11 12
M  V30 12 2 12 13
M  V30 13 1 13 14
M  V30 14 2 14 15
M  V30 15 1 8 3
M  V30 16 1 15 10
M  V30 17 1 15 5
M  V30 18 1 4 16
M  V30 19 1 7 17
M  V30 20 1 9 18
M  V30 21 1 12 19
M  V30 22 1 13 20
M  V30 23 1 14 21
M  V30 END BOND
M  V30 END CTAB
M  END
>  <Dataset>  (986) 
ChEMBL_Kinases

>  <Ligand_Instance>  (986) 
nan

>  <PDB_ID>  (986) 
nan

>  <Standardized_SMILES>  (986) 
N#Cc1cc2c(cn1)[nH]c1ncccc12

>  <Name>  (986) 
nan

>  <Pocket>  (986) 
nan

>  <ATP_Site>  (986) 
nan

>  <Peripheral>  (986) 
nan

>  <Num_H_Atoms_ProtBoundConf>  (986) 
nan

>  <Num_Resolved_Atoms>  (986) 
nan

>  <Num_Not_Resolved_Atoms>  (986) 
nan

$$$$
CHEMBL3581528
     RDKit          3D

  0  0  0  0  0  0  0  0  0  0999 V3000
M  V30 BEGIN CTAB
M  V30 COUNTS 121 123 0 0 0
M  V30 BEGIN ATOM
M  V30 1 C -5.404430 1.255650 -3.985526 0
M  V30 2 C -5.006345 -0.103217 -4.487133 0
M  V30 3 C -6.022423 -1.175478 -4.141078 0
M  V30 4 C -5.568576 -2.527464 -4.666060 0
M  V30 5 C -4.242826 -2.925049 -4.075386 0
M  V30 6 C -4.344690 -3.033814 -2.578707 0
M  V30 7 C -2.984489 -3.389669 -1.996371 0
M  V30 8 C -3.059874 -3.523864 -0.524394 0
M  V30 9 O -4.075421 -4.166839 -0.094931 0
M  V30 10 O -2.073212 -2.972254 0.282807 0
M  V30 11 C -2.055899 -3.072583 1.694131 0 CFG=1
M  V30 12 C -0.804772 -3.739620 2.043918 0
M  V30 13 C -0.485968 -4.770504 1.310415 0
M  V30 14 C 0.728108 -5.544873 1.527117 0
M  V30 15 O 1.714900 -5.549226 2.298331 0
M  V30 16 O 1.087780 -6.628016 0.778756 0
M  V30 17 C 2.259486 -7.392929 0.967783 0
M  V30 18 C 0.094982 -3.286043 3.175808 0
M  V30 19 C -0.798533 -2.440789 4.018113 0 CFG=1
M  V30 20 C -0.264856 -2.121573 5.336422 0
M  V30 21 C 1.128447 -1.675550 5.510301 0 CFG=1
M  V30 22 O 2.110924 -2.531884 5.018736 0
M  V30 23 C 1.474160 -0.258444 5.273464 0 CFG=1
M  V30 24 C 2.824563 0.092579 5.954171 0
M  V30 25 O 1.658222 0.101268 3.927238 0
M  V30 26 C 1.015462 1.204335 3.345377 0
M  V30 27 O 0.229001 1.946900 3.989694 0
M  V30 28 C 1.303601 1.476653 1.893122 0
M  V30 29 C 2.329203 2.546962 1.718825 0 CFG=2
M  V30 30 O 1.823063 3.717784 2.344592 0
M  V30 31 C 2.534834 2.949492 0.275896 0
M  V30 32 C 3.010224 1.864757 -0.626842 0 CFG=2
M  V30 33 C 4.507301 1.787742 -0.775869 0
M  V30 34 C 5.044055 2.115841 -2.118205 0 CFG=2
M  V30 35 O 5.494365 3.484833 -2.142277 0
M  V30 36 C 6.850042 3.693577 -2.273558 0
M  V30 37 C 7.340443 5.111526 -2.302424 0
M  V30 38 O 7.726587 2.772101 -2.373361 0
M  V30 39 C 4.164832 1.836192 -3.299971 0
M  V30 40 C 4.912526 0.935895 -4.262632 0
M  V30 41 C 3.718412 3.113393 -3.983931 0
M  V30 42 C 2.909736 1.104582 -2.801977 0 CFG=2
M  V30 43 O 3.401528 -0.076812 -2.315954 0
M  V30 44 C 1.932049 0.928864 -3.902894 0
M  V30 45 C 0.998576 -0.220567 -3.800486 0
M  V30 46 O 0.097377 -0.305168 -2.833956 0
M  V30 47 C -0.568350 -0.392416 -1.761500 0
M  V30 48 O 0.549892 -0.421852 -1.210155 0
M  V30 49 C -1.559275 -0.479983 -0.726111 0
M  V30 50 C -1.358025 -0.595844 0.567724 0
M  V30 51 C -2.513751 -0.668336 1.467536 0
M  V30 52 C -2.441633 0.605678 2.329640 0
M  V30 53 C -3.841009 -0.696465 0.774504 0
M  V30 54 C -2.322227 -1.807467 2.428142 0 CFG=1
M  V30 55 O -3.437702 -1.871453 3.265699 0
M  V30 56 O -1.265117 -1.395882 3.250577 0
M  V30 57 O 2.370871 1.972059 -1.859054 0
M  V30 58 H -5.701723 1.918235 -4.828781 0
M  V30 59 H -6.237134 1.255321 -3.261489 0
M  V30 60 H -4.517541 1.756040 -3.520465 0
M  V30 61 H -4.019612 -0.386687 -4.041710 0
M  V30 62 H -4.826199 -0.046004 -5.576088 0
M  V30 63 H -6.209070 -1.179643 -3.067497 0
M  V30 64 H -6.957491 -0.917583 -4.669190 0
M  V30 65 H -6.359097 -3.240947 -4.367030 0
M  V30 66 H -5.462887 -2.422673 -5.759800 0
M  V30 67 H -3.410539 -2.306977 -4.413346 0
M  V30 68 H -4.030087 -3.967890 -4.441529 0
M  V30 69 H -4.655793 -2.062702 -2.113303 0
M  V30 70 H -5.050538 -3.821825 -2.307174 0
M  V30 71 H -2.211035 -2.706355 -2.365080 0
M  V30 72 H -2.676813 -4.402378 -2.382413 0
M  V30 73 H -2.914680 -3.757897 1.970893 0
M  V30 74 H -1.095990 -5.123588 0.494051 0
M  V30 75 H 2.285777 -7.732122 2.021409 0
M  V30 76 H 2.328341 -8.229838 0.244659 0
M  V30 77 H 3.178326 -6.761888 0.822695 0
M  V30 78 H 0.497495 -4.139565 3.740720 0
M  V30 79 H 0.949045 -2.761532 2.707699 0
M  V30 80 H -1.728573 -3.086362 4.188517 0
M  V30 81 H -0.350111 -3.084795 5.952246 0
M  V30 82 H -0.911026 -1.421239 5.937846 0
M  V30 83 H 1.302091 -1.799815 6.663236 0
M  V30 84 H 2.793530 -2.062939 4.508330 0
M  V30 85 H 0.725411 0.415449 5.776255 0
M  V30 86 H 3.670690 -0.051706 5.268381 0
M  V30 87 H 2.939251 -0.634092 6.784423 0
M  V30 88 H 2.770004 1.139359 6.346117 0
M  V30 89 H 1.669021 0.542160 1.418945 0
M  V30 90 H 0.365932 1.746763 1.362176 0
M  V30 91 H 3.280722 2.340009 2.221411 0
M  V30 92 H 1.103363 4.046200 1.729898 0
M  V30 93 H 1.504407 3.249076 -0.083727 0
M  V30 94 H 3.158978 3.866797 0.229013 0
M  V30 95 H 2.696274 0.887543 -0.214055 0
M  V30 96 H 4.896746 2.561834 -0.047995 0
M  V30 97 H 4.913420 0.838809 -0.349200 0
M  V30 98 H 6.001829 1.511343 -2.210956 0
M  V30 99 H 6.662255 5.692591 -1.645870 0
M  V30 100 H 7.308382 5.516131 -3.331178 0
M  V30 101 H 8.336044 5.119195 -1.856367 0
M  V30 102 H 5.965069 1.342648 -4.315472 0
M  V30 103 H 4.490353 0.932201 -5.269917 0
M  V30 104 H 5.005739 -0.062496 -3.784556 0
M  V30 105 H 3.582561 2.910483 -5.059451 0
M  V30 106 H 2.710743 3.397181 -3.574201 0
M  V30 107 H 4.460639 3.875032 -3.748279 0
M  V30 108 H 3.336469 -0.846517 -2.901240 0
M  V30 109 H 1.311124 1.844180 -4.041096 0
M  V30 110 H 2.506639 0.798346 -4.845784 0
M  V30 111 H 0.451427 -0.264651 -4.813999 0
M  V30 112 H 1.572286 -1.210331 -3.845690 0
M  V30 113 H -2.241812 -0.403203 -1.555195 0
M  V30 114 H -0.337170 -0.639622 0.907581 0
M  V30 115 H -3.508734 0.921384 2.530767 0
M  V30 116 H -1.924474 0.415935 3.271702 0
M  V30 117 H -1.962192 1.435623 1.784868 0
M  V30 118 H -3.803125 -0.619329 -0.327146 0
M  V30 119 H -4.465609 -1.581285 1.098136 0
M  V30 120 H -4.447701 0.172129 1.103722 0
M  V30 121 H -3.709706 -2.809119 3.438158 0
M  V30 END ATOM
M  V30 BEGIN BOND
M  V30 1 1 1 2
M  V30 2 1 2 3
M  V30 3 1 3 4
M  V30 4 1 4 5
M  V30 5 1 5 6
M  V30 6 1 6 7
M  V30 7 1 7 8
M  V30 8 2 8 9
M  V30 9 1 8 10
M  V30 10 1 10 11
M  V30 11 1 11 12
M  V30 12 2 12 13
M  V30 13 1 13 14
M  V30 14 2 14 15
M  V30 15 1 14 16
M  V30 16 1 16 17
M  V30 17 1 12 18
M  V30 18 1 18 19
M  V30 19 1 19 20
M  V30 20 1 20 21
M  V30 21 1 21 22
M  V30 22 1 21 23
M  V30 23 1 23 24
M  V30 24 1 23 25
M  V30 25 1 25 26
M  V30 26 2 26 27
M  V30 27 1 26 28
M  V30 28 1 28 29
M  V30 29 1 29 30
M  V30 30 1 29 31
M  V30 31 1 31 32
M  V30 32 1 32 33
M  V30 33 1 33 34
M  V30 34 1 34 35
M  V30 35 1 35 36
M  V30 36 1 36 37
M  V30 37 2 36 38
M  V30 38 1 34 39
M  V30 39 1 39 40
M  V30 40 1 39 41
M  V30 41 1 39 42
M  V30 42 1 42 43 CFG=1
M  V30 43 1 42 44
M  V30 44 1 44 45
M  V30 45 1 45 46
M  V30 46 1 46 47
M  V30 47 2 47 48
M  V30 48 1 47 49
M  V30 49 2 49 50
M  V30 50 1 50 51
M  V30 51 1 51 52
M  V30 52 1 51 53
M  V30 53 1 51 54
M  V30 54 1 54 55 CFG=1
M  V30 55 1 54 56
M  V30 56 1 42 57
M  V30 57 1 54 11
M  V30 58 1 56 19
M  V30 59 1 57 32
M  V30 60 1 1 58
M  V30 61 1 1 59
M  V30 62 1 1 60
M  V30 63 1 2 61
M  V30 64 1 2 62
M  V30 65 1 3 63
M  V30 66 1 3 64
M  V30 67 1 4 65
M  V30 68 1 4 66
M  V30 69 1 5 67
M  V30 70 1 5 68
M  V30 71 1 6 69
M  V30 72 1 6 70
M  V30 73 1 7 71
M  V30 74 1 7 72
M  V30 75 1 11 73 CFG=3
M  V30 76 1 13 74
M  V30 77 1 17 75
M  V30 78 1 17 76
M  V30 79 1 17 77
M  V30 80 1 18 78
M  V30 81 1 18 79
M  V30 82 1 19 80 CFG=1
M  V30 83 1 20 81
M  V30 84 1 20 82
M  V30 85 1 21 83 CFG=1
M  V30 86 1 22 84
M  V30 87 1 23 85 CFG=1
M  V30 88 1 24 86
M  V30 89 1 24 87
M  V30 90 1 24 88
M  V30 91 1 28 89
M  V30 92 1 28 90
M  V30 93 1 29 91 CFG=1
M  V30 94 1 30 92
M  V30 95 1 31 93
M  V30 96 1 31 94
M  V30 97 1 32 95 CFG=1
M  V30 98 1 33 96
M  V30 99 1 33 97
M  V30 100 1 34 98 CFG=3
M  V30 101 1 37 99
M  V30 102 1 37 100
M  V30 103 1 37 101
M  V30 104 1 40 102
M  V30 105 1 40 103
M  V30 106 1 40 104
M  V30 107 1 41 105
M  V30 108 1 41 106
M  V30 109 1 41 107
M  V30 110 1 43 108
M  V30 111 1 44 109
M  V30 112 1 44 110
M  V30 113 1 45 111
M  V30 114 1 45 112
M  V30 115 1 49 113
M  V30 116 1 50 114
M  V30 117 1 52 115
M  V30 118 1 52 116
M  V30 119 1 52 117
M  V30 120 1 53 118
M  V30 121 1 53 119
M  V30 122 1 53 120
M  V30 123 1 55 121
M  V30 END BOND
M  V30 END CTAB
M  END
>  <Dataset>  (987) 
ChEMBL_Kinases

>  <Ligand_Instance>  (987) 
nan

>  <PDB_ID>  (987) 
nan

>  <Standardized_SMILES>  (987) 
CCCCCCCC(=O)O[C@H]1/C(=C/C(=O)OC)C[C@H]2C[C@@H](O)[C@@H](C)OC(=O)C[C@H](O)C[C@@H]3C[C@H](OC(C)=O)C(C)(C)[C@](O)(CCOC(=O)/C=C/C(C)(C)[C@]1(O)O2)O3

>  <Name>  (987) 
nan

>  <Pocket>  (987) 
nan

>  <ATP_Site>  (987) 
nan

>  <Peripheral>  (987) 
nan

>  <Num_H_Atoms_ProtBoundConf>  (987) 
nan

>  <Num_Resolved_Atoms>  (987) 
nan

>  <Num_Not_Resolved_Atoms>  (987) 
nan

$$$$
CHEMBL3581527
     RDKit          3D

  0  0  0  0  0  0  0  0  0  0999 V3000
M  V30 BEGIN CTAB
M  V30 COUNTS 116 120 0 0 0
M  V30 BEGIN ATOM
M  V30 1 C 6.177564 -2.499942 4.804468 0
M  V30 2 O 5.966765 -1.775176 3.609017 0
M  V30 3 C 5.032376 -0.760563 3.486364 0
M  V30 4 O 4.666227 -0.887878 4.674671 0
M  V30 5 C 4.869893 -0.057533 2.223892 0
M  V30 6 C 4.006925 0.919375 2.014196 0
M  V30 7 C 3.972327 1.535988 0.661628 0
M  V30 8 C 2.641856 2.174517 0.370457 0 CFG=1
M  V30 9 C 2.224574 2.266635 -1.027147 0
M  V30 10 C 1.897920 1.220077 -1.979066 0 CFG=2
M  V30 11 O 2.952704 0.646715 -2.684804 0
M  V30 12 O 1.253109 1.907031 -3.081155 0
M  V30 13 C 0.412637 1.186883 -3.799587 0 CFG=2
M  V30 14 C -0.114557 1.684887 -5.125818 0
M  V30 15 C -1.355853 0.838508 -5.504962 0 CFG=1
M  V30 16 O -1.612332 1.375286 -6.804647 0
M  V30 17 C -1.103671 -0.589888 -5.629752 0
M  V30 18 C -2.241047 -1.553328 -5.700439 0
M  V30 19 O -2.758484 -2.321313 -6.536976 0
M  V30 20 O -2.864454 -1.589189 -4.521715 0
M  V30 21 C -3.850539 -2.150460 -3.808199 0 CFG=2
M  V30 22 C -5.045728 -1.092204 -3.946990 0
M  V30 23 C -3.678997 -2.197168 -2.315043 0 CFG=2
M  V30 24 O -3.641644 -0.885716 -1.778979 0
M  V30 25 C -2.578020 -3.034707 -1.779983 0
M  V30 26 C -2.220225 -3.033798 -0.372334 0 CFG=2
M  V30 27 C -1.719934 -4.447093 -0.034719 0
M  V30 28 C -1.517073 -4.320108 1.455565 0 CFG=2
M  V30 29 C -2.141084 -5.556400 2.068537 0
M  V30 30 C -3.467881 -5.038114 2.477850 0
M  V30 31 O -4.562263 -5.689895 2.603041 0
M  V30 32 O -3.320926 -3.681964 2.709588 0
M  V30 33 C -2.345062 -3.139286 1.816972 0 CFG=2
M  V30 34 O -3.068835 -2.820172 0.648463 0
M  V30 35 C -1.629818 -2.010607 2.427019 0
M  V30 36 O -2.121378 -0.992999 1.971444 0
M  V30 37 C -0.550356 -1.657079 3.373825 0
M  V30 38 C 0.774300 -2.323691 3.098460 0
M  V30 39 C -0.980963 -2.038452 4.758421 0
M  V30 40 C -0.286737 -0.155814 3.423782 0
M  V30 41 C 0.737221 0.619701 2.967745 0
M  V30 42 C 1.759176 1.626629 2.542255 0 CFG=1
M  V30 43 C 3.107566 1.350879 3.101902 0
M  V30 44 O 1.653995 1.985993 1.246478 0
M  V30 45 C -0.831274 0.992418 -3.031595 0
M  V30 46 C -0.443117 0.606964 -1.624563 0 CFG=2
M  V30 47 O -0.560296 1.843346 -0.954567 0
M  V30 48 C -1.467624 2.236838 -0.063488 0
M  V30 49 O -2.106886 1.162030 -0.088195 0
M  V30 50 C -1.983329 3.245521 0.821374 0
M  V30 51 C -1.104247 3.726398 1.933414 0
M  V30 52 C -3.383267 2.896365 1.331990 0
M  V30 53 C -2.215101 4.491348 -0.059408 0
M  V30 54 C 1.001088 0.078385 -1.557649 0
M  V30 55 C 1.080308 -0.422067 -0.173860 0
M  V30 56 C 1.251336 -1.168027 -2.377813 0
M  V30 57 H 6.810516 -3.401448 4.628881 0
M  V30 58 H 6.671971 -1.882930 5.574197 0
M  V30 59 H 5.194873 -2.917266 5.138535 0
M  V30 60 H 5.509536 -0.372856 1.415808 0
M  V30 61 H 4.845054 2.210469 0.590557 0
M  V30 62 H 4.209123 0.705221 -0.034411 0
M  V30 63 H 2.907744 3.267927 0.646651 0
M  V30 64 H 1.387991 3.032896 -1.041547 0
M  V30 65 H 3.041972 2.882141 -1.554950 0
M  V30 66 H 3.664733 1.270858 -2.902866 0
M  V30 67 H 0.942144 0.297466 -4.177445 0
M  V30 68 H 0.660683 1.599428 -5.887113 0
M  V30 69 H -0.497789 2.706826 -4.971201 0
M  V30 70 H -2.266490 1.179179 -4.983488 0
M  V30 71 H -1.779450 2.332755 -6.751794 0
M  V30 72 H -0.616688 -0.794494 -6.667070 0
M  V30 73 H -0.348844 -1.043027 -4.986845 0
M  V30 74 H -4.319803 -3.013596 -4.270391 0
M  V30 75 H -5.897984 -1.463056 -3.360184 0
M  V30 76 H -5.321116 -1.003371 -4.990087 0
M  V30 77 H -4.703529 -0.145290 -3.497178 0
M  V30 78 H -4.629712 -2.604531 -1.921274 0
M  V30 79 H -4.030164 -0.853495 -0.892818 0
M  V30 80 H -2.694157 -4.107236 -2.138539 0
M  V30 81 H -1.659322 -2.714258 -2.364146 0
M  V30 82 H -1.392691 -2.295583 -0.193527 0
M  V30 83 H -2.508284 -5.156631 -0.288413 0
M  V30 84 H -0.817369 -4.718926 -0.599904 0
M  V30 85 H -0.446846 -4.231245 1.616551 0
M  V30 86 H -1.569104 -5.798272 2.982654 0
M  V30 87 H -2.215077 -6.396332 1.349619 0
M  V30 88 H 0.749616 -3.365360 3.473304 0
M  V30 89 H 1.510957 -1.814624 3.774293 0
M  V30 90 H 1.150758 -2.212316 2.080875 0
M  V30 91 H -0.410765 -2.896185 5.190090 0
M  V30 92 H -2.077165 -2.220886 4.825691 0
M  V30 93 H -0.792026 -1.197488 5.461879 0
M  V30 94 H -1.120780 0.375666 3.939704 0
M  V30 95 H 1.355343 -0.211921 2.560397 0
M  V30 96 H 1.418959 2.550463 3.116141 0
M  V30 97 H 3.004260 0.535142 3.869519 0
M  V30 98 H 3.586663 2.189310 3.630146 0
M  V30 99 H -1.550300 0.310905 -3.440844 0
M  V30 100 H -1.383669 1.984649 -3.070455 0
M  V30 101 H -1.102048 -0.187038 -1.330171 0
M  V30 102 H -1.047498 2.945410 2.701453 0
M  V30 103 H -0.108255 4.016094 1.620506 0
M  V30 104 H -1.558829 4.628098 2.443139 0
M  V30 105 H -3.874067 2.182113 0.621551 0
M  V30 106 H -3.352542 2.425190 2.313708 0
M  V30 107 H -4.052650 3.774947 1.387226 0
M  V30 108 H -2.543026 4.147630 -1.063334 0
M  V30 109 H -1.277831 5.048156 -0.094956 0
M  V30 110 H -3.052477 5.108278 0.343118 0
M  V30 111 H 0.215000 -0.151665 0.431646 0
M  V30 112 H 0.870623 -1.566817 -0.201748 0
M  V30 113 H 2.060770 -0.494128 0.301962 0
M  V30 114 H 1.542692 -2.072056 -1.713154 0
M  V30 115 H 2.209484 -1.129575 -2.969714 0
M  V30 116 H 0.387421 -1.584068 -2.882591 0
M  V30 END ATOM
M  V30 BEGIN BOND
M  V30 1 1 1 2
M  V30 2 1 2 3
M  V30 3 2 3 4
M  V30 4 1 3 5
M  V30 5 2 5 6
M  V30 6 1 6 7
M  V30 7 1 7 8
M  V30 8 1 8 9
M  V30 9 1 9 10
M  V30 10 1 10 11 CFG=3
M  V30 11 1 10 12
M  V30 12 1 12 13
M  V30 13 1 13 14
M  V30 14 1 14 15
M  V30 15 1 15 16
M  V30 16 1 15 17
M  V30 17 1 17 18
M  V30 18 2 18 19
M  V30 19 1 18 20
M  V30 20 1 20 21
M  V30 21 1 21 22
M  V30 22 1 21 23
M  V30 23 1 23 24
M  V30 24 1 23 25
M  V30 25 1 25 26
M  V30 26 1 26 27
M  V30 27 1 27 28
M  V30 28 1 28 29
M  V30 29 1 29 30
M  V30 30 2 30 31
M  V30 31 1 30 32
M  V30 32 1 33 32 CFG=1
M  V30 33 1 33 34
M  V30 34 1 33 35
M  V30 35 2 35 36
M  V30 36 1 35 37
M  V30 37 1 37 38
M  V30 38 1 37 39
M  V30 39 1 37 40
M  V30 40 2 40 41
M  V30 41 1 41 42
M  V30 42 1 42 43
M  V30 43 1 42 44
M  V30 44 1 13 45
M  V30 45 1 45 46
M  V30 46 1 46 47
M  V30 47 1 47 48
M  V30 48 2 48 49
M  V30 49 1 48 50
M  V30 50 1 50 51
M  V30 51 1 50 52
M  V30 52 1 50 53
M  V30 53 1 46 54
M  V30 54 1 54 55
M  V30 55 1 54 56
M  V30 56 1 43 6
M  V30 57 1 44 8
M  V30 58 1 54 10
M  V30 59 1 34 26
M  V30 60 1 33 28
M  V30 61 1 1 57
M  V30 62 1 1 58
M  V30 63 1 1 59
M  V30 64 1 5 60
M  V30 65 1 7 61
M  V30 66 1 7 62
M  V30 67 1 8 63 CFG=1
M  V30 68 1 9 64
M  V30 69 1 9 65
M  V30 70 1 11 66
M  V30 71 1 13 67 CFG=3
M  V30 72 1 14 68
M  V30 73 1 14 69
M  V30 74 1 15 70 CFG=1
M  V30 75 1 16 71
M  V30 76 1 17 72
M  V30 77 1 17 73
M  V30 78 1 21 74 CFG=3
M  V30 79 1 22 75
M  V30 80 1 22 76
M  V30 81 1 22 77
M  V30 82 1 23 78 CFG=1
M  V30 83 1 24 79
M  V30 84 1 25 80
M  V30 85 1 25 81
M  V30 86 1 26 82 CFG=3
M  V30 87 1 27 83
M  V30 88 1 27 84
M  V30 89 1 28 85 CFG=3
M  V30 90 1 29 86
M  V30 91 1 29 87
M  V30 92 1 38 88
M  V30 93 1 38 89
M  V30 94 1 38 90
M  V30 95 1 39 91
M  V30 96 1 39 92
M  V30 97 1 39 93
M  V30 98 1 40 94
M  V30 99 1 41 95
M  V30 100 1 42 96 CFG=1
M  V30 101 1 43 97
M  V30 102 1 43 98
M  V30 103 1 45 99
M  V30 104 1 45 100
M  V30 105 1 46 101 CFG=1
M  V30 106 1 51 102
M  V30 107 1 51 103
M  V30 108 1 51 104
M  V30 109 1 52 105
M  V30 110 1 52 106
M  V30 111 1 52 107
M  V30 112 1 53 108
M  V30 113 1 53 109
M  V30 114 1 53 110
M  V30 115 1 55 111
M  V30 116 1 55 112
M  V30 117 1 55 113
M  V30 118 1 56 114
M  V30 119 1 56 115
M  V30 120 1 56 116
M  V30 END BOND
M  V30 END CTAB
M  END
>  <Dataset>  (988) 
ChEMBL_Kinases

>  <Ligand_Instance>  (988) 
nan

>  <PDB_ID>  (988) 
nan

>  <Standardized_SMILES>  (988) 
COC(=O)/C=C1/C[C@H]2C[C@]3(O)O[C@H](C[C@@H](O)CC(=O)O[C@H](C)[C@H](O)C[C@@H]4C[C@@H]5CC(=O)O[C@@]5(O4)C(=O)C(C)(C)/C=C/[C@@H](C1)O2)C[C@H](OC(=O)C(C)(C)C)C3(C)C

>  <Name>  (988) 
nan

>  <Pocket>  (988) 
nan

>  <ATP_Site>  (988) 
nan

>  <Peripheral>  (988) 
nan

>  <Num_H_Atoms_ProtBoundConf>  (988) 
nan

>  <Num_Resolved_Atoms>  (988) 
nan

>  <Num_Not_Resolved_Atoms>  (988) 
nan

$$$$
CHEMBL3581148
     RDKit          3D

  0  0  0  0  0  0  0  0  0  0999 V3000
M  V30 BEGIN CTAB
M  V30 COUNTS 43 45 0 0 0
M  V30 BEGIN ATOM
M  V30 1 C 3.620437 -2.840557 3.345617 0
M  V30 2 S 5.250680 -2.156525 3.192358 0
M  V30 3 O 6.107419 -3.071294 2.415861 0
M  V30 4 O 5.832010 -2.155390 4.600377 0
M  V30 5 N 5.232663 -0.529103 2.684980 0
M  V30 6 C 4.639858 -0.394464 1.407221 0
M  V30 7 C 4.869367 -1.174717 0.303049 0
M  V30 8 C 4.228995 -0.950223 -0.903010 0
M  V30 9 C 3.328286 0.101038 -0.984444 0
M  V30 10 C 3.069365 0.909217 0.102956 0
M  V30 11 C 2.089921 2.055673 0.025709 0
M  V30 12 C 0.759672 1.479478 0.410621 0
M  V30 13 O 0.942156 0.239707 0.660424 0
M  V30 14 N -0.472510 2.137919 0.493652 0
M  V30 15 C -1.573097 1.323134 0.890095 0
M  V30 16 C -2.461639 0.582674 0.202479 0
M  V30 17 C -3.428537 -0.108544 0.854690 0
M  V30 18 C -4.433834 -0.939492 0.174546 0
M  V30 19 C -5.691992 -1.079763 0.721933 0
M  V30 20 C -6.596521 -1.860964 0.058621 0
M  V30 21 N -6.320316 -2.501471 -1.104243 0
M  V30 22 C -5.090529 -2.358291 -1.629881 0
M  V30 23 Cl -4.669623 -3.161577 -3.132900 0
M  V30 24 C -4.116893 -1.583949 -1.019319 0
M  V30 25 C -3.432751 0.003141 2.263381 0
M  V30 26 S -1.995868 1.136056 2.586404 0
M  V30 27 C 3.730176 0.646860 1.279897 0
M  V30 28 H 3.286691 -2.953718 4.400724 0
M  V30 29 H 2.864296 -2.242833 2.805029 0
M  V30 30 H 3.550233 -3.872635 2.915053 0
M  V30 31 H 5.586359 0.339947 3.173061 0
M  V30 32 H 5.576533 -1.975525 0.421509 0
M  V30 33 H 4.432351 -1.586435 -1.760801 0
M  V30 34 H 2.809086 0.305239 -1.913545 0
M  V30 35 H 2.408574 2.798992 0.781278 0
M  V30 36 H 2.106962 2.499562 -0.969580 0
M  V30 37 H -0.453659 3.153446 0.256458 0
M  V30 38 H -2.339626 0.589275 -0.871756 0
M  V30 39 H -5.888939 -0.563935 1.643081 0
M  V30 40 H -7.583167 -1.955020 0.512808 0
M  V30 41 H -3.149691 -1.490471 -1.462279 0
M  V30 42 H -4.142257 -0.488544 2.936646 0
M  V30 43 H 3.494325 1.314703 2.120032 0
M  V30 END ATOM
M  V30 BEGIN BOND
M  V30 1 1 1 2
M  V30 2 2 2 3
M  V30 3 2 2 4
M  V30 4 1 2 5
M  V30 5 1 5 6
M  V30 6 2 6 7
M  V30 7 1 7 8
M  V30 8 2 8 9
M  V30 9 1 9 10
M  V30 10 1 10 11
M  V30 11 1 11 12
M  V30 12 2 12 13
M  V30 13 1 12 14
M  V30 14 1 14 15
M  V30 15 2 15 16
M  V30 16 1 16 17
M  V30 17 1 17 18
M  V30 18 2 18 19
M  V30 19 1 19 20
M  V30 20 2 20 21
M  V30 21 1 21 22
M  V30 22 1 22 23
M  V30 23 2 22 24
M  V30 24 2 17 25
M  V30 25 1 25 26
M  V30 26 2 10 27
M  V30 27 1 27 6
M  V30 28 1 26 15
M  V30 29 1 24 18
M  V30 30 1 1 28
M  V30 31 1 1 29
M  V30 32 1 1 30
M  V30 33 1 5 31
M  V30 34 1 7 32
M  V30 35 1 8 33
M  V30 36 1 9 34
M  V30 37 1 11 35
M  V30 38 1 11 36
M  V30 39 1 14 37
M  V30 40 1 16 38
M  V30 41 1 19 39
M  V30 42 1 20 40
M  V30 43 1 24 41
M  V30 44 1 25 42
M  V30 45 1 27 43
M  V30 END BOND
M  V30 END CTAB
M  END
>  <Dataset>  (989) 
ChEMBL_Kinases

>  <Ligand_Instance>  (989) 
nan

>  <PDB_ID>  (989) 
nan

>  <Standardized_SMILES>  (989) 
CS(=O)(=O)Nc1cccc(CC(=O)Nc2cc(-c3ccnc(Cl)c3)cs2)c1

>  <Name>  (989) 
nan

>  <Pocket>  (989) 
nan

>  <ATP_Site>  (989) 
nan

>  <Peripheral>  (989) 
nan

>  <Num_H_Atoms_ProtBoundConf>  (989) 
nan

>  <Num_Resolved_Atoms>  (989) 
nan

>  <Num_Not_Resolved_Atoms>  (989) 
nan

$$$$
CHEMBL3581145
     RDKit          3D

  0  0  0  0  0  0  0  0  0  0999 V3000
M  V30 BEGIN CTAB
M  V30 COUNTS 38 40 0 0 0
M  V30 BEGIN ATOM
M  V30 1 C -1.530134 -6.106766 -0.740489 0
M  V30 2 O -0.136275 -6.114546 -0.507829 0
M  V30 3 C 0.665458 -4.998800 -0.709306 0
M  V30 4 C 2.025984 -5.097307 -0.454998 0
M  V30 5 C 2.839128 -3.986155 -0.653215 0
M  V30 6 C 2.302453 -2.779590 -1.103047 0
M  V30 7 C 0.943231 -2.712383 -1.347771 0
M  V30 8 C 0.280068 -1.457952 -1.832829 0
M  V30 9 C -0.161012 -0.641403 -0.649204 0
M  V30 10 O -0.002409 -0.954341 0.561852 0
M  V30 11 N -0.811851 0.586894 -0.887160 0
M  V30 12 C -1.162836 1.232663 0.393174 0
M  V30 13 N -0.508103 1.981214 1.015041 0
M  V30 14 C -0.852335 2.552409 2.174951 0
M  V30 15 C 0.032599 3.477070 2.881258 0
M  V30 16 C 1.284888 3.849298 2.437794 0
M  V30 17 C 2.106305 4.723566 3.118008 0
M  V30 18 N 1.702139 5.264877 4.280520 0
M  V30 19 C 0.491797 4.943851 4.768825 0
M  V30 20 Cl -0.023303 5.655581 6.284070 0
M  V30 21 C -0.317750 4.068192 4.076825 0
M  V30 22 C -2.106469 2.212880 2.670309 0
M  V30 23 S -2.717421 1.025658 1.336810 0
M  V30 24 C 0.106868 -3.817099 -1.155316 0
M  V30 25 H -1.961232 -5.176457 -0.307133 0
M  V30 26 H -2.009649 -6.941681 -0.188900 0
M  V30 27 H -1.800063 -6.246983 -1.799238 0
M  V30 28 H 2.499205 -6.020034 -0.100610 0
M  V30 29 H 3.918739 -3.985907 -0.474886 0
M  V30 30 H 2.927390 -1.897713 -1.263740 0
M  V30 31 H -0.549137 -1.673725 -2.520555 0
M  V30 32 H 1.016904 -0.849492 -2.396046 0
M  V30 33 H -0.980002 0.914991 -1.859924 0
M  V30 34 H 1.642661 3.424402 1.492379 0
M  V30 35 H 3.083603 4.994026 2.741054 0
M  V30 36 H -1.263222 3.867473 4.535411 0
M  V30 37 H -2.549040 2.596623 3.621192 0
M  V30 38 H -0.952459 -3.734469 -1.355100 0
M  V30 END ATOM
M  V30 BEGIN BOND
M  V30 1 1 1 2
M  V30 2 1 2 3
M  V30 3 2 3 4
M  V30 4 1 4 5
M  V30 5 2 5 6
M  V30 6 1 6 7
M  V30 7 1 7 8
M  V30 8 1 8 9
M  V30 9 2 9 10
M  V30 10 1 9 11
M  V30 11 1 11 12
M  V30 12 2 12 13
M  V30 13 1 13 14
M  V30 14 1 14 15
M  V30 15 2 15 16
M  V30 16 1 16 17
M  V30 17 2 17 18
M  V30 18 1 18 19
M  V30 19 1 19 20
M  V30 20 2 19 21
M  V30 21 2 14 22
M  V30 22 1 22 23
M  V30 23 2 7 24
M  V30 24 1 24 3
M  V30 25 1 23 12
M  V30 26 1 21 15
M  V30 27 1 1 25
M  V30 28 1 1 26
M  V30 29 1 1 27
M  V30 30 1 4 28
M  V30 31 1 5 29
M  V30 32 1 6 30
M  V30 33 1 8 31
M  V30 34 1 8 32
M  V30 35 1 11 33
M  V30 36 1 16 34
M  V30 37 1 17 35
M  V30 38 1 21 36
M  V30 39 1 22 37
M  V30 40 1 24 38
M  V30 END BOND
M  V30 END CTAB
M  END
>  <Dataset>  (990) 
ChEMBL_Kinases

>  <Ligand_Instance>  (990) 
nan

>  <PDB_ID>  (990) 
nan

>  <Standardized_SMILES>  (990) 
COc1cccc(CC(=O)Nc2nc(-c3ccnc(Cl)c3)cs2)c1

>  <Name>  (990) 
nan

>  <Pocket>  (990) 
nan

>  <ATP_Site>  (990) 
nan

>  <Peripheral>  (990) 
nan

>  <Num_H_Atoms_ProtBoundConf>  (990) 
nan

>  <Num_Resolved_Atoms>  (990) 
nan

>  <Num_Not_Resolved_Atoms>  (990) 
nan

$$$$
CHEMBL3581144
     RDKit          3D

  0  0  0  0  0  0  0  0  0  0999 V3000
M  V30 BEGIN CTAB
M  V30 COUNTS 38 40 0 0 0
M  V30 BEGIN ATOM
M  V30 1 C -0.929229 -6.132750 -1.259945 0
M  V30 2 O 0.424442 -5.892339 -1.034893 0
M  V30 3 C 1.033352 -4.655898 -1.151404 0
M  V30 4 C 2.396438 -4.561263 -0.896335 0
M  V30 5 C 3.010383 -3.324095 -1.011979 0
M  V30 6 C 2.229375 -2.237912 -1.378206 0
M  V30 7 C 0.866663 -2.318394 -1.635930 0
M  V30 8 C 0.155724 -1.054614 -2.022388 0
M  V30 9 C -0.336542 -0.403853 -0.765623 0
M  V30 10 O -0.150070 -0.889726 0.385042 0
M  V30 11 N -1.049458 0.817905 -0.843635 0
M  V30 12 C -1.402685 1.212863 0.547795 0
M  V30 13 N -0.747506 1.877505 1.261715 0
M  V30 14 C -1.060041 2.234129 2.509777 0
M  V30 15 C -0.188669 3.065749 3.335816 0
M  V30 16 C 1.028652 3.561799 2.919872 0
M  V30 17 C 1.845797 4.347000 3.707065 0
M  V30 18 N 1.465013 4.666640 4.956842 0
M  V30 19 C 0.289651 4.216392 5.426137 0
M  V30 20 F -0.080319 4.543947 6.680486 0
M  V30 21 C -0.510097 3.434649 4.624436 0
M  V30 22 C -2.284984 1.759936 2.987109 0
M  V30 23 S -2.897758 0.782399 1.480092 0
M  V30 24 C 0.281122 -3.564500 -1.512867 0
M  V30 25 H -1.530999 -5.298797 -0.848452 0
M  V30 26 H -1.269168 -7.043040 -0.726562 0
M  V30 27 H -1.160118 -6.203470 -2.345655 0
M  V30 28 H 3.001007 -5.425863 -0.608251 0
M  V30 29 H 4.073055 -3.160755 -0.830410 0
M  V30 30 H 2.721975 -1.267512 -1.466699 0
M  V30 31 H -0.655727 -1.273329 -2.737526 0
M  V30 32 H 0.887708 -0.380182 -2.497493 0
M  V30 33 H -1.229055 1.257766 -1.761348 0
M  V30 34 H 1.366821 3.316717 1.901428 0
M  V30 35 H 2.798005 4.717316 3.339956 0
M  V30 36 H -1.436473 3.112037 5.070389 0
M  V30 37 H -2.707651 1.955524 3.998869 0
M  V30 38 H -0.773914 -3.613112 -1.715046 0
M  V30 END ATOM
M  V30 BEGIN BOND
M  V30 1 1 1 2
M  V30 2 1 2 3
M  V30 3 2 3 4
M  V30 4 1 4 5
M  V30 5 2 5 6
M  V30 6 1 6 7
M  V30 7 1 7 8
M  V30 8 1 8 9
M  V30 9 2 9 10
M  V30 10 1 9 11
M  V30 11 1 11 12
M  V30 12 2 12 13
M  V30 13 1 13 14
M  V30 14 1 14 15
M  V30 15 2 15 16
M  V30 16 1 16 17
M  V30 17 2 17 18
M  V30 18 1 18 19
M  V30 19 1 19 20
M  V30 20 2 19 21
M  V30 21 2 14 22
M  V30 22 1 22 23
M  V30 23 2 7 24
M  V30 24 1 24 3
M  V30 25 1 23 12
M  V30 26 1 21 15
M  V30 27 1 1 25
M  V30 28 1 1 26
M  V30 29 1 1 27
M  V30 30 1 4 28
M  V30 31 1 5 29
M  V30 32 1 6 30
M  V30 33 1 8 31
M  V30 34 1 8 32
M  V30 35 1 11 33
M  V30 36 1 16 34
M  V30 37 1 17 35
M  V30 38 1 21 36
M  V30 39 1 22 37
M  V30 40 1 24 38
M  V30 END BOND
M  V30 END CTAB
M  END
>  <Dataset>  (991) 
ChEMBL_Kinases

>  <Ligand_Instance>  (991) 
nan

>  <PDB_ID>  (991) 
nan

>  <Standardized_SMILES>  (991) 
COc1cccc(CC(=O)Nc2nc(-c3ccnc(F)c3)cs2)c1

>  <Name>  (991) 
nan

>  <Pocket>  (991) 
nan

>  <ATP_Site>  (991) 
nan

>  <Peripheral>  (991) 
nan

>  <Num_H_Atoms_ProtBoundConf>  (991) 
nan

>  <Num_Resolved_Atoms>  (991) 
nan

>  <Num_Not_Resolved_Atoms>  (991) 
nan

$$$$
CHEMBL3581141
     RDKit          3D

  0  0  0  0  0  0  0  0  0  0999 V3000
M  V30 BEGIN CTAB
M  V30 COUNTS 43 45 0 0 0
M  V30 BEGIN ATOM
M  V30 1 C 3.445281 -7.875207 0.327193 0
M  V30 2 N 2.730852 -7.070021 1.290923 0
M  V30 3 C 2.914542 -5.659563 1.296914 0
M  V30 4 C 2.111809 -4.826900 0.537218 0
M  V30 5 C 2.265537 -3.479190 0.524619 0
M  V30 6 C 1.429242 -2.590792 -0.268880 0
M  V30 7 C 0.378496 -3.075839 -1.097775 0
M  V30 8 S -0.295054 -1.490951 -1.827962 0
M  V30 9 C 0.910778 -0.509121 -0.921341 0
M  V30 10 N 1.059135 0.964817 -0.951719 0
M  V30 11 C 0.291914 1.619705 0.019660 0
M  V30 12 O -0.419259 0.905403 0.790069 0
M  V30 13 C 0.272522 3.096942 0.187949 0
M  V30 14 C -0.644094 3.451471 1.306516 0
M  V30 15 C -0.267954 3.569050 2.633153 0
M  V30 16 C -1.226450 3.906146 3.574875 0
M  V30 17 C -2.533693 4.119534 3.186884 0
M  V30 18 C -2.918879 4.002797 1.853302 0
M  V30 19 O -4.262973 4.243959 1.602232 0
M  V30 20 C -4.881340 4.187644 0.351366 0
M  V30 21 C -1.955372 3.668126 0.935024 0
M  V30 22 N 1.562459 -1.289585 -0.293834 0
M  V30 23 C 3.286007 -3.025122 1.331714 0
M  V30 24 C 4.114513 -3.803065 2.107265 0
M  V30 25 N 3.889078 -5.128844 2.057512 0
M  V30 26 H 2.887225 -7.938985 -0.633106 0
M  V30 27 H 4.431563 -7.453815 0.064626 0
M  V30 28 H 3.526035 -8.918931 0.705748 0
M  V30 29 H 2.088566 -7.534053 1.970945 0
M  V30 30 H 1.362380 -5.322298 -0.038554 0
M  V30 31 H 0.113580 -4.246319 -1.196791 0
M  V30 32 H 1.634326 1.556050 -1.573545 0
M  V30 33 H 1.304701 3.487308 0.398472 0
M  V30 34 H -0.034600 3.584349 -0.747753 0
M  V30 35 H 0.783378 3.375983 2.799567 0
M  V30 36 H -0.867174 3.981850 4.593556 0
M  V30 37 H -3.240347 4.381072 3.969580 0
M  V30 38 H -5.215393 5.186547 -0.013213 0
M  V30 39 H -5.836841 3.601459 0.463376 0
M  V30 40 H -4.300243 3.680591 -0.438296 0
M  V30 41 H -2.293574 3.588168 -0.082932 0
M  V30 42 H 3.481065 -1.941725 1.381448 0
M  V30 43 H 4.893221 -3.358030 2.712790 0
M  V30 END ATOM
M  V30 BEGIN BOND
M  V30 1 1 1 2
M  V30 2 1 2 3
M  V30 3 2 3 4
M  V30 4 1 4 5
M  V30 5 1 5 6
M  V30 6 2 6 7
M  V30 7 1 7 8
M  V30 8 1 8 9
M  V30 9 1 9 10
M  V30 10 1 10 11
M  V30 11 2 11 12
M  V30 12 1 11 13
M  V30 13 1 13 14
M  V30 14 2 14 15
M  V30 15 1 15 16
M  V30 16 2 16 17
M  V30 17 1 17 18
M  V30 18 1 18 19
M  V30 19 1 19 20
M  V30 20 2 18 21
M  V30 21 2 9 22
M  V30 22 2 5 23
M  V30 23 1 23 24
M  V30 24 2 24 25
M  V30 25 1 25 3
M  V30 26 1 22 6
M  V30 27 1 21 14
M  V30 28 1 1 26
M  V30 29 1 1 27
M  V30 30 1 1 28
M  V30 31 1 2 29
M  V30 32 1 4 30
M  V30 33 1 7 31
M  V30 34 1 10 32
M  V30 35 1 13 33
M  V30 36 1 13 34
M  V30 37 1 15 35
M  V30 38 1 16 36
M  V30 39 1 17 37
M  V30 40 1 20 38
M  V30 41 1 20 39
M  V30 42 1 20 40
M  V30 43 1 21 41
M  V30 44 1 23 42
M  V30 45 1 24 43
M  V30 END BOND
M  V30 END CTAB
M  END
>  <Dataset>  (992) 
ChEMBL_Kinases

>  <Ligand_Instance>  (992) 
nan

>  <PDB_ID>  (992) 
nan

>  <Standardized_SMILES>  (992) 
CNc1cc(-c2csc(NC(=O)Cc3cccc(OC)c3)n2)ccn1

>  <Name>  (992) 
nan

>  <Pocket>  (992) 
nan

>  <ATP_Site>  (992) 
nan

>  <Peripheral>  (992) 
nan

>  <Num_H_Atoms_ProtBoundConf>  (992) 
nan

>  <Num_Resolved_Atoms>  (992) 
nan

>  <Num_Not_Resolved_Atoms>  (992) 
nan

$$$$
CHEMBL3581139
     RDKit          3D

  0  0  0  0  0  0  0  0  0  0999 V3000
M  V30 BEGIN CTAB
M  V30 COUNTS 41 43 0 0 0
M  V30 BEGIN ATOM
M  V30 1 C 1.789825 -6.173173 -2.231266 0
M  V30 2 O 2.780636 -5.985430 -1.261892 0
M  V30 3 C 3.173699 -4.714736 -0.882709 0
M  V30 4 C 4.160794 -4.582412 0.083281 0
M  V30 5 C 4.566846 -3.303481 0.475147 0
M  V30 6 C 3.975756 -2.200955 -0.108619 0
M  V30 7 C 2.990619 -2.295822 -1.072859 0
M  V30 8 C 2.340126 -1.122556 -1.715110 0
M  V30 9 C 1.141016 -0.764820 -0.883951 0
M  V30 10 O 1.048361 -1.555985 0.094268 0
M  V30 11 N 0.360016 0.325977 -1.300120 0
M  V30 12 C -0.784828 0.572279 -0.400252 0
M  V30 13 N -0.781029 1.275932 0.548708 0
M  V30 14 C -1.832163 1.483497 1.349800 0
M  V30 15 C -1.792867 2.358890 2.513265 0
M  V30 16 C -0.668428 3.054872 2.896833 0
M  V30 17 C -0.594796 3.892573 3.992300 0
M  V30 18 N -1.716567 4.040496 4.747732 0
M  V30 19 C -2.848664 3.389494 4.428740 0
M  V30 20 C -4.039215 3.589143 5.288125 0
M  V30 21 C -2.872456 2.575009 3.339957 0
M  V30 22 C -3.025394 0.786801 0.999348 0
M  V30 23 S -2.449215 -0.147534 -0.548585 0
M  V30 24 C 2.603552 -3.576762 -1.446124 0
M  V30 25 H 1.419304 -7.226207 -2.104508 0
M  V30 26 H 0.901498 -5.500144 -2.077960 0
M  V30 27 H 2.197606 -6.007784 -3.251398 0
M  V30 28 H 4.641482 -5.436208 0.557821 0
M  V30 29 H 5.337459 -3.206985 1.229317 0
M  V30 30 H 4.294453 -1.197587 0.198948 0
M  V30 31 H 1.973654 -1.445131 -2.705162 0
M  V30 32 H 3.077939 -0.315568 -1.746212 0
M  V30 33 H 0.612871 0.847933 -2.142225 0
M  V30 34 H 0.245675 2.945450 2.296269 0
M  V30 35 H 0.335766 4.403949 4.222439 0
M  V30 36 H -4.025178 2.835239 6.115480 0
M  V30 37 H -4.015244 4.584863 5.803186 0
M  V30 38 H -5.001461 3.438725 4.757198 0
M  V30 39 H -3.816204 2.086126 3.146744 0
M  V30 40 H -3.978979 0.848982 1.555656 0
M  V30 41 H 1.826569 -3.673001 -2.206530 0
M  V30 END ATOM
M  V30 BEGIN BOND
M  V30 1 1 1 2
M  V30 2 1 2 3
M  V30 3 2 3 4
M  V30 4 1 4 5
M  V30 5 2 5 6
M  V30 6 1 6 7
M  V30 7 1 7 8
M  V30 8 1 8 9
M  V30 9 2 9 10
M  V30 10 1 9 11
M  V30 11 1 11 12
M  V30 12 2 12 13
M  V30 13 1 13 14
M  V30 14 1 14 15
M  V30 15 2 15 16
M  V30 16 1 16 17
M  V30 17 2 17 18
M  V30 18 1 18 19
M  V30 19 1 19 20
M  V30 20 2 19 21
M  V30 21 2 14 22
M  V30 22 1 22 23
M  V30 23 2 7 24
M  V30 24 1 24 3
M  V30 25 1 23 12
M  V30 26 1 21 15
M  V30 27 1 1 25
M  V30 28 1 1 26
M  V30 29 1 1 27
M  V30 30 1 4 28
M  V30 31 1 5 29
M  V30 32 1 6 30
M  V30 33 1 8 31
M  V30 34 1 8 32
M  V30 35 1 11 33
M  V30 36 1 16 34
M  V30 37 1 17 35
M  V30 38 1 20 36
M  V30 39 1 20 37
M  V30 40 1 20 38
M  V30 41 1 21 39
M  V30 42 1 22 40
M  V30 43 1 24 41
M  V30 END BOND
M  V30 END CTAB
M  END
>  <Dataset>  (993) 
ChEMBL_Kinases

>  <Ligand_Instance>  (993) 
nan

>  <PDB_ID>  (993) 
nan

>  <Standardized_SMILES>  (993) 
COc1cccc(CC(=O)Nc2nc(-c3ccnc(C)c3)cs2)c1

>  <Name>  (993) 
nan

>  <Pocket>  (993) 
nan

>  <ATP_Site>  (993) 
nan

>  <Peripheral>  (993) 
nan

>  <Num_H_Atoms_ProtBoundConf>  (993) 
nan

>  <Num_Resolved_Atoms>  (993) 
nan

>  <Num_Not_Resolved_Atoms>  (993) 
nan

$$$$
CHEMBL3582225
     RDKit          3D

  0  0  0  0  0  0  0  0  0  0999 V3000
M  V30 BEGIN CTAB
M  V30 COUNTS 53 58 0 0 0
M  V30 BEGIN ATOM
M  V30 1 C 2.278486 1.627268 -6.048807 0
M  V30 2 N 3.376651 2.246003 -6.518099 0
M  V30 3 N 4.062383 2.602430 -5.437682 0
M  V30 4 C 3.415257 2.219382 -4.315659 0
M  V30 5 C 3.782791 2.392331 -2.911837 0
M  V30 6 C 2.906573 1.885371 -1.973966 0
M  V30 7 C 3.299749 2.073544 -0.643366 0
M  V30 8 C 4.470898 2.714429 -0.258942 0
M  V30 9 C 5.289810 3.191830 -1.290332 0
M  V30 10 N 4.930888 3.022018 -2.594881 0
M  V30 11 N 4.505098 2.703003 1.081619 0
M  V30 12 C 3.390089 2.073888 1.551001 0
M  V30 13 N 2.999541 1.828388 2.824317 0
M  V30 14 C 1.843823 1.181889 3.064511 0
M  V30 15 C 1.008263 0.741352 2.058774 0
M  V30 16 C -0.252379 0.036375 2.266017 0
M  V30 17 C -1.235247 0.245704 1.313926 0
M  V30 18 C -2.462940 -0.371534 1.417894 0
M  V30 19 C -2.788825 -1.219293 2.451626 0
M  V30 20 C -4.072674 -1.934376 2.652405 0
M  V30 21 N -4.015862 -3.200742 2.083485 0
M  V30 22 C -3.791176 -3.399823 0.723571 0
M  V30 23 C -2.420411 -4.079020 0.592483 0
M  V30 24 C -2.486720 -5.380611 1.360287 0
M  V30 25 C -2.982603 -5.217668 2.765554 0
M  V30 26 C -4.187391 -4.335954 2.908334 0
M  V30 27 C -1.783861 -1.419903 3.405447 0
M  V30 28 C -0.550050 -0.808865 3.314797 0
M  V30 29 C 1.434186 1.007282 0.752586 0
M  V30 30 C 2.612866 1.667005 0.486276 0
M  V30 31 O 2.317588 1.620224 -4.732458 0
M  V30 32 H 1.521600 1.221822 -6.690277 0
M  V30 33 H 1.989044 1.381974 -2.215557 0
M  V30 34 H 6.195634 3.686710 -0.944652 0
M  V30 35 H 5.302782 3.132873 1.638253 0
M  V30 36 H 1.485391 0.960186 4.067951 0
M  V30 37 H -1.085702 0.898199 0.451894 0
M  V30 38 H -3.209590 -0.196516 0.680086 0
M  V30 39 H -4.883023 -1.275008 2.273873 0
M  V30 40 H -4.234986 -2.028006 3.745015 0
M  V30 41 H -3.802629 -2.436889 0.180150 0
M  V30 42 H -4.560910 -4.062703 0.268085 0
M  V30 43 H -2.161409 -4.318562 -0.441738 0
M  V30 44 H -1.678139 -3.443786 1.123070 0
M  V30 45 H -3.079614 -6.133825 0.781267 0
M  V30 46 H -1.451440 -5.779466 1.408875 0
M  V30 47 H -3.295401 -6.228979 3.115706 0
M  V30 48 H -2.164723 -4.916305 3.451143 0
M  V30 49 H -5.133197 -4.868002 2.670372 0
M  V30 50 H -4.249163 -4.011588 3.964245 0
M  V30 51 H -1.920143 -2.064238 4.264366 0
M  V30 52 H 0.238098 -0.957502 4.050051 0
M  V30 53 H 0.868785 0.713701 -0.123454 0
M  V30 END ATOM
M  V30 BEGIN BOND
M  V30 1 2 1 2
M  V30 2 1 2 3
M  V30 3 2 3 4
M  V30 4 1 4 5
M  V30 5 2 5 6
M  V30 6 1 6 7
M  V30 7 2 7 8
M  V30 8 1 8 9
M  V30 9 2 9 10
M  V30 10 1 8 11
M  V30 11 1 11 12
M  V30 12 2 12 13
M  V30 13 1 13 14
M  V30 14 2 14 15
M  V30 15 1 15 16
M  V30 16 2 16 17
M  V30 17 1 17 18
M  V30 18 2 18 19
M  V30 19 1 19 20
M  V30 20 1 20 21
M  V30 21 1 21 22
M  V30 22 1 22 23
M  V30 23 1 23 24
M  V30 24 1 24 25
M  V30 25 1 25 26
M  V30 26 1 19 27
M  V30 27 2 27 28
M  V30 28 1 15 29
M  V30 29 2 29 30
M  V30 30 1 4 31
M  V30 31 1 31 1
M  V30 32 1 10 5
M  V30 33 1 30 12
M  V30 34 1 30 7
M  V30 35 1 28 16
M  V30 36 1 26 21
M  V30 37 1 1 32
M  V30 38 1 6 33
M  V30 39 1 9 34
M  V30 40 1 11 35
M  V30 41 1 14 36
M  V30 42 1 17 37
M  V30 43 1 18 38
M  V30 44 1 20 39
M  V30 45 1 20 40
M  V30 46 1 22 41
M  V30 47 1 22 42
M  V30 48 1 23 43
M  V30 49 1 23 44
M  V30 50 1 24 45
M  V30 51 1 24 46
M  V30 52 1 25 47
M  V30 53 1 25 48
M  V30 54 1 26 49
M  V30 55 1 26 50
M  V30 56 1 27 51
M  V30 57 1 28 52
M  V30 58 1 29 53
M  V30 END BOND
M  V30 END CTAB
M  END
>  <Dataset>  (994) 
ChEMBL_Kinases

>  <Ligand_Instance>  (994) 
nan

>  <PDB_ID>  (994) 
nan

>  <Standardized_SMILES>  (994) 
c1nnc(-c2cc3c(cn2)[nH]c2ncc(-c4ccc(CN5CCCCC5)cc4)cc23)o1

>  <Name>  (994) 
nan

>  <Pocket>  (994) 
nan

>  <ATP_Site>  (994) 
nan

>  <Peripheral>  (994) 
nan

>  <Num_H_Atoms_ProtBoundConf>  (994) 
nan

>  <Num_Resolved_Atoms>  (994) 
nan

>  <Num_Not_Resolved_Atoms>  (994) 
nan

$$$$
CHEMBL3578251
     RDKit          3D

  0  0  0  0  0  0  0  0  0  0999 V3000
M  V30 BEGIN CTAB
M  V30 COUNTS 43 46 0 0 0
M  V30 BEGIN ATOM
M  V30 1 C 3.472471 -3.834390 0.742484 0
M  V30 2 C 2.276164 -4.697296 0.614352 0
M  V30 3 C 1.182055 -4.577454 -0.250452 0
M  V30 4 C 1.021625 -3.477996 -1.266149 0
M  V30 5 N 0.628926 -2.293572 -0.517136 0
M  V30 6 C 0.388249 -1.062830 -1.171126 0
M  V30 7 O 0.536698 -1.070108 -2.429382 0
M  V30 8 C -0.008530 0.186245 -0.528652 0
M  V30 9 C -0.203492 1.279296 -1.345474 0
M  V30 10 C -0.585862 2.501034 -0.770468 0
M  V30 11 C -0.752292 2.560204 0.595556 0
M  V30 12 C -0.554480 1.453703 1.418335 0
M  V30 13 C -0.178425 0.257746 0.839940 0
M  V30 14 O -0.723090 1.522401 2.782054 0
M  V30 15 C -1.103155 2.665580 3.489232 0
M  V30 16 C -1.315068 3.849757 2.619468 0
M  V30 17 C -1.691604 5.008701 3.286057 0
M  V30 18 N -1.889599 6.099068 2.509241 0
M  V30 19 C -1.732843 6.068475 1.173509 0
M  V30 20 C -1.359349 4.929301 0.488957 0
M  V30 21 C -1.149333 3.799302 1.249902 0
M  V30 22 C 0.281102 -5.603485 -0.038508 0
M  V30 23 N 0.811797 -6.340067 0.938521 0
M  V30 24 N 1.963476 -5.802004 1.303116 0
M  V30 25 C 2.749887 -6.417001 2.359899 0
M  V30 26 H 4.401928 -4.340122 0.421411 0
M  V30 27 H 3.310937 -2.953520 0.076650 0
M  V30 28 H 3.568616 -3.522067 1.817035 0
M  V30 29 H 1.977905 -3.374117 -1.799406 0
M  V30 30 H 0.274859 -3.795123 -2.001370 0
M  V30 31 H 0.505835 -2.286333 0.522889 0
M  V30 32 H -0.072016 1.233024 -2.421850 0
M  V30 33 H -0.725147 3.310592 -1.426730 0
M  V30 34 H -0.031279 -0.579910 1.486480 0
M  V30 35 H -2.047285 2.477640 4.046039 0
M  V30 36 H -0.340662 2.966483 4.246207 0
M  V30 37 H -1.818949 5.038284 4.361854 0
M  V30 38 H -1.914528 6.992366 0.635600 0
M  V30 39 H -1.260995 4.998331 -0.556488 0
M  V30 40 H -0.656598 -5.801522 -0.532816 0
M  V30 41 H 3.166055 -7.360391 1.995776 0
M  V30 42 H 2.047962 -6.690719 3.201324 0
M  V30 43 H 3.522998 -5.696884 2.722911 0
M  V30 END ATOM
M  V30 BEGIN BOND
M  V30 1 1 1 2
M  V30 2 2 2 3
M  V30 3 1 3 4
M  V30 4 1 4 5
M  V30 5 1 5 6
M  V30 6 2 6 7
M  V30 7 1 6 8
M  V30 8 2 8 9
M  V30 9 1 9 10
M  V30 10 2 10 11
M  V30 11 1 11 12
M  V30 12 2 12 13
M  V30 13 1 12 14
M  V30 14 1 14 15
M  V30 15 1 15 16
M  V30 16 2 16 17
M  V30 17 1 17 18
M  V30 18 2 18 19
M  V30 19 1 19 20
M  V30 20 2 20 21
M  V30 21 1 3 22
M  V30 22 2 22 23
M  V30 23 1 23 24
M  V30 24 1 24 25
M  V30 25 1 24 2
M  V30 26 1 13 8
M  V30 27 1 21 16
M  V30 28 1 21 11
M  V30 29 1 1 26
M  V30 30 1 1 27
M  V30 31 1 1 28
M  V30 32 1 4 29
M  V30 33 1 4 30
M  V30 34 1 5 31
M  V30 35 1 9 32
M  V30 36 1 10 33
M  V30 37 1 13 34
M  V30 38 1 15 35
M  V30 39 1 15 36
M  V30 40 1 17 37
M  V30 41 1 19 38
M  V30 42 1 20 39
M  V30 43 1 22 40
M  V30 44 1 25 41
M  V30 45 1 25 42
M  V30 46 1 25 43
M  V30 END BOND
M  V30 END CTAB
M  END
>  <Dataset>  (995) 
ChEMBL_Kinases

>  <Ligand_Instance>  (995) 
nan

>  <PDB_ID>  (995) 
nan

>  <Standardized_SMILES>  (995) 
Cc1c(CNC(=O)c2ccc3c(c2)OCc2cnccc2-3)cnn1C

>  <Name>  (995) 
nan

>  <Pocket>  (995) 
nan

>  <ATP_Site>  (995) 
nan

>  <Peripheral>  (995) 
nan

>  <Num_H_Atoms_ProtBoundConf>  (995) 
nan

>  <Num_Resolved_Atoms>  (995) 
nan

>  <Num_Not_Resolved_Atoms>  (995) 
nan

$$$$
CHEMBL3578253
     RDKit          3D

  0  0  0  0  0  0  0  0  0  0999 V3000
M  V30 BEGIN CTAB
M  V30 COUNTS 51 54 0 0 0
M  V30 BEGIN ATOM
M  V30 1 C 3.609254 -2.214160 -0.405994 0
M  V30 2 C 3.514636 -2.216258 1.105692 0
M  V30 3 N 3.612881 -0.833391 1.541351 0
M  V30 4 C 4.783548 -0.223166 1.835543 0
M  V30 5 C 6.097679 -0.642381 1.825013 0
M  V30 6 N 7.117169 0.177553 2.170236 0
M  V30 7 C 6.818030 1.438742 2.532386 0
M  V30 8 C 5.515817 1.930088 2.566255 0
M  V30 9 C 4.494356 1.071077 2.208793 0
M  V30 10 C 3.123175 1.277470 2.148478 0
M  V30 11 C 2.291012 2.355365 2.405856 0
M  V30 12 C 0.913354 2.184712 2.228597 0
M  V30 13 C 0.389323 0.979323 1.809222 0
M  V30 14 C -1.060618 0.879318 1.647265 0
M  V30 15 O -1.729192 1.913092 1.906021 0
M  V30 16 N -1.709289 -0.305508 1.222789 0
M  V30 17 C -3.141968 -0.436692 1.052791 0 CFG=2
M  V30 18 C -3.582666 -1.574652 1.955573 0
M  V30 19 C -3.501251 -0.779650 -0.348295 0
M  V30 20 C -2.836433 -0.044489 -1.305091 0
M  V30 21 C -3.096865 -0.283795 -2.645614 0
M  V30 22 C -4.034515 -1.273562 -2.955647 0
M  V30 23 C -4.698929 -2.008689 -1.984824 0
M  V30 24 O -5.613955 -2.971633 -2.390588 0
M  V30 25 C -6.277010 -3.706449 -1.377957 0
M  V30 26 C -4.427649 -1.757902 -0.641860 0
M  V30 27 C 1.260526 -0.062656 1.566457 0
M  V30 28 C 2.625746 0.064637 1.729209 0
M  V30 29 H 4.414912 -2.888956 -0.788736 0
M  V30 30 H 2.633269 -2.492859 -0.875040 0
M  V30 31 H 3.854116 -1.207074 -0.825315 0
M  V30 32 H 4.276284 -2.863059 1.579403 0
M  V30 33 H 2.503000 -2.581757 1.378910 0
M  V30 34 H 6.299666 -1.679156 1.523335 0
M  V30 35 H 7.547464 2.193085 2.831130 0
M  V30 36 H 5.261130 2.938598 2.854459 0
M  V30 37 H 2.744082 3.289206 2.735017 0
M  V30 38 H 0.296643 3.056156 2.441739 0
M  V30 39 H -1.153863 -1.162423 1.008404 0
M  V30 40 H -3.686513 0.489099 1.289287 0
M  V30 41 H -3.090065 -1.475962 2.952830 0
M  V30 42 H -3.197965 -2.533663 1.547379 0
M  V30 43 H -4.672977 -1.577100 2.134378 0
M  V30 44 H -2.108510 0.724572 -1.088169 0
M  V30 45 H -2.586700 0.281402 -3.416583 0
M  V30 46 H -4.217001 -1.437589 -4.023703 0
M  V30 47 H -7.056924 -4.360566 -1.820499 0
M  V30 48 H -6.691191 -3.064202 -0.575017 0
M  V30 49 H -5.520145 -4.391689 -0.898194 0
M  V30 50 H -4.923084 -2.307170 0.120166 0
M  V30 51 H 0.865907 -1.011944 1.237823 0
M  V30 END ATOM
M  V30 BEGIN BOND
M  V30 1 1 1 2
M  V30 2 1 2 3
M  V30 3 1 3 4
M  V30 4 2 4 5
M  V30 5 1 5 6
M  V30 6 2 6 7
M  V30 7 1 7 8
M  V30 8 2 8 9
M  V30 9 1 9 10
M  V30 10 2 10 11
M  V30 11 1 11 12
M  V30 12 2 12 13
M  V30 13 1 13 14
M  V30 14 2 14 15
M  V30 15 1 14 16
M  V30 16 1 16 17
M  V30 17 1 17 18
M  V30 18 1 17 19
M  V30 19 2 19 20
M  V30 20 1 20 21
M  V30 21 2 21 22
M  V30 22 1 22 23
M  V30 23 1 23 24
M  V30 24 1 24 25
M  V30 25 2 23 26
M  V30 26 1 13 27
M  V30 27 2 27 28
M  V30 28 1 28 3
M  V30 29 1 9 4
M  V30 30 1 28 10
M  V30 31 1 26 19
M  V30 32 1 1 29
M  V30 33 1 1 30
M  V30 34 1 1 31
M  V30 35 1 2 32
M  V30 36 1 2 33
M  V30 37 1 5 34
M  V30 38 1 7 35
M  V30 39 1 8 36
M  V30 40 1 11 37
M  V30 41 1 12 38
M  V30 42 1 16 39
M  V30 43 1 17 40 CFG=1
M  V30 44 1 18 41
M  V30 45 1 18 42
M  V30 46 1 18 43
M  V30 47 1 20 44
M  V30 48 1 21 45
M  V30 49 1 22 46
M  V30 50 1 25 47
M  V30 51 1 25 48
M  V30 52 1 25 49
M  V30 53 1 26 50
M  V30 54 1 27 51
M  V30 END BOND
M  V30 END CTAB
M  END
>  <Dataset>  (996) 
ChEMBL_Kinases

>  <Ligand_Instance>  (996) 
nan

>  <PDB_ID>  (996) 
nan

>  <Standardized_SMILES>  (996) 
CCn1c2cnccc2c2ccc(C(=O)N[C@H](C)c3cccc(OC)c3)cc21

>  <Name>  (996) 
nan

>  <Pocket>  (996) 
nan

>  <ATP_Site>  (996) 
nan

>  <Peripheral>  (996) 
nan

>  <Num_H_Atoms_ProtBoundConf>  (996) 
nan

>  <Num_Resolved_Atoms>  (996) 
nan

>  <Num_Not_Resolved_Atoms>  (996) 
nan

$$$$
CHEMBL358095
     RDKit          3D

  0  0  0  0  0  0  0  0  0  0999 V3000
M  V30 BEGIN CTAB
M  V30 COUNTS 54 55 0 0 0
M  V30 BEGIN ATOM
M  V30 1 C 0.514738 -3.212084 4.250182 0
M  V30 2 C 1.549477 -2.133157 3.987210 0
M  V30 3 C 1.072694 -1.194809 2.909265 0
M  V30 4 C 2.046595 -0.100647 2.596916 0
M  V30 5 C 3.366484 -0.470731 2.125844 0
M  V30 6 C 3.579579 -1.246443 0.902050 0
M  V30 7 C 3.107083 -0.687534 -0.387403 0
M  V30 8 C 1.368486 0.917585 1.778843 0
M  V30 9 O 1.217146 2.139820 2.041636 0
M  V30 10 O 0.723696 0.930490 0.575299 0
M  V30 11 C 0.144067 2.063924 -0.006728 0
M  V30 12 C -0.470711 1.719927 -1.330877 0
M  V30 13 C -1.047301 3.000794 -1.905475 0
M  V30 14 O -2.058385 3.442493 -1.063305 0
M  V30 15 C -1.573387 0.720999 -1.283472 0
M  V30 16 C -1.013041 -0.483388 -1.952855 0
M  V30 17 C -1.364306 -1.751911 -1.917708 0
M  V30 18 C -2.480256 -2.263592 -1.137213 0
M  V30 19 C -2.289601 -3.489970 -0.528059 0
M  V30 20 C -3.262102 -4.094091 0.237368 0
M  V30 21 C -4.481323 -3.505398 0.436690 0
M  V30 22 F -5.532587 -3.975945 1.161235 0
M  V30 23 C -4.692002 -2.281627 -0.162095 0
M  V30 24 C -3.712421 -1.686113 -0.925569 0
M  V30 25 C 0.101647 0.044021 -2.726176 0
M  V30 26 O 0.644377 -0.407629 -3.778920 0
M  V30 27 O 0.570964 1.215867 -2.144369 0
M  V30 28 H 0.923200 -4.006573 4.905612 0
M  V30 29 H -0.357576 -2.702388 4.678150 0
M  V30 30 H 0.212240 -3.608425 3.258201 0
M  V30 31 H 2.412335 -2.698228 3.531780 0
M  V30 32 H 1.893414 -1.621966 4.884863 0
M  V30 33 H 0.722128 -1.760409 2.021454 0
M  V30 34 H 0.163491 -0.682839 3.305366 0
M  V30 35 H 2.193130 0.422321 3.604514 0
M  V30 36 H 3.976575 0.478839 2.021498 0
M  V30 37 H 3.921147 -1.012321 2.951725 0
M  V30 38 H 4.700885 -1.365084 0.795728 0
M  V30 39 H 3.255037 -2.310241 1.066386 0
M  V30 40 H 3.179394 0.394093 -0.481521 0
M  V30 41 H 2.096679 -1.118568 -0.611986 0
M  V30 42 H 3.726279 -1.083550 -1.252370 0
M  V30 43 H -0.620421 2.450233 0.723883 0
M  V30 44 H 0.898959 2.853960 -0.100164 0
M  V30 45 H -0.258641 3.718931 -2.105432 0
M  V30 46 H -1.546195 2.758925 -2.882256 0
M  V30 47 H -2.423202 2.671787 -0.574134 0
M  V30 48 H -2.419398 1.046167 -1.956549 0
M  V30 49 H -1.966340 0.512954 -0.293441 0
M  V30 50 H -0.786893 -2.477737 -2.511866 0
M  V30 51 H -1.388742 -4.057398 -0.600752 0
M  V30 52 H -3.134880 -5.065634 0.730106 0
M  V30 53 H -5.635232 -1.733039 -0.060627 0
M  V30 54 H -3.876023 -0.738114 -1.391782 0
M  V30 END ATOM
M  V30 BEGIN BOND
M  V30 1 1 1 2
M  V30 2 1 2 3
M  V30 3 1 3 4
M  V30 4 1 4 5
M  V30 5 1 5 6
M  V30 6 1 6 7
M  V30 7 1 4 8
M  V30 8 2 8 9
M  V30 9 1 8 10
M  V30 10 1 10 11
M  V30 11 1 11 12
M  V30 12 1 12 13
M  V30 13 1 13 14
M  V30 14 1 12 15
M  V30 15 1 15 16
M  V30 16 2 16 17
M  V30 17 1 17 18
M  V30 18 2 18 19
M  V30 19 1 19 20
M  V30 20 2 20 21
M  V30 21 1 21 22
M  V30 22 1 21 23
M  V30 23 2 23 24
M  V30 24 1 16 25
M  V30 25 2 25 26
M  V30 26 1 25 27
M  V30 27 1 27 12
M  V30 28 1 24 18
M  V30 29 1 1 28
M  V30 30 1 1 29
M  V30 31 1 1 30
M  V30 32 1 2 31
M  V30 33 1 2 32
M  V30 34 1 3 33
M  V30 35 1 3 34
M  V30 36 1 4 35
M  V30 37 1 5 36
M  V30 38 1 5 37
M  V30 39 1 6 38
M  V30 40 1 6 39
M  V30 41 1 7 40
M  V30 42 1 7 41
M  V30 43 1 7 42
M  V30 44 1 11 43
M  V30 45 1 11 44
M  V30 46 1 13 45
M  V30 47 1 13 46
M  V30 48 1 14 47
M  V30 49 1 15 48
M  V30 50 1 15 49
M  V30 51 1 17 50
M  V30 52 1 19 51
M  V30 53 1 20 52
M  V30 54 1 23 53
M  V30 55 1 24 54
M  V30 END BOND
M  V30 END CTAB
M  END
>  <Dataset>  (997) 
ChEMBL_Kinases

>  <Ligand_Instance>  (997) 
nan

>  <PDB_ID>  (997) 
nan

>  <Standardized_SMILES>  (997) 
CCCC(CCC)C(=O)OCC1(CO)C/C(=C\c2ccc(F)cc2)C(=O)O1

>  <Name>  (997) 
nan

>  <Pocket>  (997) 
nan

>  <ATP_Site>  (997) 
nan

>  <Peripheral>  (997) 
nan

>  <Num_H_Atoms_ProtBoundConf>  (997) 
nan

>  <Num_Resolved_Atoms>  (997) 
nan

>  <Num_Not_Resolved_Atoms>  (997) 
nan

$$$$
CHEMBL3580950
     RDKit          3D

  0  0  0  0  0  0  0  0  0  0999 V3000
M  V30 BEGIN CTAB
M  V30 COUNTS 42 45 0 0 0
M  V30 BEGIN ATOM
M  V30 1 C 1.144723 -7.432757 2.051687 0
M  V30 2 C 1.593963 -6.046860 1.834686 0
M  V30 3 C 0.956472 -4.934798 2.345684 0
M  V30 4 C 1.639631 -3.803760 1.951446 0
M  V30 5 N 1.464085 -2.409318 2.164531 0
M  V30 6 C 0.728592 -1.504730 1.369341 0
M  V30 7 N 0.567030 -0.192949 1.577478 0
M  V30 8 C -0.179059 0.482008 0.686350 0
M  V30 9 N -0.377703 1.893923 0.872168 0
M  V30 10 C -1.168380 2.710073 -0.031123 0
M  V30 11 C -0.175607 3.710687 -0.608949 0
M  V30 12 C 0.297994 4.600790 0.501920 0
M  V30 13 N 1.336149 5.460122 -0.041278 0
M  V30 14 C 0.805533 3.894879 1.703745 0
M  V30 15 C 0.214367 2.553748 1.983295 0
M  V30 16 N -0.771501 -0.055958 -0.390798 0
M  V30 17 C -0.670554 -1.362833 -0.688554 0
M  V30 18 C -1.210458 -2.019223 -1.727614 0
M  V30 19 C -1.012169 -3.367000 -1.893129 0
M  V30 20 S 0.092308 -3.791136 -0.375913 0
M  V30 21 C 0.112858 -2.049481 0.254768 0
M  V30 22 N 2.673753 -4.250371 1.212114 0
M  V30 23 N 2.642680 -5.569451 1.146343 0
M  V30 24 H 0.069890 -7.456767 2.317987 0
M  V30 25 H 1.257122 -8.009644 1.109506 0
M  V30 26 H 1.672047 -7.936533 2.888968 0
M  V30 27 H 0.065700 -4.823881 2.964419 0
M  V30 28 H 1.905637 -1.964553 2.979761 0
M  V30 29 H -1.957921 3.251671 0.558543 0
M  V30 30 H -1.591589 2.050452 -0.806384 0
M  V30 31 H -0.629624 4.339229 -1.389425 0
M  V30 32 H 0.635464 3.118704 -1.074210 0
M  V30 33 H -0.561410 5.276510 0.748727 0
M  V30 34 H 0.989683 6.043384 -0.822706 0
M  V30 35 H 2.109183 4.851286 -0.391726 0
M  V30 36 H 0.632725 4.537666 2.593043 0
M  V30 37 H 1.914617 3.767314 1.639685 0
M  V30 38 H -0.582606 2.633991 2.777928 0
M  V30 39 H 0.970652 1.881898 2.437627 0
M  V30 40 H -1.822946 -1.595574 -2.504168 0
M  V30 41 H -1.258323 -4.115179 -2.521495 0
M  V30 42 H 3.341885 -6.158128 0.627434 0
M  V30 END ATOM
M  V30 BEGIN BOND
M  V30 1 1 1 2
M  V30 2 2 2 3
M  V30 3 1 3 4
M  V30 4 1 4 5
M  V30 5 1 5 6
M  V30 6 2 6 7
M  V30 7 1 7 8
M  V30 8 1 8 9
M  V30 9 1 9 10
M  V30 10 1 10 11
M  V30 11 1 11 12
M  V30 12 1 12 13
M  V30 13 1 12 14
M  V30 14 1 14 15
M  V30 15 2 8 16
M  V30 16 1 16 17
M  V30 17 1 17 18
M  V30 18 2 18 19
M  V30 19 1 19 20
M  V30 20 1 20 21
M  V30 21 2 4 22
M  V30 22 1 22 23
M  V30 23 1 23 2
M  V30 24 1 21 6
M  V30 25 1 15 9
M  V30 26 2 21 17
M  V30 27 1 1 24
M  V30 28 1 1 25
M  V30 29 1 1 26
M  V30 30 1 3 27
M  V30 31 1 5 28
M  V30 32 1 10 29
M  V30 33 1 10 30
M  V30 34 1 11 31
M  V30 35 1 11 32
M  V30 36 1 12 33
M  V30 37 1 13 34
M  V30 38 1 13 35
M  V30 39 1 14 36
M  V30 40 1 14 37
M  V30 41 1 15 38
M  V30 42 1 15 39
M  V30 43 1 18 40
M  V30 44 1 19 41
M  V30 45 1 23 42
M  V30 END BOND
M  V30 END CTAB
M  END
>  <Dataset>  (998) 
ChEMBL_Kinases

>  <Ligand_Instance>  (998) 
nan

>  <PDB_ID>  (998) 
nan

>  <Standardized_SMILES>  (998) 
Cc1cc(Nc2nc(N3CCC(N)CC3)nc3ccsc23)n[nH]1

>  <Name>  (998) 
nan

>  <Pocket>  (998) 
nan

>  <ATP_Site>  (998) 
nan

>  <Peripheral>  (998) 
nan

>  <Num_H_Atoms_ProtBoundConf>  (998) 
nan

>  <Num_Resolved_Atoms>  (998) 
nan

>  <Num_Not_Resolved_Atoms>  (998) 
nan

$$$$
CHEMBL3580951
     RDKit          3D

  0  0  0  0  0  0  0  0  0  0999 V3000
M  V30 BEGIN CTAB
M  V30 COUNTS 45 48 0 0 0
M  V30 BEGIN ATOM
M  V30 1 C -1.177338 -6.510383 2.156658 0
M  V30 2 C -0.141964 -5.404407 2.205193 0
M  V30 3 C -0.864763 -4.113623 2.367668 0
M  V30 4 C -0.084571 -2.964555 2.441527 0
M  V30 5 C -0.995245 -1.941158 2.587344 0
M  V30 6 N -0.985326 -0.527965 2.737638 0
M  V30 7 C -0.858588 0.061983 1.456853 0
M  V30 8 N 0.336631 0.407803 0.958962 0
M  V30 9 C 0.295012 0.975304 -0.287850 0
M  V30 10 N 1.582987 1.312445 -0.787816 0
M  V30 11 C 2.065888 2.381017 -1.666654 0
M  V30 12 C 2.728238 3.341979 -0.690423 0
M  V30 13 C 3.417929 2.711126 0.450923 0
M  V30 14 N 2.599077 2.920085 1.652539 0
M  V30 15 C 3.688677 1.248442 0.381824 0
M  V30 16 C 2.737334 0.457542 -0.432976 0
M  V30 17 N -0.814067 1.192778 -1.000982 0
M  V30 18 C -2.040206 0.851549 -0.522803 0
M  V30 19 C -3.205287 1.039263 -1.191936 0
M  V30 20 C -4.376356 0.622918 -0.541377 0
M  V30 21 S -3.743791 -0.069752 1.111809 0
M  V30 22 C -2.004433 0.262131 0.771958 0
M  V30 23 N -2.257584 -2.465747 2.598523 0
M  V30 24 N -2.154322 -3.797924 2.463202 0
M  V30 25 H -0.730326 -7.374728 1.619698 0
M  V30 26 H -1.340512 -6.849450 3.209743 0
M  V30 27 H -2.104237 -6.237692 1.651280 0
M  V30 28 H 0.441849 -5.384293 1.265505 0
M  V30 29 H 0.544092 -5.512591 3.050602 0
M  V30 30 H 0.956469 -2.670445 2.418503 0
M  V30 31 H -1.050826 0.105120 3.570088 0
M  V30 32 H 2.767011 2.005317 -2.431345 0
M  V30 33 H 1.184042 2.886108 -2.115921 0
M  V30 34 H 1.903524 4.030598 -0.338774 0
M  V30 35 H 3.433913 3.976154 -1.277725 0
M  V30 36 H 4.379575 3.263584 0.640383 0
M  V30 37 H 2.674507 2.107699 2.313910 0
M  V30 38 H 1.583564 2.993112 1.411208 0
M  V30 39 H 3.840498 0.844666 1.422815 0
M  V30 40 H 4.710657 1.137580 -0.069595 0
M  V30 41 H 2.354334 -0.411165 0.140345 0
M  V30 42 H 3.230012 0.118231 -1.372362 0
M  V30 43 H -3.361919 1.462022 -2.165716 0
M  V30 44 H -5.422686 0.665634 -0.873933 0
M  V30 45 H -2.912638 -4.519319 2.431633 0
M  V30 END ATOM
M  V30 BEGIN BOND
M  V30 1 1 1 2
M  V30 2 1 2 3
M  V30 3 2 3 4
M  V30 4 1 4 5
M  V30 5 1 5 6
M  V30 6 1 6 7
M  V30 7 2 7 8
M  V30 8 1 8 9
M  V30 9 1 9 10
M  V30 10 1 10 11
M  V30 11 1 11 12
M  V30 12 1 12 13
M  V30 13 1 13 14
M  V30 14 1 13 15
M  V30 15 1 15 16
M  V30 16 2 9 17
M  V30 17 1 17 18
M  V30 18 1 18 19
M  V30 19 2 19 20
M  V30 20 1 20 21
M  V30 21 1 21 22
M  V30 22 2 5 23
M  V30 23 1 23 24
M  V30 24 1 24 3
M  V30 25 1 22 7
M  V30 26 1 16 10
M  V30 27 2 22 18
M  V30 28 1 1 25
M  V30 29 1 1 26
M  V30 30 1 1 27
M  V30 31 1 2 28
M  V30 32 1 2 29
M  V30 33 1 4 30
M  V30 34 1 6 31
M  V30 35 1 11 32
M  V30 36 1 11 33
M  V30 37 1 12 34
M  V30 38 1 12 35
M  V30 39 1 13 36
M  V30 40 1 14 37
M  V30 41 1 14 38
M  V30 42 1 15 39
M  V30 43 1 15 40
M  V30 44 1 16 41
M  V30 45 1 16 42
M  V30 46 1 19 43
M  V30 47 1 20 44
M  V30 48 1 24 45
M  V30 END BOND
M  V30 END CTAB
M  END
>  <Dataset>  (999) 
ChEMBL_Kinases

>  <Ligand_Instance>  (999) 
nan

>  <PDB_ID>  (999) 
nan

>  <Standardized_SMILES>  (999) 
CCc1cc(Nc2nc(N3CCC(N)CC3)nc3ccsc23)n[nH]1

>  <Name>  (999) 
nan

>  <Pocket>  (999) 
nan

>  <ATP_Site>  (999) 
nan

>  <Peripheral>  (999) 
nan

>  <Num_H_Atoms_ProtBoundConf>  (999) 
nan

>  <Num_Resolved_Atoms>  (999) 
nan

>  <Num_Not_Resolved_Atoms>  (999) 
nan

$$$$
